MODEL 1
REMARK VINA RESULT:      -7.8      0.000      0.000
REMARK  Name = 
REMARK  10 active torsions:
REMARK  status: ('A' for Active; 'I' for Inactive)
REMARK    1  A    between atoms: C_1  and  O_2
REMARK    2  A    between atoms: O_2  and  C_3
REMARK    3  A    between atoms: C_3  and  C_4
REMARK    4  A    between atoms: C_4  and  N_5
REMARK    5  A    between atoms: N_5  and  C_6
REMARK    6  A    between atoms: C_9  and  N_10
REMARK    7  A    between atoms: C_13  and  C_14
REMARK    8  A    between atoms: C_18  and  N_19
REMARK    9  A    between atoms: N_19  and  C_20
REMARK   10  A    between atoms: C_20  and  C_21
REMARK                            x       y       z     vdW  Elec       q    Type
REMARK                         _______ _______ _______ _____ _____    ______ ____
ROOT
ATOM      1  N   UNL     1       0.371  10.317  17.875  0.00  0.00    +0.000 N 
ATOM      2  C   UNL     1       1.040   9.294  18.551  0.00  0.00    +0.000 A 
ATOM      3  C   UNL     1       2.063   8.634  17.874  0.00  0.00    +0.000 A 
ATOM      4  C   UNL     1       2.722   7.508  18.420  0.00  0.00    +0.000 A 
ATOM      5  C   UNL     1       2.345   7.154  19.725  0.00  0.00    +0.000 A 
ATOM      6 CL   UNL     1       3.065   5.890  20.658  0.00  0.00    +0.000 Cl
ATOM      7  C   UNL     1       1.336   7.886  20.346  0.00  0.00    +0.000 A 
ATOM      8  N   UNL     1       0.670   8.922  19.783  0.00  0.00    +0.000 NA
ATOM      9  H   UNL     1       0.977  11.109  17.687  0.00  0.00    +0.000 HD
ENDROOT
BRANCH   1  13
ATOM     10  C   UNL     1      -3.745  11.704  17.928  0.00  0.00    +0.000 C 
ATOM     11  C   UNL     1      -2.723  12.308  18.907  0.00  0.00    +0.000 C 
ATOM     12  C   UNL     1      -1.280  12.100  18.441  0.00  0.00    +0.000 C 
ATOM     13  C   UNL     1      -0.998  10.608  18.289  0.00  0.00    +0.000 C 
ATOM     14  C   UNL     1      -1.956  10.020  17.243  0.00  0.00    +0.000 C 
ATOM     15  C   UNL     1      -3.418  10.222  17.653  0.00  0.00    +0.000 C 
BRANCH  10  16
ATOM     16  N   UNL     1      -5.128  11.806  18.426  0.00  0.00    +0.000 NA
ATOM     17  H   UNL     1      -5.731  12.125  17.662  0.00  0.00    +0.000 HD
BRANCH  16  18
ATOM     18  C   UNL     1      -5.240  12.716  19.576  0.00  0.00    +0.000 C 
BRANCH  18  19
ATOM     19  C   UNL     1      -6.275  12.284  20.619  0.00  0.00    +0.000 C 
BRANCH  19  21
ATOM     20  C   UNL     1      -4.604  13.123  22.063  0.00  0.00    +0.000 C 
ATOM     21  O   UNL     1      -5.601  12.130  21.876  0.00  0.00    +0.000 OA
ENDBRANCH  19  21
ENDBRANCH  18  19
ENDBRANCH  16  18
ENDBRANCH  10  16
ENDBRANCH   1  13
BRANCH   4  22
ATOM     22  C   UNL     1       3.690   6.752  17.585  0.00  0.00    +0.000 A 
ATOM     23  C   UNL     1       4.397   7.337  16.533  0.00  0.00    +0.000 A 
ATOM     24  C   UNL     1       5.220   6.548  15.739  0.00  0.00    +0.000 A 
ATOM     25  C   UNL     1       5.358   5.200  16.036  0.00  0.00    +0.000 A 
ATOM     26  C   UNL     1       4.658   4.669  17.109  0.00  0.00    +0.000 A 
ATOM     27  N   UNL     1       3.821   5.428  17.845  0.00  0.00    +0.000 NA
BRANCH  26  28
ATOM     28  N   UNL     1       4.843   3.384  17.566  0.00  0.00    +0.000 N 
ATOM     29  H   UNL     1       5.781   3.075  17.310  0.00  0.00    +0.000 HD
BRANCH  28  30
ATOM     30  C   UNL     1       4.397   2.937  18.880  0.00  0.00    +0.000 C 
BRANCH  30  31
ATOM     31  C   UNL     1       3.291   1.863  18.738  0.00  0.00    +0.000 C 
ATOM     32  F   UNL     1       3.886   0.711  18.293  0.00  0.00    +0.000 F 
ATOM     33  C   UNL     1       2.633   1.545  20.083  0.00  0.00    +0.000 C 
ATOM     34  C   UNL     1       1.747   2.692  20.543  0.00  0.00    +0.000 C 
ATOM     35  O   UNL     1       0.772   3.008  19.551  0.00  0.00    +0.000 OA
ATOM     36  C   UNL     1       1.336   3.374  18.291  0.00  0.00    +0.000 C 
ATOM     37  C   UNL     1       2.198   2.250  17.738  0.00  0.00    +0.000 C 
ENDBRANCH  30  31
ENDBRANCH  28  30
ENDBRANCH  26  28
ENDBRANCH   4  22
TORSDOF 9
ENDMDL
MODEL 2
REMARK VINA RESULT:      -7.2      3.046      4.918
REMARK  Name = 
REMARK  10 active torsions:
REMARK  status: ('A' for Active; 'I' for Inactive)
REMARK    1  A    between atoms: C_1  and  O_2
REMARK    2  A    between atoms: O_2  and  C_3
REMARK    3  A    between atoms: C_3  and  C_4
REMARK    4  A    between atoms: C_4  and  N_5
REMARK    5  A    between atoms: N_5  and  C_6
REMARK    6  A    between atoms: C_9  and  N_10
REMARK    7  A    between atoms: C_13  and  C_14
REMARK    8  A    between atoms: C_18  and  N_19
REMARK    9  A    between atoms: N_19  and  C_20
REMARK   10  A    between atoms: C_20  and  C_21
REMARK                            x       y       z     vdW  Elec       q    Type
REMARK                         _______ _______ _______ _____ _____    ______ ____
ROOT
ATOM      1  N   UNL     1      -2.973  11.880  20.270  0.00  0.00    +0.000 N 
ATOM      2  C   UNL     1      -1.662  12.107  19.844  0.00  0.00    +0.000 A 
ATOM      3  C   UNL     1      -0.904  10.998  19.475  0.00  0.00    +0.000 A 
ATOM      4  C   UNL     1       0.468  11.104  19.145  0.00  0.00    +0.000 A 
ATOM      5  C   UNL     1       0.993  12.405  19.122  0.00  0.00    +0.000 A 
ATOM      6 CL   UNL     1       2.604  12.818  18.651  0.00  0.00    +0.000 Cl
ATOM      7  C   UNL     1       0.158  13.463  19.473  0.00  0.00    +0.000 A 
ATOM      8  N   UNL     1      -1.136  13.339  19.850  0.00  0.00    +0.000 NA
ATOM      9  H   UNL     1      -3.560  11.525  19.523  0.00  0.00    +0.000 HD
ENDROOT
BRANCH   1  13
ATOM     10  C   UNL     1      -5.229  13.750  23.478  0.00  0.00    +0.000 C 
ATOM     11  C   UNL     1      -5.609  14.031  22.012  0.00  0.00    +0.000 C 
ATOM     12  C   UNL     1      -5.083  12.954  21.060  0.00  0.00    +0.000 C 
ATOM     13  C   UNL     1      -3.563  12.867  21.170  0.00  0.00    +0.000 C 
ATOM     14  C   UNL     1      -3.185  12.495  22.612  0.00  0.00    +0.000 C 
ATOM     15  C   UNL     1      -3.709  13.533  23.609  0.00  0.00    +0.000 C 
BRANCH  10  16
ATOM     16  N   UNL     1      -5.640  14.839  24.381  0.00  0.00    +0.000 NA
ATOM     17  H   UNL     1      -6.598  14.661  24.698  0.00  0.00    +0.000 HD
BRANCH  16  18
ATOM     18  C   UNL     1      -5.553  16.159  23.740  0.00  0.00    +0.000 C 
BRANCH  18  19
ATOM     19  C   UNL     1      -4.925  17.244  24.620  0.00  0.00    +0.000 C 
BRANCH  19  21
ATOM     20  C   UNL     1      -2.594  16.974  24.894  0.00  0.00    +0.000 C 
ATOM     21  O   UNL     1      -3.880  16.639  25.394  0.00  0.00    +0.000 OA
ENDBRANCH  19  21
ENDBRANCH  18  19
ENDBRANCH  16  18
ENDBRANCH  10  16
ENDBRANCH   1  13
BRANCH   4  22
ATOM     22  C   UNL     1       1.260   9.868  18.916  0.00  0.00    +0.000 A 
ATOM     23  C   UNL     1       2.028   9.664  17.769  0.00  0.00    +0.000 A 
ATOM     24  C   UNL     1       2.672   8.448  17.583  0.00  0.00    +0.000 A 
ATOM     25  C   UNL     1       2.574   7.472  18.565  0.00  0.00    +0.000 A 
ATOM     26  C   UNL     1       1.823   7.729  19.702  0.00  0.00    +0.000 A 
ATOM     27  N   UNL     1       1.159   8.893  19.854  0.00  0.00    +0.000 NA
BRANCH  26  28
ATOM     28  N   UNL     1       1.788   6.886  20.788  0.00  0.00    +0.000 N 
ATOM     29  H   UNL     1       0.837   6.864  21.157  0.00  0.00    +0.000 HD
BRANCH  28  30
ATOM     30  C   UNL     1       2.478   5.603  20.820  0.00  0.00    +0.000 C 
BRANCH  30  31
ATOM     31  C   UNL     1       1.502   4.455  20.463  0.00  0.00    +0.000 C 
ATOM     32  F   UNL     1       0.227   4.926  20.637  0.00  0.00    +0.000 F 
ATOM     33  C   UNL     1       1.635   4.033  18.997  0.00  0.00    +0.000 C 
ATOM     34  C   UNL     1       2.934   3.278  18.762  0.00  0.00    +0.000 C 
ATOM     35  O   UNL     1       3.034   2.155  19.636  0.00  0.00    +0.000 OA
ATOM     36  C   UNL     1       2.979   2.502  21.020  0.00  0.00    +0.000 C 
ATOM     37  C   UNL     1       1.677   3.217  21.347  0.00  0.00    +0.000 C 
ENDBRANCH  30  31
ENDBRANCH  28  30
ENDBRANCH  26  28
ENDBRANCH   4  22
TORSDOF 9
ENDMDL
MODEL 3
REMARK VINA RESULT:      -7.2      3.521      9.804
REMARK  Name = 
REMARK  10 active torsions:
REMARK  status: ('A' for Active; 'I' for Inactive)
REMARK    1  A    between atoms: C_1  and  O_2
REMARK    2  A    between atoms: O_2  and  C_3
REMARK    3  A    between atoms: C_3  and  C_4
REMARK    4  A    between atoms: C_4  and  N_5
REMARK    5  A    between atoms: N_5  and  C_6
REMARK    6  A    between atoms: C_9  and  N_10
REMARK    7  A    between atoms: C_13  and  C_14
REMARK    8  A    between atoms: C_18  and  N_19
REMARK    9  A    between atoms: N_19  and  C_20
REMARK   10  A    between atoms: C_20  and  C_21
REMARK                            x       y       z     vdW  Elec       q    Type
REMARK                         _______ _______ _______ _____ _____    ______ ____
ROOT
ATOM      1  N   UNL     1       1.754   6.402  21.459  0.00  0.00    +0.000 N 
ATOM      2  C   UNL     1       1.628   7.594  20.742  0.00  0.00    +0.000 A 
ATOM      3  C   UNL     1       0.810   8.586  21.277  0.00  0.00    +0.000 A 
ATOM      4  C   UNL     1       0.519   9.779  20.576  0.00  0.00    +0.000 A 
ATOM      5  C   UNL     1       1.180   9.943  19.349  0.00  0.00    +0.000 A 
ATOM      6 CL   UNL     1       1.083  11.350  18.349  0.00  0.00    +0.000 Cl
ATOM      7  C   UNL     1       2.009   8.918  18.900  0.00  0.00    +0.000 A 
ATOM      8  N   UNL     1       2.225   7.753  19.554  0.00  0.00    +0.000 NA
ATOM      9  H   UNL     1       2.226   6.540  22.346  0.00  0.00    +0.000 HD
ENDROOT
BRANCH   1  13
ATOM     10  C   UNL     1       1.678   2.399  19.773  0.00  0.00    +0.000 C 
ATOM     11  C   UNL     1       2.826   2.811  20.714  0.00  0.00    +0.000 C 
ATOM     12  C   UNL     1       2.458   4.012  21.588  0.00  0.00    +0.000 C 
ATOM     13  C   UNL     1       2.091   5.200  20.703  0.00  0.00    +0.000 C 
ATOM     14  C   UNL     1       0.886   4.823  19.830  0.00  0.00    +0.000 C 
ATOM     15  C   UNL     1       1.196   3.609  18.948  0.00  0.00    +0.000 C 
BRANCH  10  16
ATOM     16  N   UNL     1       2.067   1.314  18.855  0.00  0.00    +0.000 NA
ATOM     17  H   UNL     1       1.873   0.415  19.307  0.00  0.00    +0.000 HD
BRANCH  16  18
ATOM     18  C   UNL     1       3.482   1.394  18.466  0.00  0.00    +0.000 C 
BRANCH  18  19
ATOM     19  C   UNL     1       3.755   2.326  17.282  0.00  0.00    +0.000 C 
BRANCH  19  21
ATOM     20  C   UNL     1       4.743   4.403  16.742  0.00  0.00    +0.000 C 
ATOM     21  O   UNL     1       4.523   3.439  17.761  0.00  0.00    +0.000 OA
ENDBRANCH  19  21
ENDBRANCH  18  19
ENDBRANCH  16  18
ENDBRANCH  10  16
ENDBRANCH   1  13
BRANCH   4  22
ATOM     22  C   UNL     1      -0.486  10.724  21.128  0.00  0.00    +0.000 A 
ATOM     23  C   UNL     1      -0.524  11.083  22.476  0.00  0.00    +0.000 A 
ATOM     24  C   UNL     1      -1.546  11.903  22.938  0.00  0.00    +0.000 A 
ATOM     25  C   UNL     1      -2.487  12.385  22.039  0.00  0.00    +0.000 A 
ATOM     26  C   UNL     1      -2.392  12.025  20.703  0.00  0.00    +0.000 A 
ATOM     27  N   UNL     1      -1.428  11.188  20.269  0.00  0.00    +0.000 NA
BRANCH  26  28
ATOM     28  N   UNL     1      -3.186  12.568  19.719  0.00  0.00    +0.000 N 
ATOM     29  H   UNL     1      -3.345  13.553  19.930  0.00  0.00    +0.000 HD
BRANCH  28  30
ATOM     30  C   UNL     1      -3.009  12.273  18.303  0.00  0.00    +0.000 C 
BRANCH  30  31
ATOM     31  C   UNL     1      -3.909  11.085  17.881  0.00  0.00    +0.000 C 
ATOM     32  F   UNL     1      -4.953  11.022  18.767  0.00  0.00    +0.000 F 
ATOM     33  C   UNL     1      -4.506  11.293  16.487  0.00  0.00    +0.000 C 
ATOM     34  C   UNL     1      -3.444  11.139  15.410  0.00  0.00    +0.000 C 
ATOM     35  O   UNL     1      -2.797   9.872  15.513  0.00  0.00    +0.000 OA
ATOM     36  C   UNL     1      -2.168   9.652  16.776  0.00  0.00    +0.000 C 
ATOM     37  C   UNL     1      -3.182   9.738  17.908  0.00  0.00    +0.000 C 
ENDBRANCH  30  31
ENDBRANCH  28  30
ENDBRANCH  26  28
ENDBRANCH   4  22
TORSDOF 9
ENDMDL
MODEL 4
REMARK VINA RESULT:      -7.1      4.787     10.769
REMARK  Name = 
REMARK  10 active torsions:
REMARK  status: ('A' for Active; 'I' for Inactive)
REMARK    1  A    between atoms: C_1  and  O_2
REMARK    2  A    between atoms: O_2  and  C_3
REMARK    3  A    between atoms: C_3  and  C_4
REMARK    4  A    between atoms: C_4  and  N_5
REMARK    5  A    between atoms: N_5  and  C_6
REMARK    6  A    between atoms: C_9  and  N_10
REMARK    7  A    between atoms: C_13  and  C_14
REMARK    8  A    between atoms: C_18  and  N_19
REMARK    9  A    between atoms: N_19  and  C_20
REMARK   10  A    between atoms: C_20  and  C_21
REMARK                            x       y       z     vdW  Elec       q    Type
REMARK                         _______ _______ _______ _____ _____    ______ ____
ROOT
ATOM      1  N   UNL     1       2.079   7.944  18.162  0.00  0.00    +0.000 N 
ATOM      2  C   UNL     1       1.561   8.305  19.408  0.00  0.00    +0.000 A 
ATOM      3  C   UNL     1       0.976   9.564  19.523  0.00  0.00    +0.000 A 
ATOM      4  C   UNL     1       0.531  10.074  20.765  0.00  0.00    +0.000 A 
ATOM      5  C   UNL     1       0.628   9.197  21.856  0.00  0.00    +0.000 A 
ATOM      6 CL   UNL     1       0.060   9.533  23.453  0.00  0.00    +0.000 Cl
ATOM      7  C   UNL     1       1.195   7.942  21.649  0.00  0.00    +0.000 A 
ATOM      8  N   UNL     1       1.677   7.493  20.466  0.00  0.00    +0.000 NA
ATOM      9  H   UNL     1       1.353   7.849  17.460  0.00  0.00    +0.000 HD
ENDROOT
BRANCH   1  13
ATOM     10  C   UNL     1       5.009   5.016  16.851  0.00  0.00    +0.000 C 
ATOM     11  C   UNL     1       3.868   4.587  17.792  0.00  0.00    +0.000 C 
ATOM     12  C   UNL     1       2.686   5.559  17.751  0.00  0.00    +0.000 C 
ATOM     13  C   UNL     1       3.154   6.957  18.146  0.00  0.00    +0.000 C 
ATOM     14  C   UNL     1       4.228   7.425  17.152  0.00  0.00    +0.000 C 
ATOM     15  C   UNL     1       5.427   6.472  17.139  0.00  0.00    +0.000 C 
BRANCH  10  16
ATOM     16  N   UNL     1       6.191   4.144  16.970  0.00  0.00    +0.000 NA
ATOM     17  H   UNL     1       6.868   4.590  17.597  0.00  0.00    +0.000 HD
BRANCH  16  18
ATOM     18  C   UNL     1       6.812   3.866  15.667  0.00  0.00    +0.000 C 
BRANCH  18  19
ATOM     19  C   UNL     1       5.876   4.066  14.470  0.00  0.00    +0.000 C 
BRANCH  19  21
ATOM     20  C   UNL     1       6.341   3.407  12.250  0.00  0.00    +0.000 C 
ATOM     21  O   UNL     1       6.684   4.291  13.307  0.00  0.00    +0.000 OA
ENDBRANCH  19  21
ENDBRANCH  18  19
ENDBRANCH  16  18
ENDBRANCH  10  16
ENDBRANCH   1  13
BRANCH   4  22
ATOM     22  C   UNL     1       0.065  11.482  20.850  0.00  0.00    +0.000 A 
ATOM     23  C   UNL     1      -1.276  11.825  21.025  0.00  0.00    +0.000 A 
ATOM     24  C   UNL     1      -1.649  13.163  21.008  0.00  0.00    +0.000 A 
ATOM     25  C   UNL     1      -0.672  14.137  20.860  0.00  0.00    +0.000 A 
ATOM     26  C   UNL     1       0.652  13.750  20.718  0.00  0.00    +0.000 A 
ATOM     27  N   UNL     1       1.003  12.448  20.685  0.00  0.00    +0.000 NA
BRANCH  26  28
ATOM     28  N   UNL     1       1.701  14.642  20.714  0.00  0.00    +0.000 N 
ATOM     29  H   UNL     1       1.699  15.156  21.595  0.00  0.00    +0.000 HD
BRANCH  28  30
ATOM     30  C   UNL     1       3.027  14.305  20.212  0.00  0.00    +0.000 C 
BRANCH  30  31
ATOM     31  C   UNL     1       3.121  14.600  18.694  0.00  0.00    +0.000 C 
ATOM     32  F   UNL     1       2.497  13.573  18.034  0.00  0.00    +0.000 F 
ATOM     33  C   UNL     1       2.390  15.892  18.320  0.00  0.00    +0.000 C 
ATOM     34  C   UNL     1       3.152  17.112  18.813  0.00  0.00    +0.000 C 
ATOM     35  O   UNL     1       4.489  17.110  18.316  0.00  0.00    +0.000 OA
ATOM     36  C   UNL     1       5.235  15.952  18.690  0.00  0.00    +0.000 C 
ATOM     37  C   UNL     1       4.562  14.686  18.184  0.00  0.00    +0.000 C 
ENDBRANCH  30  31
ENDBRANCH  28  30
ENDBRANCH  26  28
ENDBRANCH   4  22
TORSDOF 9
ENDMDL
MODEL 5
REMARK VINA RESULT:      -7.1      1.210      1.425
REMARK  Name = 
REMARK  10 active torsions:
REMARK  status: ('A' for Active; 'I' for Inactive)
REMARK    1  A    between atoms: C_1  and  O_2
REMARK    2  A    between atoms: O_2  and  C_3
REMARK    3  A    between atoms: C_3  and  C_4
REMARK    4  A    between atoms: C_4  and  N_5
REMARK    5  A    between atoms: N_5  and  C_6
REMARK    6  A    between atoms: C_9  and  N_10
REMARK    7  A    between atoms: C_13  and  C_14
REMARK    8  A    between atoms: C_18  and  N_19
REMARK    9  A    between atoms: N_19  and  C_20
REMARK   10  A    between atoms: C_20  and  C_21
REMARK                            x       y       z     vdW  Elec       q    Type
REMARK                         _______ _______ _______ _____ _____    ______ ____
ROOT
ATOM      1  N   UNL     1       0.093  10.330  17.950  0.00  0.00    +0.000 N 
ATOM      2  C   UNL     1       0.819   9.354  18.637  0.00  0.00    +0.000 A 
ATOM      3  C   UNL     1       1.826   8.689  17.941  0.00  0.00    +0.000 A 
ATOM      4  C   UNL     1       2.537   7.604  18.504  0.00  0.00    +0.000 A 
ATOM      5  C   UNL     1       2.231   7.300  19.840  0.00  0.00    +0.000 A 
ATOM      6 CL   UNL     1       3.027   6.096  20.791  0.00  0.00    +0.000 Cl
ATOM      7  C   UNL     1       1.235   8.035  20.475  0.00  0.00    +0.000 A 
ATOM      8  N   UNL     1       0.517   9.029  19.901  0.00  0.00    +0.000 NA
ATOM      9  H   UNL     1       0.669  11.126  17.699  0.00  0.00    +0.000 HD
ENDROOT
BRANCH   1  13
ATOM     10  C   UNL     1      -3.983  11.807  18.225  0.00  0.00    +0.000 C 
ATOM     11  C   UNL     1      -2.931  12.271  19.250  0.00  0.00    +0.000 C 
ATOM     12  C   UNL     1      -1.501  12.079  18.740  0.00  0.00    +0.000 C 
ATOM     13  C   UNL     1      -1.262  10.607  18.417  0.00  0.00    +0.000 C 
ATOM     14  C   UNL     1      -2.249  10.166  17.326  0.00  0.00    +0.000 C 
ATOM     15  C   UNL     1      -3.700  10.359  17.780  0.00  0.00    +0.000 C 
BRANCH  10  16
ATOM     16  N   UNL     1      -5.355  11.888  18.755  0.00  0.00    +0.000 NA
ATOM     17  H   UNL     1      -5.459  11.202  19.508  0.00  0.00    +0.000 HD
BRANCH  16  18
ATOM     18  C   UNL     1      -6.369  11.659  17.715  0.00  0.00    +0.000 C 
BRANCH  18  19
ATOM     19  C   UNL     1      -7.104  12.925  17.265  0.00  0.00    +0.000 C 
BRANCH  19  21
ATOM     20  C   UNL     1      -6.929  15.220  17.793  0.00  0.00    +0.000 C 
ATOM     21  O   UNL     1      -6.992  13.900  18.310  0.00  0.00    +0.000 OA
ENDBRANCH  19  21
ENDBRANCH  18  19
ENDBRANCH  16  18
ENDBRANCH  10  16
ENDBRANCH   1  13
BRANCH   4  22
ATOM     22  C   UNL     1       3.485   6.834  17.656  0.00  0.00    +0.000 A 
ATOM     23  C   UNL     1       4.294   7.436  16.692  0.00  0.00    +0.000 A 
ATOM     24  C   UNL     1       5.092   6.643  15.877  0.00  0.00    +0.000 A 
ATOM     25  C   UNL     1       5.100   5.268  16.067  0.00  0.00    +0.000 A 
ATOM     26  C   UNL     1       4.301   4.718  17.057  0.00  0.00    +0.000 A 
ATOM     27  N   UNL     1       3.491   5.487  17.812  0.00  0.00    +0.000 NA
BRANCH  26  28
ATOM     28  N   UNL     1       4.353   3.390  17.416  0.00  0.00    +0.000 N 
ATOM     29  H   UNL     1       5.048   2.920  16.835  0.00  0.00    +0.000 HD
BRANCH  28  30
ATOM     30  C   UNL     1       4.316   2.940  18.801  0.00  0.00    +0.000 C 
BRANCH  30  31
ATOM     31  C   UNL     1       3.195   1.890  18.998  0.00  0.00    +0.000 C 
ATOM     32  F   UNL     1       3.628   0.713  18.446  0.00  0.00    +0.000 F 
ATOM     33  C   UNL     1       2.922   1.623  20.481  0.00  0.00    +0.000 C 
ATOM     34  C   UNL     1       2.213   2.804  21.126  0.00  0.00    +0.000 C 
ATOM     35  O   UNL     1       1.011   3.119  20.425  0.00  0.00    +0.000 OA
ATOM     36  C   UNL     1       1.218   3.437  19.049  0.00  0.00    +0.000 C 
ATOM     37  C   UNL     1       1.879   2.277  18.319  0.00  0.00    +0.000 C 
ENDBRANCH  30  31
ENDBRANCH  28  30
ENDBRANCH  26  28
ENDBRANCH   4  22
TORSDOF 9
ENDMDL
MODEL 6
REMARK VINA RESULT:      -7.1      3.630     10.861
REMARK  Name = 
REMARK  10 active torsions:
REMARK  status: ('A' for Active; 'I' for Inactive)
REMARK    1  A    between atoms: C_1  and  O_2
REMARK    2  A    between atoms: O_2  and  C_3
REMARK    3  A    between atoms: C_3  and  C_4
REMARK    4  A    between atoms: C_4  and  N_5
REMARK    5  A    between atoms: N_5  and  C_6
REMARK    6  A    between atoms: C_9  and  N_10
REMARK    7  A    between atoms: C_13  and  C_14
REMARK    8  A    between atoms: C_18  and  N_19
REMARK    9  A    between atoms: N_19  and  C_20
REMARK   10  A    between atoms: C_20  and  C_21
REMARK                            x       y       z     vdW  Elec       q    Type
REMARK                         _______ _______ _______ _____ _____    ______ ____
ROOT
ATOM      1  N   UNL     1       2.021   8.102  18.066  0.00  0.00    +0.000 N 
ATOM      2  C   UNL     1       1.461   8.522  19.275  0.00  0.00    +0.000 A 
ATOM      3  C   UNL     1       0.851   9.774  19.302  0.00  0.00    +0.000 A 
ATOM      4  C   UNL     1       0.361  10.345  20.500  0.00  0.00    +0.000 A 
ATOM      5  C   UNL     1       0.443   9.532  21.641  0.00  0.00    +0.000 A 
ATOM      6 CL   UNL     1      -0.177   9.946  23.201  0.00  0.00    +0.000 Cl
ATOM      7  C   UNL     1       1.037   8.279  21.522  0.00  0.00    +0.000 A 
ATOM      8  N   UNL     1       1.561   7.774  20.380  0.00  0.00    +0.000 NA
ATOM      9  H   UNL     1       1.317   7.954  17.351  0.00  0.00    +0.000 HD
ENDROOT
BRANCH   1  13
ATOM     10  C   UNL     1       5.027   5.149  17.009  0.00  0.00    +0.000 C 
ATOM     11  C   UNL     1       3.876   4.763  17.956  0.00  0.00    +0.000 C 
ATOM     12  C   UNL     1       2.678   5.706  17.829  0.00  0.00    +0.000 C 
ATOM     13  C   UNL     1       3.114   7.136  18.136  0.00  0.00    +0.000 C 
ATOM     14  C   UNL     1       4.197   7.557  17.131  0.00  0.00    +0.000 C 
ATOM     15  C   UNL     1       5.413   6.629  17.204  0.00  0.00    +0.000 C 
BRANCH  10  16
ATOM     16  N   UNL     1       6.222   4.310  17.206  0.00  0.00    +0.000 NA
ATOM     17  H   UNL     1       6.749   4.671  18.007  0.00  0.00    +0.000 HD
BRANCH  16  18
ATOM     18  C   UNL     1       7.077   4.267  16.012  0.00  0.00    +0.000 C 
BRANCH  18  19
ATOM     19  C   UNL     1       6.365   4.665  14.715  0.00  0.00    +0.000 C 
BRANCH  19  21
ATOM     20  C   UNL     1       6.426   3.665  12.576  0.00  0.00    +0.000 C 
ATOM     21  O   UNL     1       6.132   3.473  13.952  0.00  0.00    +0.000 OA
ENDBRANCH  19  21
ENDBRANCH  18  19
ENDBRANCH  16  18
ENDBRANCH  10  16
ENDBRANCH   1  13
BRANCH   4  22
ATOM     22  C   UNL     1      -0.133  11.746  20.492  0.00  0.00    +0.000 A 
ATOM     23  C   UNL     1       0.705  12.842  20.701  0.00  0.00    +0.000 A 
ATOM     24  C   UNL     1       0.159  14.118  20.766  0.00  0.00    +0.000 A 
ATOM     25  C   UNL     1      -1.206  14.282  20.579  0.00  0.00    +0.000 A 
ATOM     26  C   UNL     1      -1.995  13.166  20.344  0.00  0.00    +0.000 A 
ATOM     27  N   UNL     1      -1.468  11.924  20.332  0.00  0.00    +0.000 NA
BRANCH  26  28
ATOM     28  N   UNL     1      -3.326  13.243  20.003  0.00  0.00    +0.000 N 
ATOM     29  H   UNL     1      -3.409  13.186  18.987  0.00  0.00    +0.000 HD
BRANCH  28  30
ATOM     30  C   UNL     1      -4.375  12.546  20.735  0.00  0.00    +0.000 C 
BRANCH  30  31
ATOM     31  C   UNL     1      -5.551  12.194  19.791  0.00  0.00    +0.000 C 
ATOM     32  F   UNL     1      -5.099  11.257  18.898  0.00  0.00    +0.000 F 
ATOM     33  C   UNL     1      -6.722  11.568  20.552  0.00  0.00    +0.000 C 
ATOM     34  C   UNL     1      -7.442  12.608  21.397  0.00  0.00    +0.000 C 
ATOM     35  O   UNL     1      -7.873  13.705  20.593  0.00  0.00    +0.000 OA
ATOM     36  C   UNL     1      -6.807  14.364  19.908  0.00  0.00    +0.000 C 
ATOM     37  C   UNL     1      -6.068  13.396  18.997  0.00  0.00    +0.000 C 
ENDBRANCH  30  31
ENDBRANCH  28  30
ENDBRANCH  26  28
ENDBRANCH   4  22
TORSDOF 9
ENDMDL
MODEL 7
REMARK VINA RESULT:      -7.1      5.775     10.397
REMARK  Name = 
REMARK  10 active torsions:
REMARK  status: ('A' for Active; 'I' for Inactive)
REMARK    1  A    between atoms: C_1  and  O_2
REMARK    2  A    between atoms: O_2  and  C_3
REMARK    3  A    between atoms: C_3  and  C_4
REMARK    4  A    between atoms: C_4  and  N_5
REMARK    5  A    between atoms: N_5  and  C_6
REMARK    6  A    between atoms: C_9  and  N_10
REMARK    7  A    between atoms: C_13  and  C_14
REMARK    8  A    between atoms: C_18  and  N_19
REMARK    9  A    between atoms: N_19  and  C_20
REMARK   10  A    between atoms: C_20  and  C_21
REMARK                            x       y       z     vdW  Elec       q    Type
REMARK                         _______ _______ _______ _____ _____    ______ ____
ROOT
ATOM      1  N   UNL     1       2.383   8.493  17.603  0.00  0.00    +0.000 N 
ATOM      2  C   UNL     1       1.791   9.336  18.547  0.00  0.00    +0.000 A 
ATOM      3  C   UNL     1       1.825  10.707  18.298  0.00  0.00    +0.000 A 
ATOM      4  C   UNL     1       1.363  11.653  19.242  0.00  0.00    +0.000 A 
ATOM      5  C   UNL     1       0.783  11.123  20.405  0.00  0.00    +0.000 A 
ATOM      6 CL   UNL     1       0.050  12.055  21.662  0.00  0.00    +0.000 Cl
ATOM      7  C   UNL     1       0.758   9.739  20.562  0.00  0.00    +0.000 A 
ATOM      8  N   UNL     1       1.264   8.848  19.677  0.00  0.00    +0.000 NA
ATOM      9  H   UNL     1       1.891   8.508  16.717  0.00  0.00    +0.000 HD
ENDROOT
BRANCH   1  13
ATOM     10  C   UNL     1       3.885   4.419  17.737  0.00  0.00    +0.000 C 
ATOM     11  C   UNL     1       2.493   4.739  18.311  0.00  0.00    +0.000 C 
ATOM     12  C   UNL     1       1.922   6.046  17.754  0.00  0.00    +0.000 C 
ATOM     13  C   UNL     1       2.867   7.199  18.075  0.00  0.00    +0.000 C 
ATOM     14  C   UNL     1       4.232   6.926  17.424  0.00  0.00    +0.000 C 
ATOM     15  C   UNL     1       4.838   5.615  17.933  0.00  0.00    +0.000 C 
BRANCH  10  16
ATOM     16  N   UNL     1       4.483   3.221  18.352  0.00  0.00    +0.000 NA
ATOM     17  H   UNL     1       4.665   2.530  17.618  0.00  0.00    +0.000 HD
BRANCH  16  18
ATOM     18  C   UNL     1       3.625   2.642  19.394  0.00  0.00    +0.000 C 
BRANCH  18  19
ATOM     19  C   UNL     1       4.385   2.134  20.623  0.00  0.00    +0.000 C 
BRANCH  19  21
ATOM     20  C   UNL     1       2.273   2.805  21.440  0.00  0.00    +0.000 C 
ATOM     21  O   UNL     1       3.474   2.108  21.731  0.00  0.00    +0.000 OA
ENDBRANCH  19  21
ENDBRANCH  18  19
ENDBRANCH  16  18
ENDBRANCH  10  16
ENDBRANCH   1  13
BRANCH   4  22
ATOM     22  C   UNL     1       1.574  13.101  18.986  0.00  0.00    +0.000 A 
ATOM     23  C   UNL     1       0.653  14.078  19.369  0.00  0.00    +0.000 A 
ATOM     24  C   UNL     1       0.876  15.403  19.019  0.00  0.00    +0.000 A 
ATOM     25  C   UNL     1       2.034  15.738  18.331  0.00  0.00    +0.000 A 
ATOM     26  C   UNL     1       2.935  14.738  17.998  0.00  0.00    +0.000 A 
ATOM     27  N   UNL     1       2.689  13.445  18.296  0.00  0.00    +0.000 NA
BRANCH  26  28
ATOM     28  N   UNL     1       4.171  14.990  17.450  0.00  0.00    +0.000 N 
ATOM     29  H   UNL     1       4.165  15.925  17.041  0.00  0.00    +0.000 HD
BRANCH  28  30
ATOM     30  C   UNL     1       5.420  14.625  18.105  0.00  0.00    +0.000 C 
BRANCH  30  31
ATOM     31  C   UNL     1       6.077  15.871  18.749  0.00  0.00    +0.000 C 
ATOM     32  F   UNL     1       5.313  16.959  18.419  0.00  0.00    +0.000 F 
ATOM     33  C   UNL     1       6.098  15.776  20.277  0.00  0.00    +0.000 C 
ATOM     34  C   UNL     1       7.111  14.744  20.746  0.00  0.00    +0.000 C 
ATOM     35  O   UNL     1       8.408  15.034  20.227  0.00  0.00    +0.000 OA
ATOM     36  C   UNL     1       8.457  15.072  18.801  0.00  0.00    +0.000 C 
ATOM     37  C   UNL     1       7.504  16.124  18.254  0.00  0.00    +0.000 C 
ENDBRANCH  30  31
ENDBRANCH  28  30
ENDBRANCH  26  28
ENDBRANCH   4  22
TORSDOF 9
ENDMDL
MODEL 8
REMARK VINA RESULT:      -7.1      2.435      3.927
REMARK  Name = 
REMARK  10 active torsions:
REMARK  status: ('A' for Active; 'I' for Inactive)
REMARK    1  A    between atoms: C_1  and  O_2
REMARK    2  A    between atoms: O_2  and  C_3
REMARK    3  A    between atoms: C_3  and  C_4
REMARK    4  A    between atoms: C_4  and  N_5
REMARK    5  A    between atoms: N_5  and  C_6
REMARK    6  A    between atoms: C_9  and  N_10
REMARK    7  A    between atoms: C_13  and  C_14
REMARK    8  A    between atoms: C_18  and  N_19
REMARK    9  A    between atoms: N_19  and  C_20
REMARK   10  A    between atoms: C_20  and  C_21
REMARK                            x       y       z     vdW  Elec       q    Type
REMARK                         _______ _______ _______ _____ _____    ______ ____
ROOT
ATOM      1  N   UNL     1       1.642   9.344  18.640  0.00  0.00    +0.000 N 
ATOM      2  C   UNL     1       1.786   8.165  19.375  0.00  0.00    +0.000 A 
ATOM      3  C   UNL     1       2.209   7.027  18.691  0.00  0.00    +0.000 A 
ATOM      4  C   UNL     1       2.270   5.757  19.312  0.00  0.00    +0.000 A 
ATOM      5  C   UNL     1       1.968   5.732  20.682  0.00  0.00    +0.000 A 
ATOM      6 CL   UNL     1       2.070   4.336  21.695  0.00  0.00    +0.000 Cl
ATOM      7  C   UNL     1       1.586   6.920  21.299  0.00  0.00    +0.000 A 
ATOM      8  N   UNL     1       1.469   8.116  20.675  0.00  0.00    +0.000 NA
ATOM      9  H   UNL     1       2.532   9.687  18.292  0.00  0.00    +0.000 HD
ENDROOT
BRANCH   1  13
ATOM     10  C   UNL     1      -1.233  12.591  18.892  0.00  0.00    +0.000 C 
ATOM     11  C   UNL     1       0.146  12.738  19.560  0.00  0.00    +0.000 C 
ATOM     12  C   UNL     1       1.180  11.773  18.975  0.00  0.00    +0.000 C 
ATOM     13  C   UNL     1       0.698  10.336  19.147  0.00  0.00    +0.000 C 
ATOM     14  C   UNL     1      -0.634  10.161  18.402  0.00  0.00    +0.000 C 
ATOM     15  C   UNL     1      -1.700  11.122  18.936  0.00  0.00    +0.000 C 
BRANCH  10  16
ATOM     16  N   UNL     1      -2.257  13.440  19.525  0.00  0.00    +0.000 NA
ATOM     17  H   UNL     1      -2.052  14.420  19.308  0.00  0.00    +0.000 HD
BRANCH  16  18
ATOM     18  C   UNL     1      -2.320  13.245  20.981  0.00  0.00    +0.000 C 
BRANCH  18  19
ATOM     19  C   UNL     1      -3.734  13.008  21.521  0.00  0.00    +0.000 C 
BRANCH  19  21
ATOM     20  C   UNL     1      -4.218  12.851  23.828  0.00  0.00    +0.000 C 
ATOM     21  O   UNL     1      -3.628  12.209  22.708  0.00  0.00    +0.000 OA
ENDBRANCH  19  21
ENDBRANCH  18  19
ENDBRANCH  16  18
ENDBRANCH  10  16
ENDBRANCH   1  13
BRANCH   4  22
ATOM     22  C   UNL     1       2.574   4.558  18.489  0.00  0.00    +0.000 A 
ATOM     23  C   UNL     1       1.756   3.427  18.472  0.00  0.00    +0.000 A 
ATOM     24  C   UNL     1       2.149   2.309  17.747  0.00  0.00    +0.000 A 
ATOM     25  C   UNL     1       3.328   2.354  17.018  0.00  0.00    +0.000 A 
ATOM     26  C   UNL     1       4.094   3.510  17.041  0.00  0.00    +0.000 A 
ATOM     27  N   UNL     1       3.734   4.574  17.787  0.00  0.00    +0.000 NA
BRANCH  26  28
ATOM     28  N   UNL     1       5.195   3.700  16.239  0.00  0.00    +0.000 N 
ATOM     29  H   UNL     1       5.196   2.989  15.506  0.00  0.00    +0.000 HD
BRANCH  28  30
ATOM     30  C   UNL     1       5.643   5.016  15.803  0.00  0.00    +0.000 C 
BRANCH  30  31
ATOM     31  C   UNL     1       7.156   5.192  16.084  0.00  0.00    +0.000 C 
ATOM     32  F   UNL     1       7.839   4.665  15.019  0.00  0.00    +0.000 F 
ATOM     33  C   UNL     1       7.546   6.669  16.188  0.00  0.00    +0.000 C 
ATOM     34  C   UNL     1       7.026   7.281  17.479  0.00  0.00    +0.000 C 
ATOM     35  O   UNL     1       7.483   6.543  18.611  0.00  0.00    +0.000 OA
ATOM     36  C   UNL     1       7.092   5.170  18.593  0.00  0.00    +0.000 C 
ATOM     37  C   UNL     1       7.623   4.471  17.351  0.00  0.00    +0.000 C 
ENDBRANCH  30  31
ENDBRANCH  28  30
ENDBRANCH  26  28
ENDBRANCH   4  22
TORSDOF 9
ENDMDL
MODEL 9
REMARK VINA RESULT:      -7.0      4.100     11.133
REMARK  Name = 
REMARK  10 active torsions:
REMARK  status: ('A' for Active; 'I' for Inactive)
REMARK    1  A    between atoms: C_1  and  O_2
REMARK    2  A    between atoms: O_2  and  C_3
REMARK    3  A    between atoms: C_3  and  C_4
REMARK    4  A    between atoms: C_4  and  N_5
REMARK    5  A    between atoms: N_5  and  C_6
REMARK    6  A    between atoms: C_9  and  N_10
REMARK    7  A    between atoms: C_13  and  C_14
REMARK    8  A    between atoms: C_18  and  N_19
REMARK    9  A    between atoms: N_19  and  C_20
REMARK   10  A    between atoms: C_20  and  C_21
REMARK                            x       y       z     vdW  Elec       q    Type
REMARK                         _______ _______ _______ _____ _____    ______ ____
ROOT
ATOM      1  N   UNL     1       1.849   8.248  18.203  0.00  0.00    +0.000 N 
ATOM      2  C   UNL     1       1.272   8.716  19.386  0.00  0.00    +0.000 A 
ATOM      3  C   UNL     1       0.644   9.960  19.349  0.00  0.00    +0.000 A 
ATOM      4  C   UNL     1       0.135  10.579  20.514  0.00  0.00    +0.000 A 
ATOM      5  C   UNL     1       0.217   9.822  21.694  0.00  0.00    +0.000 A 
ATOM      6 CL   UNL     1      -0.424  10.300  23.226  0.00  0.00    +0.000 Cl
ATOM      7  C   UNL     1       0.829   8.573  21.638  0.00  0.00    +0.000 A 
ATOM      8  N   UNL     1       1.371   8.022  20.527  0.00  0.00    +0.000 NA
ATOM      9  H   UNL     1       1.154   8.057  17.490  0.00  0.00    +0.000 HD
ENDROOT
BRANCH   1  13
ATOM     10  C   UNL     1       4.786   5.160  17.363  0.00  0.00    +0.000 C 
ATOM     11  C   UNL     1       3.724   4.927  18.453  0.00  0.00    +0.000 C 
ATOM     12  C   UNL     1       2.509   5.843  18.284  0.00  0.00    +0.000 C 
ATOM     13  C   UNL     1       2.954   7.302  18.328  0.00  0.00    +0.000 C 
ATOM     14  C   UNL     1       3.944   7.560  17.183  0.00  0.00    +0.000 C 
ATOM     15  C   UNL     1       5.172   6.651  17.295  0.00  0.00    +0.000 C 
BRANCH  10  16
ATOM     16  N   UNL     1       6.002   4.358  17.586  0.00  0.00    +0.000 NA
ATOM     17  H   UNL     1       6.529   4.767  18.364  0.00  0.00    +0.000 HD
BRANCH  16  18
ATOM     18  C   UNL     1       6.847   4.281  16.386  0.00  0.00    +0.000 C 
BRANCH  18  19
ATOM     19  C   UNL     1       6.143   3.695  15.158  0.00  0.00    +0.000 C 
BRANCH  19  21
ATOM     20  C   UNL     1       6.258   3.707  12.799  0.00  0.00    +0.000 C 
ATOM     21  O   UNL     1       6.642   4.369  13.995  0.00  0.00    +0.000 OA
ENDBRANCH  19  21
ENDBRANCH  18  19
ENDBRANCH  16  18
ENDBRANCH  10  16
ENDBRANCH   1  13
BRANCH   4  22
ATOM     22  C   UNL     1      -0.377  11.972  20.436  0.00  0.00    +0.000 A 
ATOM     23  C   UNL     1       0.464  13.081  20.350  0.00  0.00    +0.000 A 
ATOM     24  C   UNL     1      -0.083  14.358  20.368  0.00  0.00    +0.000 A 
ATOM     25  C   UNL     1      -1.462  14.504  20.428  0.00  0.00    +0.000 A 
ATOM     26  C   UNL     1      -2.260  13.371  20.483  0.00  0.00    +0.000 A 
ATOM     27  N   UNL     1      -1.721  12.135  20.516  0.00  0.00    +0.000 NA
BRANCH  26  28
ATOM     28  N   UNL     1      -3.632  13.412  20.396  0.00  0.00    +0.000 N 
ATOM     29  H   UNL     1      -3.910  13.160  19.448  0.00  0.00    +0.000 HD
BRANCH  28  30
ATOM     30  C   UNL     1      -4.509  12.898  21.441  0.00  0.00    +0.000 C 
BRANCH  30  31
ATOM     31  C   UNL     1      -5.803  13.745  21.525  0.00  0.00    +0.000 C 
ATOM     32  F   UNL     1      -5.517  14.990  21.028  0.00  0.00    +0.000 F 
ATOM     33  C   UNL     1      -6.923  13.158  20.661  0.00  0.00    +0.000 C 
ATOM     34  C   UNL     1      -7.473  11.880  21.276  0.00  0.00    +0.000 C 
ATOM     35  O   UNL     1      -7.916  12.110  22.612  0.00  0.00    +0.000 OA
ATOM     36  C   UNL     1      -6.891  12.601  23.477  0.00  0.00    +0.000 C 
ATOM     37  C   UNL     1      -6.324  13.912  22.955  0.00  0.00    +0.000 C 
ENDBRANCH  30  31
ENDBRANCH  28  30
ENDBRANCH  26  28
ENDBRANCH   4  22
TORSDOF 9
ENDMDL
