MODEL 1
REMARK VINA RESULT:      -7.1      0.000      0.000
REMARK  Name = 
REMARK  2 active torsions:
REMARK  status: ('A' for Active; 'I' for Inactive)
REMARK    1  A    between atoms: C_2  and  C_3
REMARK    2  A    between atoms: N_9  and  C_10
REMARK                            x       y       z     vdW  Elec       q    Type
REMARK                         _______ _______ _______ _____ _____    ______ ____
ROOT
ATOM      1  C   UNL     1       6.318   5.330  17.585  0.00  0.00    +0.000 C 
ATOM      2  C   UNL     1       5.804   3.872  17.696  0.00  0.00    +0.000 C 
ATOM      3  O   UNL     1       4.424   3.669  17.374  0.00  0.00    +0.000 OA
ATOM      4  C   UNL     1       3.770   4.756  16.723  0.00  0.00    +0.000 C 
ATOM      5  C   UNL     1       3.876   6.069  17.504  0.00  0.00    +0.000 C 
ATOM      6  C   UNL     1       2.793   6.258  18.576  0.00  0.00    +0.000 C 
ATOM      7  N   UNL     1       3.120   5.331  19.647  0.00  0.00    +0.000 NA
ATOM      8  C   UNL     1       4.593   5.358  19.713  0.00  0.00    +0.000 C 
ATOM      9  C   UNL     1       5.159   6.063  18.328  0.00  0.00    +0.000 C 
ENDROOT
BRANCH   1  11
ATOM     10  O   UNL     1       7.674   6.478  15.938  0.00  0.00    +0.000 OA
ATOM     11  C   UNL     1       7.038   5.418  16.093  0.00  0.00    +0.000 C 
ATOM     12  N   UNL     1       6.971   4.687  14.912  0.00  0.00    +0.000 N 
ATOM     13  C   UNL     1       6.078   3.604  14.545  0.00  0.00    +0.000 C 
ATOM     14  C   UNL     1       5.446   3.851  13.162  0.00  0.00    +0.000 C 
ATOM     15  C   UNL     1       6.496   3.978  12.062  0.00  0.00    +0.000 C 
ATOM     16  F   UNL     1       7.146   2.790  11.928  0.00  0.00    +0.000 F 
ATOM     17  C   UNL     1       7.504   5.058  12.394  0.00  0.00    +0.000 C 
ATOM     18  C   UNL     1       8.013   4.952  13.848  0.00  0.00    +0.000 C 
ENDBRANCH   1  11
BRANCH   7  19
ATOM     19  C   UNL     1       2.288   4.099  19.821  0.00  0.00    +0.000 C 
ATOM     20  C   UNL     1       1.174   3.855  18.764  0.00  0.00    +0.000 C 
ATOM     21  C   UNL     1       0.788   2.385  18.850  0.00  0.00    +0.000 C 
ATOM     22  C   UNL     1       2.096   1.699  19.180  0.00  0.00    +0.000 C 
ATOM     23  C   UNL     1       2.847   2.675  20.099  0.00  0.00    +0.000 C 
ENDBRANCH   7  19
TORSDOF 2
ENDMDL
MODEL 2
REMARK VINA RESULT:      -7.0      0.711      1.039
REMARK  Name = 
REMARK  2 active torsions:
REMARK  status: ('A' for Active; 'I' for Inactive)
REMARK    1  A    between atoms: C_2  and  C_3
REMARK    2  A    between atoms: N_9  and  C_10
REMARK                            x       y       z     vdW  Elec       q    Type
REMARK                         _______ _______ _______ _____ _____    ______ ____
ROOT
ATOM      1  C   UNL     1       6.416   5.561  17.378  0.00  0.00    +0.000 C 
ATOM      2  C   UNL     1       6.179   4.074  17.746  0.00  0.00    +0.000 C 
ATOM      3  O   UNL     1       4.854   3.578  17.522  0.00  0.00    +0.000 OA
ATOM      4  C   UNL     1       4.003   4.408  16.734  0.00  0.00    +0.000 C 
ATOM      5  C   UNL     1       3.879   5.830  17.287  0.00  0.00    +0.000 C 
ATOM      6  C   UNL     1       2.795   6.001  18.360  0.00  0.00    +0.000 C 
ATOM      7  N   UNL     1       3.301   5.338  19.552  0.00  0.00    +0.000 NA
ATOM      8  C   UNL     1       4.745   5.637  19.547  0.00  0.00    +0.000 C 
ATOM      9  C   UNL     1       5.153   6.190  18.043  0.00  0.00    +0.000 C 
ENDROOT
BRANCH   1  11
ATOM     10  O   UNL     1       7.744   6.552  15.611  0.00  0.00    +0.000 OA
ATOM     11  C   UNL     1       7.086   5.524  15.861  0.00  0.00    +0.000 C 
ATOM     12  N   UNL     1       6.960   4.716  14.736  0.00  0.00    +0.000 N 
ATOM     13  C   UNL     1       6.027   3.636  14.476  0.00  0.00    +0.000 C 
ATOM     14  C   UNL     1       5.354   3.804  13.100  0.00  0.00    +0.000 C 
ATOM     15  C   UNL     1       6.369   3.824  11.961  0.00  0.00    +0.000 C 
ATOM     16  F   UNL     1       6.983   2.612  11.889  0.00  0.00    +0.000 F 
ATOM     17  C   UNL     1       7.416   4.895  12.183  0.00  0.00    +0.000 C 
ATOM     18  C   UNL     1       7.971   4.877  13.624  0.00  0.00    +0.000 C 
ENDBRANCH   1  11
BRANCH   7  19
ATOM     19  C   UNL     1       2.711   4.025  19.960  0.00  0.00    +0.000 C 
ATOM     20  C   UNL     1       2.248   3.899  21.440  0.00  0.00    +0.000 C 
ATOM     21  C   UNL     1       1.292   2.717  21.513  0.00  0.00    +0.000 C 
ATOM     22  C   UNL     1       0.569   2.770  20.184  0.00  0.00    +0.000 C 
ATOM     23  C   UNL     1       1.617   3.252  19.169  0.00  0.00    +0.000 C 
ENDBRANCH   7  19
TORSDOF 2
ENDMDL
MODEL 3
REMARK VINA RESULT:      -6.6      2.780      6.939
REMARK  Name = 
REMARK  2 active torsions:
REMARK  status: ('A' for Active; 'I' for Inactive)
REMARK    1  A    between atoms: C_2  and  C_3
REMARK    2  A    between atoms: N_9  and  C_10
REMARK                            x       y       z     vdW  Elec       q    Type
REMARK                         _______ _______ _______ _____ _____    ______ ____
ROOT
ATOM      1  C   UNL     1       3.949   5.830  17.609  0.00  0.00    +0.000 C 
ATOM      2  C   UNL     1       3.866   4.519  16.785  0.00  0.00    +0.000 C 
ATOM      3  O   UNL     1       5.104   3.828  16.583  0.00  0.00    +0.000 OA
ATOM      4  C   UNL     1       6.198   4.261  17.388  0.00  0.00    +0.000 C 
ATOM      5  C   UNL     1       6.477   5.761  17.258  0.00  0.00    +0.000 C 
ATOM      6  C   UNL     1       7.392   6.136  16.084  0.00  0.00    +0.000 C 
ATOM      7  N   UNL     1       6.598   5.948  14.880  0.00  0.00    +0.000 NA
ATOM      8  C   UNL     1       5.246   6.395  15.263  0.00  0.00    +0.000 C 
ATOM      9  C   UNL     1       5.181   6.487  16.913  0.00  0.00    +0.000 C 
ENDROOT
BRANCH   1  11
ATOM     10  O   UNL     1       4.330   5.833  20.001  0.00  0.00    +0.000 OA
ATOM     11  C   UNL     1       3.530   5.393  19.153  0.00  0.00    +0.000 C 
ATOM     12  N   UNL     1       2.611   4.520  19.726  0.00  0.00    +0.000 N 
ATOM     13  C   UNL     1       1.747   3.542  19.090  0.00  0.00    +0.000 C 
ATOM     14  C   UNL     1       1.854   2.173  19.788  0.00  0.00    +0.000 C 
ATOM     15  C   UNL     1       1.468   2.244  21.262  0.00  0.00    +0.000 C 
ATOM     16  F   UNL     1       0.150   2.571  21.362  0.00  0.00    +0.000 F 
ATOM     17  C   UNL     1       2.291   3.285  21.991  0.00  0.00    +0.000 C 
ATOM     18  C   UNL     1       2.365   4.618  21.214  0.00  0.00    +0.000 C 
ENDBRANCH   1  11
BRANCH   7  19
ATOM     19  C   UNL     1       6.882   4.773  13.998  0.00  0.00    +0.000 C 
ATOM     20  C   UNL     1       5.653   3.948  13.519  0.00  0.00    +0.000 C 
ATOM     21  C   UNL     1       6.101   3.136  12.312  0.00  0.00    +0.000 C 
ATOM     22  C   UNL     1       7.090   4.051  11.622  0.00  0.00    +0.000 C 
ATOM     23  C   UNL     1       7.816   4.794  12.754  0.00  0.00    +0.000 C 
ENDBRANCH   7  19
TORSDOF 2
ENDMDL
MODEL 4
REMARK VINA RESULT:      -6.5      1.265      1.645
REMARK  Name = 
REMARK  2 active torsions:
REMARK  status: ('A' for Active; 'I' for Inactive)
REMARK    1  A    between atoms: C_2  and  C_3
REMARK    2  A    between atoms: N_9  and  C_10
REMARK                            x       y       z     vdW  Elec       q    Type
REMARK                         _______ _______ _______ _____ _____    ______ ____
ROOT
ATOM      1  C   UNL     1       4.901   6.370  17.555  0.00  0.00    +0.000 C 
ATOM      2  C   UNL     1       5.257   5.573  18.837  0.00  0.00    +0.000 C 
ATOM      3  O   UNL     1       4.542   4.347  19.029  0.00  0.00    +0.000 OA
ATOM      4  C   UNL     1       3.814   3.867  17.901  0.00  0.00    +0.000 C 
ATOM      5  C   UNL     1       2.826   4.898  17.347  0.00  0.00    +0.000 C 
ATOM      6  C   UNL     1       1.456   4.898  18.039  0.00  0.00    +0.000 C 
ATOM      7  N   UNL     1       1.670   5.476  19.356  0.00  0.00    +0.000 NA
ATOM      8  C   UNL     1       2.664   6.541  19.127  0.00  0.00    +0.000 C 
ATOM      9  C   UNL     1       3.345   6.301  17.639  0.00  0.00    +0.000 C 
ENDROOT
BRANCH   1  11
ATOM     10  O   UNL     1       7.045   6.721  16.483  0.00  0.00    +0.000 OA
ATOM     11  C   UNL     1       6.067   5.949  16.453  0.00  0.00    +0.000 C 
ATOM     12  N   UNL     1       6.156   5.058  15.389  0.00  0.00    +0.000 N 
ATOM     13  C   UNL     1       5.123   4.241  14.781  0.00  0.00    +0.000 C 
ATOM     14  C   UNL     1       5.127   4.393  13.248  0.00  0.00    +0.000 C 
ATOM     15  C   UNL     1       6.462   3.986  12.631  0.00  0.00    +0.000 C 
ATOM     16  F   UNL     1       6.662   2.656  12.838  0.00  0.00    +0.000 F 
ATOM     17  C   UNL     1       7.606   4.760  13.252  0.00  0.00    +0.000 C 
ATOM     18  C   UNL     1       7.520   4.791  14.793  0.00  0.00    +0.000 C 
ENDBRANCH   1  11
BRANCH   7  19
ATOM     19  C   UNL     1       1.652   4.581  20.555  0.00  0.00    +0.000 C 
ATOM     20  C   UNL     1       0.830   3.266  20.430  0.00  0.00    +0.000 C 
ATOM     21  C   UNL     1       1.314   2.329  21.528  0.00  0.00    +0.000 C 
ATOM     22  C   UNL     1       2.791   2.643  21.631  0.00  0.00    +0.000 C 
ATOM     23  C   UNL     1       2.905   4.154  21.371  0.00  0.00    +0.000 C 
ENDBRANCH   7  19
TORSDOF 2
ENDMDL
MODEL 5
REMARK VINA RESULT:      -6.4      2.635      6.947
REMARK  Name = 
REMARK  2 active torsions:
REMARK  status: ('A' for Active; 'I' for Inactive)
REMARK    1  A    between atoms: C_2  and  C_3
REMARK    2  A    between atoms: N_9  and  C_10
REMARK                            x       y       z     vdW  Elec       q    Type
REMARK                         _______ _______ _______ _____ _____    ______ ____
ROOT
ATOM      1  C   UNL     1       4.892   6.289  18.192  0.00  0.00    +0.000 C 
ATOM      2  C   UNL     1       4.234   6.486  16.803  0.00  0.00    +0.000 C 
ATOM      3  O   UNL     1       4.327   5.375  15.904  0.00  0.00    +0.000 OA
ATOM      4  C   UNL     1       4.750   4.141  16.480  0.00  0.00    +0.000 C 
ATOM      5  C   UNL     1       6.087   4.255  17.217  0.00  0.00    +0.000 C 
ATOM      6  C   UNL     1       7.322   4.083  16.321  0.00  0.00    +0.000 C 
ATOM      7  N   UNL     1       7.404   5.291  15.515  0.00  0.00    +0.000 NA
ATOM      8  C   UNL     1       6.989   6.368  16.432  0.00  0.00    +0.000 C 
ATOM      9  C   UNL     1       6.254   5.677  17.742  0.00  0.00    +0.000 C 
ENDROOT
BRANCH   1  11
ATOM     10  O   UNL     1       3.169   6.823  19.809  0.00  0.00    +0.000 OA
ATOM     11  C   UNL     1       3.647   5.849  19.197  0.00  0.00    +0.000 C 
ATOM     12  N   UNL     1       3.115   4.649  19.656  0.00  0.00    +0.000 N 
ATOM     13  C   UNL     1       3.609   3.295  19.483  0.00  0.00    +0.000 C 
ATOM     14  C   UNL     1       3.649   2.545  20.829  0.00  0.00    +0.000 C 
ATOM     15  C   UNL     1       2.273   2.457  21.482  0.00  0.00    +0.000 C 
ATOM     16  F   UNL     1       1.456   1.701  20.699  0.00  0.00    +0.000 F 
ATOM     17  C   UNL     1       1.662   3.832  21.651  0.00  0.00    +0.000 C 
ATOM     18  C   UNL     1       1.782   4.684  20.368  0.00  0.00    +0.000 C 
ENDBRANCH   1  11
BRANCH   7  19
ATOM     19  C   UNL     1       7.036   5.224  14.066  0.00  0.00    +0.000 C 
ATOM     20  C   UNL     1       8.141   5.625  13.046  0.00  0.00    +0.000 C 
ATOM     21  C   UNL     1       7.732   5.056  11.696  0.00  0.00    +0.000 C 
ATOM     22  C   UNL     1       7.054   3.751  12.056  0.00  0.00    +0.000 C 
ATOM     23  C   UNL     1       6.322   4.025  13.379  0.00  0.00    +0.000 C 
ENDBRANCH   7  19
TORSDOF 2
ENDMDL
MODEL 6
REMARK VINA RESULT:      -6.4      6.272      8.500
REMARK  Name = 
REMARK  2 active torsions:
REMARK  status: ('A' for Active; 'I' for Inactive)
REMARK    1  A    between atoms: C_2  and  C_3
REMARK    2  A    between atoms: N_9  and  C_10
REMARK                            x       y       z     vdW  Elec       q    Type
REMARK                         _______ _______ _______ _____ _____    ______ ____
ROOT
ATOM      1  C   UNL     1       1.107   8.313  21.441  0.00  0.00    +0.000 C 
ATOM      2  C   UNL     1      -0.409   8.190  21.142  0.00  0.00    +0.000 C 
ATOM      3  O   UNL     1      -0.991   9.273  20.409  0.00  0.00    +0.000 OA
ATOM      4  C   UNL     1      -0.073  10.179  19.801  0.00  0.00    +0.000 C 
ATOM      5  C   UNL     1       0.922  10.777  20.799  0.00  0.00    +0.000 C 
ATOM      6  C   UNL     1       0.413  12.025  21.533  0.00  0.00    +0.000 C 
ATOM      7  N   UNL     1      -0.594  11.557  22.472  0.00  0.00    +0.000 NA
ATOM      8  C   UNL     1      -0.065  10.269  22.959  0.00  0.00    +0.000 C 
ATOM      9  C   UNL     1       1.146   9.791  21.940  0.00  0.00    +0.000 C 
ENDROOT
BRANCH   1  11
ATOM     10  O   UNL     1       2.098   8.101  19.241  0.00  0.00    +0.000 OA
ATOM     11  C   UNL     1       1.851   7.422  20.257  0.00  0.00    +0.000 C 
ATOM     12  N   UNL     1       2.115   6.074  20.043  0.00  0.00    +0.000 N 
ATOM     13  C   UNL     1       1.668   4.915  20.795  0.00  0.00    +0.000 C 
ATOM     14  C   UNL     1       1.082   3.840  19.860  0.00  0.00    +0.000 C 
ATOM     15  C   UNL     1       2.097   3.359  18.827  0.00  0.00    +0.000 C 
ATOM     16  F   UNL     1       3.120   2.728  19.467  0.00  0.00    +0.000 F 
ATOM     17  C   UNL     1       2.654   4.519  18.030  0.00  0.00    +0.000 C 
ATOM     18  C   UNL     1       3.072   5.700  18.934  0.00  0.00    +0.000 C 
ENDBRANCH   1  11
BRANCH   7  19
ATOM     19  C   UNL     1      -2.038  11.823  22.182  0.00  0.00    +0.000 C 
ATOM     20  C   UNL     1      -2.925  12.246  23.388  0.00  0.00    +0.000 C 
ATOM     21  C   UNL     1      -4.176  12.897  22.818  0.00  0.00    +0.000 C 
ATOM     22  C   UNL     1      -3.669  13.609  21.582  0.00  0.00    +0.000 C 
ATOM     23  C   UNL     1      -2.568  12.701  21.013  0.00  0.00    +0.000 C 
ENDBRANCH   7  19
TORSDOF 2
ENDMDL
MODEL 7
REMARK VINA RESULT:      -6.4      3.750      6.924
REMARK  Name = 
REMARK  2 active torsions:
REMARK  status: ('A' for Active; 'I' for Inactive)
REMARK    1  A    between atoms: C_2  and  C_3
REMARK    2  A    between atoms: N_9  and  C_10
REMARK                            x       y       z     vdW  Elec       q    Type
REMARK                         _______ _______ _______ _____ _____    ______ ____
ROOT
ATOM      1  C   UNL     1       2.884   5.475  20.043  0.00  0.00    +0.000 C 
ATOM      2  C   UNL     1       4.217   6.083  19.538  0.00  0.00    +0.000 C 
ATOM      3  O   UNL     1       4.354   6.195  18.117  0.00  0.00    +0.000 OA
ATOM      4  C   UNL     1       3.161   6.008  17.359  0.00  0.00    +0.000 C 
ATOM      5  C   UNL     1       2.470   4.674  17.655  0.00  0.00    +0.000 C 
ATOM      6  C   UNL     1       2.997   3.491  16.830  0.00  0.00    +0.000 C 
ATOM      7  N   UNL     1       4.315   3.186  17.362  0.00  0.00    +0.000 NA
ATOM      8  C   UNL     1       4.178   3.396  18.815  0.00  0.00    +0.000 C 
ATOM      9  C   UNL     1       2.787   4.248  19.084  0.00  0.00    +0.000 C 
ENDROOT
BRANCH   1  11
ATOM     10  O   UNL     1       1.096   6.511  21.308  0.00  0.00    +0.000 OA
ATOM     11  C   UNL     1       1.936   6.781  20.428  0.00  0.00    +0.000 C 
ATOM     12  N   UNL     1       1.728   8.050  19.898  0.00  0.00    +0.000 N 
ATOM     13  C   UNL     1       2.225   8.627  18.663  0.00  0.00    +0.000 C 
ATOM     14  C   UNL     1       1.085   9.285  17.861  0.00  0.00    +0.000 C 
ATOM     15  C   UNL     1       0.393  10.395  18.647  0.00  0.00    +0.000 C 
ATOM     16  F   UNL     1       1.279  11.406  18.864  0.00  0.00    +0.000 F 
ATOM     17  C   UNL     1      -0.111   9.886  19.980  0.00  0.00    +0.000 C 
ATOM     18  C   UNL     1       0.953   9.051  20.725  0.00  0.00    +0.000 C 
ENDBRANCH   1  11
BRANCH   7  19
ATOM     19  C   UNL     1       5.525   3.558  16.564  0.00  0.00    +0.000 C 
ATOM     20  C   UNL     1       5.271   4.196  15.168  0.00  0.00    +0.000 C 
ATOM     21  C   UNL     1       6.555   4.900  14.756  0.00  0.00    +0.000 C 
ATOM     22  C   UNL     1       7.107   5.418  16.066  0.00  0.00    +0.000 C 
ATOM     23  C   UNL     1       6.747   4.349  17.111  0.00  0.00    +0.000 C 
ENDBRANCH   7  19
TORSDOF 2
ENDMDL
MODEL 8
REMARK VINA RESULT:      -6.4      0.931      1.107
REMARK  Name = 
REMARK  2 active torsions:
REMARK  status: ('A' for Active; 'I' for Inactive)
REMARK    1  A    between atoms: C_2  and  C_3
REMARK    2  A    between atoms: N_9  and  C_10
REMARK                            x       y       z     vdW  Elec       q    Type
REMARK                         _______ _______ _______ _____ _____    ______ ____
ROOT
ATOM      1  C   UNL     1       6.394   4.493  17.178  0.00  0.00    +0.000 C 
ATOM      2  C   UNL     1       5.159   3.654  16.759  0.00  0.00    +0.000 C 
ATOM      3  O   UNL     1       3.904   4.344  16.765  0.00  0.00    +0.000 OA
ATOM      4  C   UNL     1       3.974   5.763  16.872  0.00  0.00    +0.000 C 
ATOM      5  C   UNL     1       4.765   6.230  18.097  0.00  0.00    +0.000 C 
ATOM      6  C   UNL     1       3.939   6.326  19.387  0.00  0.00    +0.000 C 
ATOM      7  N   UNL     1       3.673   4.957  19.798  0.00  0.00    +0.000 NA
ATOM      8  C   UNL     1       4.916   4.233  19.470  0.00  0.00    +0.000 C 
ATOM      9  C   UNL     1       5.812   5.180  18.452  0.00  0.00    +0.000 C 
ENDROOT
BRANCH   1  11
ATOM     10  O   UNL     1       7.511   6.154  15.814  0.00  0.00    +0.000 OA
ATOM     11  C   UNL     1       7.080   4.986  15.751  0.00  0.00    +0.000 C 
ATOM     12  N   UNL     1       7.145   4.490  14.454  0.00  0.00    +0.000 N 
ATOM     13  C   UNL     1       6.465   3.351  13.866  0.00  0.00    +0.000 C 
ATOM     14  C   UNL     1       5.794   3.734  12.533  0.00  0.00    +0.000 C 
ATOM     15  C   UNL     1       6.799   4.251  11.509  0.00  0.00    +0.000 C 
ATOM     16  F   UNL     1       7.656   3.247  11.178  0.00  0.00    +0.000 F 
ATOM     17  C   UNL     1       7.593   5.414  12.065  0.00  0.00    +0.000 C 
ATOM     18  C   UNL     1       8.117   5.133  13.490  0.00  0.00    +0.000 C 
ENDBRANCH   1  11
BRANCH   7  19
ATOM     19  C   UNL     1       2.297   4.398  19.620  0.00  0.00    +0.000 C 
ATOM     20  C   UNL     1       2.190   3.023  18.900  0.00  0.00    +0.000 C 
ATOM     21  C   UNL     1       0.823   2.446  19.235  0.00  0.00    +0.000 C 
ATOM     22  C   UNL     1       0.585   2.912  20.655  0.00  0.00    +0.000 C 
ATOM     23  C   UNL     1       1.217   4.311  20.736  0.00  0.00    +0.000 C 
ENDBRANCH   7  19
TORSDOF 2
ENDMDL
MODEL 9
REMARK VINA RESULT:      -6.3      6.405      8.593
REMARK  Name = 
REMARK  2 active torsions:
REMARK  status: ('A' for Active; 'I' for Inactive)
REMARK    1  A    between atoms: C_2  and  C_3
REMARK    2  A    between atoms: N_9  and  C_10
REMARK                            x       y       z     vdW  Elec       q    Type
REMARK                         _______ _______ _______ _____ _____    ______ ____
ROOT
ATOM      1  C   UNL     1       1.560   9.860  19.650  0.00  0.00    +0.000 C 
ATOM      2  C   UNL     1       0.514   9.404  20.700  0.00  0.00    +0.000 C 
ATOM      3  O   UNL     1      -0.857   9.641  20.360  0.00  0.00    +0.000 OA
ATOM      4  C   UNL     1      -1.110   9.996  19.003  0.00  0.00    +0.000 C 
ATOM      5  C   UNL     1      -0.301  11.212  18.545  0.00  0.00    +0.000 C 
ATOM      6  C   UNL     1      -0.957  12.564  18.860  0.00  0.00    +0.000 C 
ATOM      7  N   UNL     1      -0.838  12.743  20.299  0.00  0.00    +0.000 NA
ATOM      8  C   UNL     1       0.488  12.185  20.625  0.00  0.00    +0.000 C 
ATOM      9  C   UNL     1       0.999  11.282  19.337  0.00  0.00    +0.000 C 
ENDROOT
BRANCH   1  11
ATOM     10  O   UNL     1       1.705   8.632  17.567  0.00  0.00    +0.000 OA
ATOM     11  C   UNL     1       1.924   8.492  18.786  0.00  0.00    +0.000 C 
ATOM     12  N   UNL     1       2.249   7.176  19.096  0.00  0.00    +0.000 N 
ATOM     13  C   UNL     1       2.245   6.502  20.381  0.00  0.00    +0.000 C 
ATOM     14  C   UNL     1       1.491   5.161  20.301  0.00  0.00    +0.000 C 
ATOM     15  C   UNL     1       2.112   4.210  19.282  0.00  0.00    +0.000 C 
ATOM     16  F   UNL     1       3.364   3.870  19.695  0.00  0.00    +0.000 F 
ATOM     17  C   UNL     1       2.203   4.859  17.917  0.00  0.00    +0.000 C 
ATOM     18  C   UNL     1       2.777   6.291  17.990  0.00  0.00    +0.000 C 
ENDBRANCH   1  11
BRANCH   7  19
ATOM     19  C   UNL     1      -2.055  12.586  21.154  0.00  0.00    +0.000 C 
ATOM     20  C   UNL     1      -1.835  12.003  22.580  0.00  0.00    +0.000 C 
ATOM     21  C   UNL     1      -3.063  12.358  23.404  0.00  0.00    +0.000 C 
ATOM     22  C   UNL     1      -3.461  13.718  22.872  0.00  0.00    +0.000 C 
ATOM     23  C   UNL     1      -3.143  13.676  21.369  0.00  0.00    +0.000 C 
ENDBRANCH   7  19
TORSDOF 2
ENDMDL
