MODEL 1
REMARK VINA RESULT:      -7.7      0.000      0.000
REMARK  Name = 
REMARK  14 active torsions:
REMARK  status: ('A' for Active; 'I' for Inactive)
REMARK    1  A    between atoms: C_1  and  O_2
REMARK    2  A    between atoms: O_2  and  C_3
REMARK    3  A    between atoms: C_6  and  C_7
REMARK    4  A    between atoms: C_7  and  C_25
REMARK    5  A    between atoms: C_8  and  C_9
REMARK    6  A    between atoms: C_10  and  C_11
REMARK    7  A    between atoms: N_13  and  C_14
REMARK    8  A    between atoms: C_14  and  C_15
REMARK    9  A    between atoms: C_14  and  C_16
REMARK   10  A    between atoms: C_16  and  C_17
REMARK   11  A    between atoms: C_17  and  C_18
REMARK   12  A    between atoms: C_18  and  C_19
REMARK   13  A    between atoms: C_25  and  C_26
REMARK   14  A    between atoms: C_25  and  C_27
REMARK                            x       y       z     vdW  Elec       q    Type
REMARK                         _______ _______ _______ _____ _____    ______ ____
ROOT
ATOM      1  C   UNL     1       7.891   9.462  17.848  0.00  0.00    +0.000 C 
ATOM      2  C   UNL     1       8.568   8.311  18.018  0.00  0.00    +0.000 C 
ENDROOT
BRANCH   2   3
ATOM      3  C   UNL     1       7.845   6.994  18.073  0.00  0.00    +0.000 C 
ATOM      4  O   UNL     1       7.692   6.372  19.116  0.00  0.00    +0.000 OA
ATOM      5  N   UNL     1       7.367   6.586  16.847  0.00  0.00    +0.000 N 
ATOM      6  H   UNL     1       7.521   7.194  16.055  0.00  0.00    +0.000 HD
BRANCH   5   7
ATOM      7  C   UNL     1       6.509   5.416  16.601  0.00  0.00    +0.000 C 
ATOM      8  C   UNL     1       6.906   4.671  15.324  0.00  0.00    +0.000 C 
BRANCH   7   9
ATOM      9  C   UNL     1       4.995   5.718  16.664  0.00  0.00    +0.000 C 
BRANCH   9  10
ATOM     10  C   UNL     1       4.102   4.524  17.081  0.00  0.00    +0.000 C 
BRANCH  10  11
ATOM     11  C   UNL     1       4.528   3.856  18.395  0.00  0.00    +0.000 C 
BRANCH  11  12
ATOM     12  C   UNL     1       3.389   3.642  19.358  0.00  0.00    +0.000 A 
ATOM     13  C   UNL     1       2.145   4.250  19.162  0.00  0.00    +0.000 A 
ATOM     14  C   UNL     1       1.101   4.000  20.049  0.00  0.00    +0.000 A 
ATOM     15  C   UNL     1       1.337   3.149  21.116  0.00  0.00    +0.000 A 
ATOM     16  N   UNL     1       2.527   2.553  21.348  0.00  0.00    +0.000 NA
ATOM     17  C   UNL     1       3.523   2.814  20.470  0.00  0.00    +0.000 A 
ENDBRANCH  11  12
ENDBRANCH  10  11
ENDBRANCH   9  10
ENDBRANCH   7   9
ENDBRANCH   5   7
ENDBRANCH   2   3
BRANCH   1  19
ATOM     18  C   UNL     1       9.243  11.500  18.555  0.00  0.00    +0.000 C 
ATOM     19  C   UNL     1       8.403  10.825  17.740  0.00  0.00    +0.000 C 
BRANCH  18  23
ATOM     20  C   UNL     1       9.957  15.717  17.923  0.00  0.00    +0.000 A 
ATOM     21  C   UNL     1       8.904  15.288  18.733  0.00  0.00    +0.000 A 
ATOM     22  C   UNL     1       8.656  13.919  18.916  0.00  0.00    +0.000 A 
ATOM     23  C   UNL     1       9.455  12.951  18.288  0.00  0.00    +0.000 A 
ATOM     24  C   UNL     1      10.474  13.392  17.434  0.00  0.00    +0.000 A 
ATOM     25  C   UNL     1      10.722  14.765  17.256  0.00  0.00    +0.000 A 
BRANCH  20  27
ATOM     26  C   UNL     1      11.376  17.526  17.346  0.00  0.00    +0.000 C 
ATOM     27  O   UNL     1      10.110  17.074  17.822  0.00  0.00    +0.000 OA
ENDBRANCH  20  27
ENDBRANCH  18  23
BRANCH  18  28
ATOM     28  C   UNL     1       9.939  10.921  19.783  0.00  0.00    +0.000 C 
ATOM     29  C   UNL     1      11.339  11.517  19.961  0.00  0.00    +0.000 C 
ATOM     30  C   UNL     1       9.158  11.059  21.099  0.00  0.00    +0.000 C 
ENDBRANCH  18  28
ENDBRANCH   1  19
TORSDOF 10
ENDMDL
MODEL 2
REMARK VINA RESULT:      -7.7      2.073      2.543
REMARK  Name = 
REMARK  14 active torsions:
REMARK  status: ('A' for Active; 'I' for Inactive)
REMARK    1  A    between atoms: C_1  and  O_2
REMARK    2  A    between atoms: O_2  and  C_3
REMARK    3  A    between atoms: C_6  and  C_7
REMARK    4  A    between atoms: C_7  and  C_25
REMARK    5  A    between atoms: C_8  and  C_9
REMARK    6  A    between atoms: C_10  and  C_11
REMARK    7  A    between atoms: N_13  and  C_14
REMARK    8  A    between atoms: C_14  and  C_15
REMARK    9  A    between atoms: C_14  and  C_16
REMARK   10  A    between atoms: C_16  and  C_17
REMARK   11  A    between atoms: C_17  and  C_18
REMARK   12  A    between atoms: C_18  and  C_19
REMARK   13  A    between atoms: C_25  and  C_26
REMARK   14  A    between atoms: C_25  and  C_27
REMARK                            x       y       z     vdW  Elec       q    Type
REMARK                         _______ _______ _______ _____ _____    ______ ____
ROOT
ATOM      1  C   UNL     1       8.787   9.592  18.003  0.00  0.00    +0.000 C 
ATOM      2  C   UNL     1       7.699   8.870  17.673  0.00  0.00    +0.000 C 
ENDROOT
BRANCH   2   3
ATOM      3  C   UNL     1       7.694   7.375  17.827  0.00  0.00    +0.000 C 
ATOM      4  O   UNL     1       8.134   6.816  18.822  0.00  0.00    +0.000 OA
ATOM      5  N   UNL     1       7.132   6.721  16.753  0.00  0.00    +0.000 N 
ATOM      6  H   UNL     1       6.770   7.283  15.996  0.00  0.00    +0.000 HD
BRANCH   5   7
ATOM      7  C   UNL     1       6.864   5.276  16.665  0.00  0.00    +0.000 C 
ATOM      8  C   UNL     1       6.971   4.758  15.229  0.00  0.00    +0.000 C 
BRANCH   7   9
ATOM      9  C   UNL     1       5.556   4.834  17.359  0.00  0.00    +0.000 C 
BRANCH   9  10
ATOM     10  C   UNL     1       4.323   5.724  17.069  0.00  0.00    +0.000 C 
BRANCH  10  11
ATOM     11  C   UNL     1       3.163   5.521  18.053  0.00  0.00    +0.000 C 
BRANCH  11  12
ATOM     12  C   UNL     1       2.552   6.811  18.538  0.00  0.00    +0.000 A 
ATOM     13  C   UNL     1       2.254   7.853  17.655  0.00  0.00    +0.000 A 
ATOM     14  C   UNL     1       1.652   9.016  18.129  0.00  0.00    +0.000 A 
ATOM     15  C   UNL     1       1.373   9.103  19.483  0.00  0.00    +0.000 A 
ATOM     16  N   UNL     1       1.657   8.126  20.370  0.00  0.00    +0.000 NA
ATOM     17  C   UNL     1       2.241   7.007  19.881  0.00  0.00    +0.000 A 
ENDBRANCH  11  12
ENDBRANCH  10  11
ENDBRANCH   9  10
ENDBRANCH   7   9
ENDBRANCH   5   7
ENDBRANCH   2   3
BRANCH   1  19
ATOM     18  C   UNL     1       9.568  11.861  18.854  0.00  0.00    +0.000 C 
ATOM     19  C   UNL     1       8.983  11.039  17.956  0.00  0.00    +0.000 C 
BRANCH  18  23
ATOM     20  C   UNL     1       9.217  16.088  18.018  0.00  0.00    +0.000 A 
ATOM     21  C   UNL     1      10.369  15.386  17.660  0.00  0.00    +0.000 A 
ATOM     22  C   UNL     1      10.494  14.020  17.956  0.00  0.00    +0.000 A 
ATOM     23  C   UNL     1       9.468  13.330  18.621  0.00  0.00    +0.000 A 
ATOM     24  C   UNL     1       8.341  14.055  19.025  0.00  0.00    +0.000 A 
ATOM     25  C   UNL     1       8.217  15.424  18.723  0.00  0.00    +0.000 A 
BRANCH  20  27
ATOM     26  C   UNL     1      10.334  18.178  18.079  0.00  0.00    +0.000 C 
ATOM     27  O   UNL     1       9.201  17.414  17.674  0.00  0.00    +0.000 OA
ENDBRANCH  20  27
ENDBRANCH  18  23
BRANCH  18  28
ATOM     28  C   UNL     1      10.260  11.417  20.139  0.00  0.00    +0.000 C 
ATOM     29  C   UNL     1      11.712  11.905  20.184  0.00  0.00    +0.000 C 
ATOM     30  C   UNL     1       9.547  11.826  21.437  0.00  0.00    +0.000 C 
ENDBRANCH  18  28
ENDBRANCH   1  19
TORSDOF 10
ENDMDL
MODEL 3
REMARK VINA RESULT:      -7.6      5.645      8.478
REMARK  Name = 
REMARK  14 active torsions:
REMARK  status: ('A' for Active; 'I' for Inactive)
REMARK    1  A    between atoms: C_1  and  O_2
REMARK    2  A    between atoms: O_2  and  C_3
REMARK    3  A    between atoms: C_6  and  C_7
REMARK    4  A    between atoms: C_7  and  C_25
REMARK    5  A    between atoms: C_8  and  C_9
REMARK    6  A    between atoms: C_10  and  C_11
REMARK    7  A    between atoms: N_13  and  C_14
REMARK    8  A    between atoms: C_14  and  C_15
REMARK    9  A    between atoms: C_14  and  C_16
REMARK   10  A    between atoms: C_16  and  C_17
REMARK   11  A    between atoms: C_17  and  C_18
REMARK   12  A    between atoms: C_18  and  C_19
REMARK   13  A    between atoms: C_25  and  C_26
REMARK   14  A    between atoms: C_25  and  C_27
REMARK                            x       y       z     vdW  Elec       q    Type
REMARK                         _______ _______ _______ _____ _____    ______ ____
ROOT
ATOM      1  C   UNL     1       2.443   8.324  17.990  0.00  0.00    +0.000 C 
ATOM      2  C   UNL     1       2.616   7.166  18.654  0.00  0.00    +0.000 C 
ENDROOT
BRANCH   2   3
ATOM      3  C   UNL     1       3.969   6.513  18.722  0.00  0.00    +0.000 C 
ATOM      4  O   UNL     1       4.249   5.669  19.562  0.00  0.00    +0.000 OA
ATOM      5  N   UNL     1       4.831   6.949  17.740  0.00  0.00    +0.000 N 
ATOM      6  H   UNL     1       4.485   7.627  17.075  0.00  0.00    +0.000 HD
BRANCH   5   7
ATOM      7  C   UNL     1       6.171   6.406  17.464  0.00  0.00    +0.000 C 
ATOM      8  C   UNL     1       7.229   7.507  17.368  0.00  0.00    +0.000 C 
BRANCH   7   9
ATOM      9  C   UNL     1       6.222   5.429  16.268  0.00  0.00    +0.000 C 
BRANCH   9  10
ATOM     10  C   UNL     1       5.619   4.029  16.535  0.00  0.00    +0.000 C 
BRANCH  10  11
ATOM     11  C   UNL     1       4.137   3.905  16.153  0.00  0.00    +0.000 C 
BRANCH  11  12
ATOM     12  C   UNL     1       3.285   3.299  17.237  0.00  0.00    +0.000 A 
ATOM     13  C   UNL     1       1.995   3.772  17.499  0.00  0.00    +0.000 A 
ATOM     14  C   UNL     1       1.217   3.164  18.481  0.00  0.00    +0.000 A 
ATOM     15  C   UNL     1       1.760   2.099  19.180  0.00  0.00    +0.000 A 
ATOM     16  N   UNL     1       3.005   1.621  18.968  0.00  0.00    +0.000 NA
ATOM     17  C   UNL     1       3.738   2.232  18.007  0.00  0.00    +0.000 A 
ENDBRANCH  11  12
ENDBRANCH  10  11
ENDBRANCH   9  10
ENDBRANCH   7   9
ENDBRANCH   5   7
ENDBRANCH   2   3
BRANCH   1  19
ATOM     18  C   UNL     1       0.462   9.722  18.768  0.00  0.00    +0.000 C 
ATOM     19  C   UNL     1       1.232   9.124  17.832  0.00  0.00    +0.000 C 
BRANCH  18  23
ATOM     20  C   UNL     1      -3.353  11.373  17.580  0.00  0.00    +0.000 A 
ATOM     21  C   UNL     1      -2.781  10.319  16.866  0.00  0.00    +0.000 A 
ATOM     22  C   UNL     1      -1.529   9.801  17.235  0.00  0.00    +0.000 A 
ATOM     23  C   UNL     1      -0.824  10.332  18.326  0.00  0.00    +0.000 A 
ATOM     24  C   UNL     1      -1.381  11.424  19.002  0.00  0.00    +0.000 A 
ATOM     25  C   UNL     1      -2.637  11.939  18.631  0.00  0.00    +0.000 A 
BRANCH  20  27
ATOM     26  C   UNL     1      -5.689  11.471  17.969  0.00  0.00    +0.000 C 
ATOM     27  O   UNL     1      -4.578  11.793  17.136  0.00  0.00    +0.000 OA
ENDBRANCH  20  27
ENDBRANCH  18  23
BRANCH  18  28
ATOM     28  C   UNL     1       0.759   9.758  20.264  0.00  0.00    +0.000 C 
ATOM     29  C   UNL     1       0.874  11.199  20.772  0.00  0.00    +0.000 C 
ATOM     30  C   UNL     1      -0.238   8.988  21.144  0.00  0.00    +0.000 C 
ENDBRANCH  18  28
ENDBRANCH   1  19
TORSDOF 10
ENDMDL
MODEL 4
REMARK VINA RESULT:      -7.5      6.230      8.440
REMARK  Name = 
REMARK  14 active torsions:
REMARK  status: ('A' for Active; 'I' for Inactive)
REMARK    1  A    between atoms: C_1  and  O_2
REMARK    2  A    between atoms: O_2  and  C_3
REMARK    3  A    between atoms: C_6  and  C_7
REMARK    4  A    between atoms: C_7  and  C_25
REMARK    5  A    between atoms: C_8  and  C_9
REMARK    6  A    between atoms: C_10  and  C_11
REMARK    7  A    between atoms: N_13  and  C_14
REMARK    8  A    between atoms: C_14  and  C_15
REMARK    9  A    between atoms: C_14  and  C_16
REMARK   10  A    between atoms: C_16  and  C_17
REMARK   11  A    between atoms: C_17  and  C_18
REMARK   12  A    between atoms: C_18  and  C_19
REMARK   13  A    between atoms: C_25  and  C_26
REMARK   14  A    between atoms: C_25  and  C_27
REMARK                            x       y       z     vdW  Elec       q    Type
REMARK                         _______ _______ _______ _____ _____    ______ ____
ROOT
ATOM      1  C   UNL     1       2.174   8.223  17.937  0.00  0.00    +0.000 C 
ATOM      2  C   UNL     1       2.326   7.042  18.563  0.00  0.00    +0.000 C 
ENDROOT
BRANCH   2   3
ATOM      3  C   UNL     1       3.647   6.325  18.543  0.00  0.00    +0.000 C 
ATOM      4  O   UNL     1       4.197   5.932  19.563  0.00  0.00    +0.000 OA
ATOM      5  N   UNL     1       4.149   6.148  17.272  0.00  0.00    +0.000 N 
ATOM      6  H   UNL     1       3.596   6.484  16.496  0.00  0.00    +0.000 HD
BRANCH   5   7
ATOM      7  C   UNL     1       5.348   5.372  16.918  0.00  0.00    +0.000 C 
ATOM      8  C   UNL     1       6.321   6.179  16.056  0.00  0.00    +0.000 C 
BRANCH   7   9
ATOM      9  C   UNL     1       5.046   3.978  16.324  0.00  0.00    +0.000 C 
BRANCH   9  10
ATOM     10  C   UNL     1       4.567   2.916  17.344  0.00  0.00    +0.000 C 
BRANCH  10  11
ATOM     11  C   UNL     1       3.040   2.808  17.460  0.00  0.00    +0.000 C 
BRANCH  11  12
ATOM     12  C   UNL     1       2.533   2.942  18.872  0.00  0.00    +0.000 A 
ATOM     13  C   UNL     1       1.256   3.446  19.142  0.00  0.00    +0.000 A 
ATOM     14  C   UNL     1       0.801   3.519  20.457  0.00  0.00    +0.000 A 
ATOM     15  C   UNL     1       1.646   3.090  21.467  0.00  0.00    +0.000 A 
ATOM     16  N   UNL     1       2.890   2.610  21.249  0.00  0.00    +0.000 NA
ATOM     17  C   UNL     1       3.305   2.550  19.962  0.00  0.00    +0.000 A 
ENDBRANCH  11  12
ENDBRANCH  10  11
ENDBRANCH   9  10
ENDBRANCH   7   9
ENDBRANCH   5   7
ENDBRANCH   2   3
BRANCH   1  19
ATOM     18  C   UNL     1       0.340   9.737  18.846  0.00  0.00    +0.000 C 
ATOM     19  C   UNL     1       0.996   9.083  17.863  0.00  0.00    +0.000 C 
BRANCH  18  23
ATOM     20  C   UNL     1      -3.476  11.551  17.927  0.00  0.00    +0.000 A 
ATOM     21  C   UNL     1      -2.941  10.562  17.099  0.00  0.00    +0.000 A 
ATOM     22  C   UNL     1      -1.689   9.993  17.383  0.00  0.00    +0.000 A 
ATOM     23  C   UNL     1      -0.947  10.406  18.500  0.00  0.00    +0.000 A 
ATOM     24  C   UNL     1      -1.466  11.437  19.292  0.00  0.00    +0.000 A 
ATOM     25  C   UNL     1      -2.722  12.003  19.007  0.00  0.00    +0.000 A 
BRANCH  20  27
ATOM     26  C   UNL     1      -5.585  12.376  18.624  0.00  0.00    +0.000 C 
ATOM     27  O   UNL     1      -4.704  12.030  17.558  0.00  0.00    +0.000 OA
ENDBRANCH  20  27
ENDBRANCH  18  23
BRANCH  18  28
ATOM     28  C   UNL     1       0.765   9.786  20.311  0.00  0.00    +0.000 C 
ATOM     29  C   UNL     1       0.976  11.229  20.779  0.00  0.00    +0.000 C 
ATOM     30  C   UNL     1      -0.181   9.069  21.287  0.00  0.00    +0.000 C 
ENDBRANCH  18  28
ENDBRANCH   1  19
TORSDOF 10
ENDMDL
MODEL 5
REMARK VINA RESULT:      -7.5      1.300      1.928
REMARK  Name = 
REMARK  14 active torsions:
REMARK  status: ('A' for Active; 'I' for Inactive)
REMARK    1  A    between atoms: C_1  and  O_2
REMARK    2  A    between atoms: O_2  and  C_3
REMARK    3  A    between atoms: C_6  and  C_7
REMARK    4  A    between atoms: C_7  and  C_25
REMARK    5  A    between atoms: C_8  and  C_9
REMARK    6  A    between atoms: C_10  and  C_11
REMARK    7  A    between atoms: N_13  and  C_14
REMARK    8  A    between atoms: C_14  and  C_15
REMARK    9  A    between atoms: C_14  and  C_16
REMARK   10  A    between atoms: C_16  and  C_17
REMARK   11  A    between atoms: C_17  and  C_18
REMARK   12  A    between atoms: C_18  and  C_19
REMARK   13  A    between atoms: C_25  and  C_26
REMARK   14  A    between atoms: C_25  and  C_27
REMARK                            x       y       z     vdW  Elec       q    Type
REMARK                         _______ _______ _______ _____ _____    ______ ____
ROOT
ATOM      1  C   UNL     1       8.028   9.633  18.039  0.00  0.00    +0.000 C 
ATOM      2  C   UNL     1       8.459   8.414  17.666  0.00  0.00    +0.000 C 
ENDROOT
BRANCH   2   3
ATOM      3  C   UNL     1       7.644   7.186  17.964  0.00  0.00    +0.000 C 
ATOM      4  O   UNL     1       7.933   6.408  18.864  0.00  0.00    +0.000 OA
ATOM      5  N   UNL     1       6.549   7.049  17.140  0.00  0.00    +0.000 N 
ATOM      6  H   UNL     1       6.386   7.768  16.449  0.00  0.00    +0.000 HD
BRANCH   5   7
ATOM      7  C   UNL     1       5.494   6.030  17.267  0.00  0.00    +0.000 C 
ATOM      8  C   UNL     1       5.832   4.754  16.495  0.00  0.00    +0.000 C 
BRANCH   7   9
ATOM      9  C   UNL     1       4.073   6.552  16.958  0.00  0.00    +0.000 C 
BRANCH   9  10
ATOM     10  C   UNL     1       3.370   7.283  18.128  0.00  0.00    +0.000 C 
BRANCH  10  11
ATOM     11  C   UNL     1       2.846   6.345  19.224  0.00  0.00    +0.000 C 
BRANCH  11  12
ATOM     12  C   UNL     1       2.717   4.911  18.778  0.00  0.00    +0.000 A 
ATOM     13  C   UNL     1       3.503   3.901  19.340  0.00  0.00    +0.000 A 
ATOM     14  C   UNL     1       3.331   2.579  18.935  0.00  0.00    +0.000 A 
ATOM     15  C   UNL     1       2.377   2.309  17.969  0.00  0.00    +0.000 A 
ATOM     16  N   UNL     1       1.607   3.257  17.392  0.00  0.00    +0.000 NA
ATOM     17  C   UNL     1       1.796   4.532  17.806  0.00  0.00    +0.000 A 
ENDBRANCH  11  12
ENDBRANCH  10  11
ENDBRANCH   9  10
ENDBRANCH   7   9
ENDBRANCH   5   7
ENDBRANCH   2   3
BRANCH   1  19
ATOM     18  C   UNL     1       9.482  11.642  18.620  0.00  0.00    +0.000 C 
ATOM     19  C   UNL     1       8.649  10.937  17.822  0.00  0.00    +0.000 C 
BRANCH  18  23
ATOM     20  C   UNL     1      10.379  15.658  17.294  0.00  0.00    +0.000 A 
ATOM     21  C   UNL     1      11.185  14.585  16.909  0.00  0.00    +0.000 A 
ATOM     22  C   UNL     1      10.909  13.285  17.362  0.00  0.00    +0.000 A 
ATOM     23  C   UNL     1       9.822  13.035  18.213  0.00  0.00    +0.000 A 
ATOM     24  C   UNL     1       9.053  14.124  18.638  0.00  0.00    +0.000 A 
ATOM     25  C   UNL     1       9.330  15.426  18.180  0.00  0.00    +0.000 A 
BRANCH  20  27
ATOM     26  C   UNL     1      11.751  17.579  17.504  0.00  0.00    +0.000 C 
ATOM     27  O   UNL     1      10.736  16.879  16.788  0.00  0.00    +0.000 OA
ENDBRANCH  20  27
ENDBRANCH  18  23
BRANCH  18  28
ATOM     28  C   UNL     1      10.045  11.160  19.954  0.00  0.00    +0.000 C 
ATOM     29  C   UNL     1      11.430  11.760  20.220  0.00  0.00    +0.000 C 
ATOM     30  C   UNL     1       9.142  11.410  21.171  0.00  0.00    +0.000 C 
ENDBRANCH  18  28
ENDBRANCH   1  19
TORSDOF 10
ENDMDL
MODEL 6
REMARK VINA RESULT:      -7.3      2.126      2.676
REMARK  Name = 
REMARK  14 active torsions:
REMARK  status: ('A' for Active; 'I' for Inactive)
REMARK    1  A    between atoms: C_1  and  O_2
REMARK    2  A    between atoms: O_2  and  C_3
REMARK    3  A    between atoms: C_6  and  C_7
REMARK    4  A    between atoms: C_7  and  C_25
REMARK    5  A    between atoms: C_8  and  C_9
REMARK    6  A    between atoms: C_10  and  C_11
REMARK    7  A    between atoms: N_13  and  C_14
REMARK    8  A    between atoms: C_14  and  C_15
REMARK    9  A    between atoms: C_14  and  C_16
REMARK   10  A    between atoms: C_16  and  C_17
REMARK   11  A    between atoms: C_17  and  C_18
REMARK   12  A    between atoms: C_18  and  C_19
REMARK   13  A    between atoms: C_25  and  C_26
REMARK   14  A    between atoms: C_25  and  C_27
REMARK                            x       y       z     vdW  Elec       q    Type
REMARK                         _______ _______ _______ _____ _____    ______ ____
ROOT
ATOM      1  C   UNL     1       8.567   9.637  17.956  0.00  0.00    +0.000 C 
ATOM      2  C   UNL     1       7.517   8.883  17.581  0.00  0.00    +0.000 C 
ENDROOT
BRANCH   2   3
ATOM      3  C   UNL     1       7.557   7.386  17.719  0.00  0.00    +0.000 C 
ATOM      4  O   UNL     1       8.123   6.828  18.650  0.00  0.00    +0.000 OA
ATOM      5  N   UNL     1       6.884   6.730  16.712  0.00  0.00    +0.000 N 
ATOM      6  H   UNL     1       6.424   7.291  16.009  0.00  0.00    +0.000 HD
BRANCH   5   7
ATOM      7  C   UNL     1       6.634   5.281  16.642  0.00  0.00    +0.000 C 
ATOM      8  C   UNL     1       7.118   4.678  15.323  0.00  0.00    +0.000 C 
BRANCH   7   9
ATOM      9  C   UNL     1       5.183   4.874  16.983  0.00  0.00    +0.000 C 
BRANCH   9  10
ATOM     10  C   UNL     1       4.664   5.370  18.354  0.00  0.00    +0.000 C 
BRANCH  10  11
ATOM     11  C   UNL     1       3.138   5.301  18.506  0.00  0.00    +0.000 C 
BRANCH  11  12
ATOM     12  C   UNL     1       2.509   6.619  18.876  0.00  0.00    +0.000 A 
ATOM     13  C   UNL     1       2.081   6.881  20.181  0.00  0.00    +0.000 A 
ATOM     14  C   UNL     1       1.541   8.125  20.500  0.00  0.00    +0.000 A 
ATOM     15  C   UNL     1       1.439   9.071  19.494  0.00  0.00    +0.000 A 
ATOM     16  N   UNL     1       1.828   8.854  18.219  0.00  0.00    +0.000 NA
ATOM     17  C   UNL     1       2.349   7.636  17.939  0.00  0.00    +0.000 A 
ENDBRANCH  11  12
ENDBRANCH  10  11
ENDBRANCH   9  10
ENDBRANCH   7   9
ENDBRANCH   5   7
ENDBRANCH   2   3
BRANCH   1  19
ATOM     18  C   UNL     1       9.535  11.888  18.649  0.00  0.00    +0.000 C 
ATOM     19  C   UNL     1       8.715  11.090  17.931  0.00  0.00    +0.000 C 
BRANCH  18  23
ATOM     20  C   UNL     1       8.905  16.139  18.174  0.00  0.00    +0.000 A 
ATOM     21  C   UNL     1      10.051  15.528  17.662  0.00  0.00    +0.000 A 
ATOM     22  C   UNL     1      10.269  14.153  17.840  0.00  0.00    +0.000 A 
ATOM     23  C   UNL     1       9.344  13.362  18.539  0.00  0.00    +0.000 A 
ATOM     24  C   UNL     1       8.226  13.993  19.096  0.00  0.00    +0.000 A 
ATOM     25  C   UNL     1       8.009  15.372  18.913  0.00  0.00    +0.000 A 
BRANCH  20  27
ATOM     26  C   UNL     1       9.115  18.340  19.029  0.00  0.00    +0.000 C 
ATOM     27  O   UNL     1       8.794  17.482  17.936  0.00  0.00    +0.000 OA
ENDBRANCH  20  27
ENDBRANCH  18  23
BRANCH  18  28
ATOM     28  C   UNL     1      10.598  11.406  19.632  0.00  0.00    +0.000 C 
ATOM     29  C   UNL     1      12.001  11.507  19.025  0.00  0.00    +0.000 C 
ATOM     30  C   UNL     1      10.585  12.108  20.999  0.00  0.00    +0.000 C 
ENDBRANCH  18  28
ENDBRANCH   1  19
TORSDOF 10
ENDMDL
MODEL 7
REMARK VINA RESULT:      -7.3      5.838      8.720
REMARK  Name = 
REMARK  14 active torsions:
REMARK  status: ('A' for Active; 'I' for Inactive)
REMARK    1  A    between atoms: C_1  and  O_2
REMARK    2  A    between atoms: O_2  and  C_3
REMARK    3  A    between atoms: C_6  and  C_7
REMARK    4  A    between atoms: C_7  and  C_25
REMARK    5  A    between atoms: C_8  and  C_9
REMARK    6  A    between atoms: C_10  and  C_11
REMARK    7  A    between atoms: N_13  and  C_14
REMARK    8  A    between atoms: C_14  and  C_15
REMARK    9  A    between atoms: C_14  and  C_16
REMARK   10  A    between atoms: C_16  and  C_17
REMARK   11  A    between atoms: C_17  and  C_18
REMARK   12  A    between atoms: C_18  and  C_19
REMARK   13  A    between atoms: C_25  and  C_26
REMARK   14  A    between atoms: C_25  and  C_27
REMARK                            x       y       z     vdW  Elec       q    Type
REMARK                         _______ _______ _______ _____ _____    ______ ____
ROOT
ATOM      1  C   UNL     1       1.898   8.444  18.305  0.00  0.00    +0.000 C 
ATOM      2  C   UNL     1       2.773   7.867  17.460  0.00  0.00    +0.000 C 
ENDROOT
BRANCH   2   3
ATOM      3  C   UNL     1       3.974   7.131  17.983  0.00  0.00    +0.000 C 
ATOM      4  O   UNL     1       3.948   6.487  19.024  0.00  0.00    +0.000 OA
ATOM      5  N   UNL     1       5.078   7.245  17.167  0.00  0.00    +0.000 N 
ATOM      6  H   UNL     1       4.980   7.775  16.313  0.00  0.00    +0.000 HD
BRANCH   5   7
ATOM      7  C   UNL     1       6.356   6.534  17.339  0.00  0.00    +0.000 C 
ATOM      8  C   UNL     1       7.516   7.495  17.608  0.00  0.00    +0.000 C 
BRANCH   7   9
ATOM      9  C   UNL     1       6.672   5.524  16.214  0.00  0.00    +0.000 C 
BRANCH   9  10
ATOM     10  C   UNL     1       6.105   4.099  16.428  0.00  0.00    +0.000 C 
BRANCH  10  11
ATOM     11  C   UNL     1       4.583   4.002  16.253  0.00  0.00    +0.000 C 
BRANCH  11  12
ATOM     12  C   UNL     1       3.874   3.428  17.452  0.00  0.00    +0.000 A 
ATOM     13  C   UNL     1       4.534   3.250  18.672  0.00  0.00    +0.000 A 
ATOM     14  C   UNL     1       3.839   2.755  19.773  0.00  0.00    +0.000 A 
ATOM     15  C   UNL     1       2.499   2.444  19.615  0.00  0.00    +0.000 A 
ATOM     16  N   UNL     1       1.829   2.588  18.451  0.00  0.00    +0.000 NA
ATOM     17  C   UNL     1       2.530   3.071  17.399  0.00  0.00    +0.000 A 
ENDBRANCH  11  12
ENDBRANCH  10  11
ENDBRANCH   9  10
ENDBRANCH   7   9
ENDBRANCH   5   7
ENDBRANCH   2   3
BRANCH   1  19
ATOM     18  C   UNL     1      -0.160   9.850  18.828  0.00  0.00    +0.000 C 
ATOM     19  C   UNL     1       0.668   9.172  18.003  0.00  0.00    +0.000 C 
BRANCH  18  23
ATOM     20  C   UNL     1      -3.806  11.439  17.132  0.00  0.00    +0.000 A 
ATOM     21  C   UNL     1      -3.381  11.834  18.402  0.00  0.00    +0.000 A 
ATOM     22  C   UNL     1      -2.212  11.297  18.964  0.00  0.00    +0.000 A 
ATOM     23  C   UNL     1      -1.447  10.350  18.266  0.00  0.00    +0.000 A 
ATOM     24  C   UNL     1      -1.910   9.920  17.017  0.00  0.00    +0.000 A 
ATOM     25  C   UNL     1      -3.081  10.462  16.455  0.00  0.00    +0.000 A 
BRANCH  20  27
ATOM     26  C   UNL     1      -6.049  12.048  17.596  0.00  0.00    +0.000 C 
ATOM     27  O   UNL     1      -4.955  12.031  16.682  0.00  0.00    +0.000 OA
ENDBRANCH  20  27
ENDBRANCH  18  23
BRANCH  18  28
ATOM     28  C   UNL     1       0.072  10.081  20.318  0.00  0.00    +0.000 C 
ATOM     29  C   UNL     1       0.533   8.796  21.013  0.00  0.00    +0.000 C 
ATOM     30  C   UNL     1       1.049  11.218  20.656  0.00  0.00    +0.000 C 
ENDBRANCH  18  28
ENDBRANCH   1  19
TORSDOF 10
ENDMDL
MODEL 8
REMARK VINA RESULT:      -7.2      6.139      8.891
REMARK  Name = 
REMARK  14 active torsions:
REMARK  status: ('A' for Active; 'I' for Inactive)
REMARK    1  A    between atoms: C_1  and  O_2
REMARK    2  A    between atoms: O_2  and  C_3
REMARK    3  A    between atoms: C_6  and  C_7
REMARK    4  A    between atoms: C_7  and  C_25
REMARK    5  A    between atoms: C_8  and  C_9
REMARK    6  A    between atoms: C_10  and  C_11
REMARK    7  A    between atoms: N_13  and  C_14
REMARK    8  A    between atoms: C_14  and  C_15
REMARK    9  A    between atoms: C_14  and  C_16
REMARK   10  A    between atoms: C_16  and  C_17
REMARK   11  A    between atoms: C_17  and  C_18
REMARK   12  A    between atoms: C_18  and  C_19
REMARK   13  A    between atoms: C_25  and  C_26
REMARK   14  A    between atoms: C_25  and  C_27
REMARK                            x       y       z     vdW  Elec       q    Type
REMARK                         _______ _______ _______ _____ _____    ______ ____
ROOT
ATOM      1  C   UNL     1       1.440   8.681  18.394  0.00  0.00    +0.000 C 
ATOM      2  C   UNL     1       2.246   8.007  17.553  0.00  0.00    +0.000 C 
ENDROOT
BRANCH   2   3
ATOM      3  C   UNL     1       3.416   7.221  18.075  0.00  0.00    +0.000 C 
ATOM      4  O   UNL     1       3.421   6.711  19.187  0.00  0.00    +0.000 OA
ATOM      5  N   UNL     1       4.452   7.126  17.172  0.00  0.00    +0.000 N 
ATOM      6  H   UNL     1       4.330   7.559  16.267  0.00  0.00    +0.000 HD
BRANCH   5   7
ATOM      7  C   UNL     1       5.670   6.317  17.336  0.00  0.00    +0.000 C 
ATOM      8  C   UNL     1       6.935   7.179  17.351  0.00  0.00    +0.000 C 
BRANCH   7   9
ATOM      9  C   UNL     1       5.775   5.127  16.356  0.00  0.00    +0.000 C 
BRANCH   9  10
ATOM     10  C   UNL     1       4.699   4.029  16.536  0.00  0.00    +0.000 C 
BRANCH  10  11
ATOM     11  C   UNL     1       4.730   3.344  17.909  0.00  0.00    +0.000 C 
BRANCH  11  12
ATOM     12  C   UNL     1       3.386   3.298  18.589  0.00  0.00    +0.000 A 
ATOM     13  C   UNL     1       2.199   3.229  17.852  0.00  0.00    +0.000 A 
ATOM     14  C   UNL     1       0.975   3.146  18.512  0.00  0.00    +0.000 A 
ATOM     15  C   UNL     1       0.977   3.142  19.897  0.00  0.00    +0.000 A 
ATOM     16  N   UNL     1       2.098   3.221  20.644  0.00  0.00    +0.000 NA
ATOM     17  C   UNL     1       3.273   3.300  19.977  0.00  0.00    +0.000 A 
ENDBRANCH  11  12
ENDBRANCH  10  11
ENDBRANCH   9  10
ENDBRANCH   7   9
ENDBRANCH   5   7
ENDBRANCH   2   3
BRANCH   1  19
ATOM     18  C   UNL     1      -0.524  10.215  18.917  0.00  0.00    +0.000 C 
ATOM     19  C   UNL     1       0.248   9.471  18.095  0.00  0.00    +0.000 C 
BRANCH  18  23
ATOM     20  C   UNL     1      -4.276  11.695  17.360  0.00  0.00    +0.000 A 
ATOM     21  C   UNL     1      -3.433  10.918  16.563  0.00  0.00    +0.000 A 
ATOM     22  C   UNL     1      -2.202  10.460  17.060  0.00  0.00    +0.000 A 
ATOM     23  C   UNL     1      -1.790  10.776  18.364  0.00  0.00    +0.000 A 
ATOM     24  C   UNL     1      -2.617  11.601  19.135  0.00  0.00    +0.000 A 
ATOM     25  C   UNL     1      -3.851  12.056  18.635  0.00  0.00    +0.000 A 
BRANCH  20  27
ATOM     26  C   UNL     1      -6.325  12.865  17.584  0.00  0.00    +0.000 C 
ATOM     27  O   UNL     1      -5.453  12.080  16.775  0.00  0.00    +0.000 OA
ENDBRANCH  20  27
ENDBRANCH  18  23
BRANCH  18  28
ATOM     28  C   UNL     1      -0.251  10.468  20.397  0.00  0.00    +0.000 C 
ATOM     29  C   UNL     1      -0.127   9.152  21.171  0.00  0.00    +0.000 C 
ATOM     30  C   UNL     1       0.974  11.347  20.691  0.00  0.00    +0.000 C 
ENDBRANCH  18  28
ENDBRANCH   1  19
TORSDOF 10
ENDMDL
MODEL 9
REMARK VINA RESULT:      -7.2      6.094      8.814
REMARK  Name = 
REMARK  14 active torsions:
REMARK  status: ('A' for Active; 'I' for Inactive)
REMARK    1  A    between atoms: C_1  and  O_2
REMARK    2  A    between atoms: O_2  and  C_3
REMARK    3  A    between atoms: C_6  and  C_7
REMARK    4  A    between atoms: C_7  and  C_25
REMARK    5  A    between atoms: C_8  and  C_9
REMARK    6  A    between atoms: C_10  and  C_11
REMARK    7  A    between atoms: N_13  and  C_14
REMARK    8  A    between atoms: C_14  and  C_15
REMARK    9  A    between atoms: C_14  and  C_16
REMARK   10  A    between atoms: C_16  and  C_17
REMARK   11  A    between atoms: C_17  and  C_18
REMARK   12  A    between atoms: C_18  and  C_19
REMARK   13  A    between atoms: C_25  and  C_26
REMARK   14  A    between atoms: C_25  and  C_27
REMARK                            x       y       z     vdW  Elec       q    Type
REMARK                         _______ _______ _______ _____ _____    ______ ____
ROOT
ATOM      1  C   UNL     1       1.602   8.694  18.213  0.00  0.00    +0.000 C 
ATOM      2  C   UNL     1       2.176   7.643  17.599  0.00  0.00    +0.000 C 
ENDROOT
BRANCH   2   3
ATOM      3  C   UNL     1       3.488   7.092  18.084  0.00  0.00    +0.000 C 
ATOM      4  O   UNL     1       3.660   6.728  19.239  0.00  0.00    +0.000 OA
ATOM      5  N   UNL     1       4.447   7.025  17.097  0.00  0.00    +0.000 N 
ATOM      6  H   UNL     1       4.187   7.322  16.167  0.00  0.00    +0.000 HD
BRANCH   5   7
ATOM      7  C   UNL     1       5.779   6.413  17.227  0.00  0.00    +0.000 C 
ATOM      8  C   UNL     1       6.892   7.463  17.265  0.00  0.00    +0.000 C 
BRANCH   7   9
ATOM      9  C   UNL     1       6.060   5.289  16.205  0.00  0.00    +0.000 C 
BRANCH   9  10
ATOM     10  C   UNL     1       5.278   3.974  16.441  0.00  0.00    +0.000 C 
BRANCH  10  11
ATOM     11  C   UNL     1       5.132   3.592  17.920  0.00  0.00    +0.000 C 
BRANCH  11  12
ATOM     12  C   UNL     1       3.701   3.427  18.361  0.00  0.00    +0.000 A 
ATOM     13  C   UNL     1       2.636   3.750  17.514  0.00  0.00    +0.000 A 
ATOM     14  C   UNL     1       1.325   3.547  17.937  0.00  0.00    +0.000 A 
ATOM     15  C   UNL     1       1.118   3.032  19.206  0.00  0.00    +0.000 A 
ATOM     16  N   UNL     1       2.118   2.721  20.059  0.00  0.00    +0.000 NA
ATOM     17  C   UNL     1       3.382   2.928  19.621  0.00  0.00    +0.000 A 
ENDBRANCH  11  12
ENDBRANCH  10  11
ENDBRANCH   9  10
ENDBRANCH   7   9
ENDBRANCH   5   7
ENDBRANCH   2   3
BRANCH   1  19
ATOM     18  C   UNL     1      -0.282  10.371  18.562  0.00  0.00    +0.000 C 
ATOM     19  C   UNL     1       0.332   9.353  17.919  0.00  0.00    +0.000 C 
BRANCH  18  23
ATOM     20  C   UNL     1      -4.236  11.548  17.269  0.00  0.00    +0.000 A 
ATOM     21  C   UNL     1      -3.744  11.954  18.511  0.00  0.00    +0.000 A 
ATOM     22  C   UNL     1      -2.471  11.548  18.942  0.00  0.00    +0.000 A 
ATOM     23  C   UNL     1      -1.667  10.726  18.139  0.00  0.00    +0.000 A 
ATOM     24  C   UNL     1      -2.191  10.279  16.920  0.00  0.00    +0.000 A 
ATOM     25  C   UNL     1      -3.466  10.690  16.489  0.00  0.00    +0.000 A 
BRANCH  20  27
ATOM     26  C   UNL     1      -6.528  11.673  17.863  0.00  0.00    +0.000 C 
ATOM     27  O   UNL     1      -5.486  12.007  16.949  0.00  0.00    +0.000 OA
ENDBRANCH  20  27
ENDBRANCH  18  23
BRANCH  18  28
ATOM     28  C   UNL     1       0.292  11.144  19.745  0.00  0.00    +0.000 C 
ATOM     29  C   UNL     1       0.633  10.205  20.908  0.00  0.00    +0.000 C 
ATOM     30  C   UNL     1       1.516  12.014  19.422  0.00  0.00    +0.000 C 
ENDBRANCH  18  28
ENDBRANCH   1  19
TORSDOF 10
ENDMDL
