MODEL 1
REMARK VINA RESULT:      -7.8      0.000      0.000
REMARK  Name = 
REMARK  8 active torsions:
REMARK  status: ('A' for Active; 'I' for Inactive)
REMARK    1  A    between atoms: C_1  and  C_2
REMARK    2  A    between atoms: C_2  and  N_3
REMARK    3  A    between atoms: N_17  and  C_18
REMARK    4  A    between atoms: C_19  and  C_20
REMARK    5  A    between atoms: C_23  and  C_24
REMARK    6  A    between atoms: N_27  and  C_28
REMARK    7  A    between atoms: C_28  and  C_29
REMARK    8  A    between atoms: C_29  and  O_30
REMARK                            x       y       z     vdW  Elec       q    Type
REMARK                         _______ _______ _______ _____ _____    ______ ____
ROOT
ATOM      1  N   UNL     1       0.881  11.250  20.933  0.00  0.00    +0.000 N 
ATOM      2  C   UNL     1       0.543  10.278  21.823  0.00  0.00    +0.000 A 
ATOM      3  C   UNL     1       0.829   9.095  21.194  0.00  0.00    +0.000 A 
ATOM      4  C   UNL     1       1.375   9.446  19.934  0.00  0.00    +0.000 A 
ATOM      5  N   UNL     1       1.854   8.585  19.019  0.00  0.00    +0.000 N 
ATOM      6  C   UNL     1       2.135   7.226  19.129  0.00  0.00    +0.000 A 
ATOM      7  N   UNL     1       1.683   6.508  20.173  0.00  0.00    +0.000 NA
ATOM      8  C   UNL     1       1.967   5.197  20.226  0.00  0.00    +0.000 A 
ATOM      9  C   UNL     1       2.698   4.559  19.267  0.00  0.00    +0.000 A 
ATOM     10  C   UNL     1       3.225   5.403  18.301  0.00  0.00    +0.000 A 
ATOM     11  N   UNL     1       2.902   6.701  18.170  0.00  0.00    +0.000 NA
ATOM     12  C   UNL     1       4.175   4.812  17.377  0.00  0.00    +0.000 A 
ATOM     13  C   UNL     1       4.180   3.417  17.149  0.00  0.00    +0.000 A 
ATOM     14  N   UNL     1       5.261   3.002  16.496  0.00  0.00    +0.000 NA
ATOM     15  N   UNL     1       5.999   4.134  16.380  0.00  0.00    +0.000 N 
ATOM     16  C   UNL     1       7.282   4.045  15.720  0.00  0.00    +0.000 C 
ATOM     17  C   UNL     1       5.462   5.224  17.054  0.00  0.00    +0.000 A 
ATOM     18  C   UNL     1       3.189   2.535  17.827  0.00  0.00    +0.000 C 
ATOM     19  C   UNL     1       2.985   3.077  19.269  0.00  0.00    +0.000 C 
ATOM     20  N   UNL     1       1.381  10.777  19.776  0.00  0.00    +0.000 NA
ATOM     21  H   UNL     1       2.270   8.964  18.182  0.00  0.00    +0.000 HD
ENDROOT
BRANCH  17  22
ATOM     22  C   UNL     1       6.212   6.418  17.468  0.00  0.00    +0.000 A 
ATOM     23  C   UNL     1       7.332   6.313  18.299  0.00  0.00    +0.000 A 
ATOM     24  C   UNL     1       8.141   7.419  18.572  0.00  0.00    +0.000 A 
ATOM     25  C   UNL     1       7.791   8.679  18.088  0.00  0.00    +0.000 A 
ATOM     26  C   UNL     1       6.653   8.804  17.286  0.00  0.00    +0.000 A 
ATOM     27  C   UNL     1       5.895   7.681  16.951  0.00  0.00    +0.000 A 
BRANCH  25  28
ATOM     28  C   UNL     1       8.590   9.833  18.420  0.00  0.00    +0.000 A 
ATOM     29  C   UNL     1       9.360  10.148  19.565  0.00  0.00    +0.000 A 
ATOM     30  N   UNL     1       9.933  11.350  19.480  0.00  0.00    +0.000 NA
ATOM     31  N   UNL     1       9.524  11.811  18.282  0.00  0.00    +0.000 N 
ATOM     32  C   UNL     1       8.716  10.942  17.612  0.00  0.00    +0.000 A 
BRANCH  31  33
ATOM     33  C   UNL     1       9.982  13.098  17.798  0.00  0.00    +0.000 C 
BRANCH  33  34
ATOM     34  C   UNL     1      11.500  13.179  17.730  0.00  0.00    +0.000 C 
BRANCH  34  35
ATOM     35  O   UNL     1      12.072  11.937  17.327  0.00  0.00    +0.000 OA
ATOM     36  H   UNL     1      11.321  11.348  17.104  0.00  0.00    +0.000 HD
ENDBRANCH  34  35
ENDBRANCH  33  34
ENDBRANCH  31  33
ENDBRANCH  25  28
ENDBRANCH  17  22
BRANCH   1  38
ATOM     37  C   UNL     1      -0.377  12.996  22.122  0.00  0.00    +0.000 C 
ATOM     38  C   UNL     1       0.745  12.676  21.152  0.00  0.00    +0.000 C 
ENDBRANCH   1  38
TORSDOF 6
ENDMDL
MODEL 2
REMARK VINA RESULT:      -7.6      3.843     10.144
REMARK  Name = 
REMARK  8 active torsions:
REMARK  status: ('A' for Active; 'I' for Inactive)
REMARK    1  A    between atoms: C_1  and  C_2
REMARK    2  A    between atoms: C_2  and  N_3
REMARK    3  A    between atoms: N_17  and  C_18
REMARK    4  A    between atoms: C_19  and  C_20
REMARK    5  A    between atoms: C_23  and  C_24
REMARK    6  A    between atoms: N_27  and  C_28
REMARK    7  A    between atoms: C_28  and  C_29
REMARK    8  A    between atoms: C_29  and  O_30
REMARK                            x       y       z     vdW  Elec       q    Type
REMARK                         _______ _______ _______ _____ _____    ______ ____
ROOT
ATOM      1  N   UNL     1       6.851   7.103  17.739  0.00  0.00    +0.000 N 
ATOM      2  C   UNL     1       7.832   6.912  18.661  0.00  0.00    +0.000 A 
ATOM      3  C   UNL     1       8.569   8.067  18.650  0.00  0.00    +0.000 A 
ATOM      4  C   UNL     1       7.936   8.923  17.715  0.00  0.00    +0.000 A 
ATOM      5  N   UNL     1       8.296  10.189  17.441  0.00  0.00    +0.000 N 
ATOM      6  C   UNL     1       9.183  11.032  18.106  0.00  0.00    +0.000 A 
ATOM      7  N   UNL     1      10.041  10.548  19.023  0.00  0.00    +0.000 NA
ATOM      8  C   UNL     1      10.888  11.399  19.626  0.00  0.00    +0.000 A 
ATOM      9  C   UNL     1      10.916  12.735  19.351  0.00  0.00    +0.000 A 
ATOM     10  C   UNL     1       9.914  13.157  18.489  0.00  0.00    +0.000 A 
ATOM     11  N   UNL     1       9.101  12.332  17.809  0.00  0.00    +0.000 NA
ATOM     12  C   UNL     1       9.769  14.591  18.323  0.00  0.00    +0.000 A 
ATOM     13  C   UNL     1      10.852  15.458  18.597  0.00  0.00    +0.000 A 
ATOM     14  N   UNL     1      10.492  16.736  18.656  0.00  0.00    +0.000 NA
ATOM     15  N   UNL     1       9.145  16.678  18.502  0.00  0.00    +0.000 N 
ATOM     16  C   UNL     1       8.404  17.919  18.535  0.00  0.00    +0.000 C 
ATOM     17  C   UNL     1       8.639  15.385  18.473  0.00  0.00    +0.000 A 
ATOM     18  C   UNL     1      12.169  14.911  19.029  0.00  0.00    +0.000 C 
ATOM     19  C   UNL     1      11.894  13.705  19.969  0.00  0.00    +0.000 C 
ATOM     20  N   UNL     1       6.891   8.309  17.144  0.00  0.00    +0.000 NA
ATOM     21  H   UNL     1       7.729  10.716  16.794  0.00  0.00    +0.000 HD
ENDROOT
BRANCH  17  22
ATOM     22  C   UNL     1       7.244  15.014  18.748  0.00  0.00    +0.000 A 
ATOM     23  C   UNL     1       6.757  14.965  20.058  0.00  0.00    +0.000 A 
ATOM     24  C   UNL     1       5.400  14.766  20.323  0.00  0.00    +0.000 A 
ATOM     25  C   UNL     1       4.512  14.520  19.276  0.00  0.00    +0.000 A 
ATOM     26  C   UNL     1       4.992  14.530  17.963  0.00  0.00    +0.000 A 
ATOM     27  C   UNL     1       6.335  14.810  17.703  0.00  0.00    +0.000 A 
BRANCH  25  28
ATOM     28  C   UNL     1       3.121  14.253  19.550  0.00  0.00    +0.000 A 
ATOM     29  C   UNL     1       2.447  13.900  20.744  0.00  0.00    +0.000 A 
ATOM     30  N   UNL     1       1.139  13.714  20.555  0.00  0.00    +0.000 NA
ATOM     31  N   UNL     1       0.974  13.942  19.237  0.00  0.00    +0.000 N 
ATOM     32  C   UNL     1       2.130  14.263  18.592  0.00  0.00    +0.000 A 
BRANCH  31  33
ATOM     33  C   UNL     1      -0.346  13.879  18.644  0.00  0.00    +0.000 C 
BRANCH  33  34
ATOM     34  C   UNL     1      -0.781  12.448  18.359  0.00  0.00    +0.000 C 
BRANCH  34  35
ATOM     35  O   UNL     1      -1.598  12.373  17.192  0.00  0.00    +0.000 OA
ATOM     36  H   UNL     1      -1.617  13.277  16.812  0.00  0.00    +0.000 HD
ENDBRANCH  34  35
ENDBRANCH  33  34
ENDBRANCH  31  33
ENDBRANCH  25  28
ENDBRANCH  17  22
BRANCH   1  38
ATOM     37  C   UNL     1       5.118   6.505  16.099  0.00  0.00    +0.000 C 
ATOM     38  C   UNL     1       5.825   6.139  17.391  0.00  0.00    +0.000 C 
ENDBRANCH   1  38
TORSDOF 6
ENDMDL
MODEL 3
REMARK VINA RESULT:      -7.4      4.316      9.434
REMARK  Name = 
REMARK  8 active torsions:
REMARK  status: ('A' for Active; 'I' for Inactive)
REMARK    1  A    between atoms: C_1  and  C_2
REMARK    2  A    between atoms: C_2  and  N_3
REMARK    3  A    between atoms: N_17  and  C_18
REMARK    4  A    between atoms: C_19  and  C_20
REMARK    5  A    between atoms: C_23  and  C_24
REMARK    6  A    between atoms: N_27  and  C_28
REMARK    7  A    between atoms: C_28  and  C_29
REMARK    8  A    between atoms: C_29  and  O_30
REMARK                            x       y       z     vdW  Elec       q    Type
REMARK                         _______ _______ _______ _____ _____    ______ ____
ROOT
ATOM      1  N   UNL     1       6.313  11.850  25.642  0.00  0.00    +0.000 N 
ATOM      2  C   UNL     1       5.610  12.991  25.410  0.00  0.00    +0.000 A 
ATOM      3  C   UNL     1       6.374  13.714  24.533  0.00  0.00    +0.000 A 
ATOM      4  C   UNL     1       7.510  12.915  24.255  0.00  0.00    +0.000 A 
ATOM      5  N   UNL     1       8.490  13.218  23.386  0.00  0.00    +0.000 N 
ATOM      6  C   UNL     1       8.553  14.219  22.421  0.00  0.00    +0.000 A 
ATOM      7  N   UNL     1       7.674  15.237  22.422  0.00  0.00    +0.000 NA
ATOM      8  C   UNL     1       7.784  16.188  21.479  0.00  0.00    +0.000 A 
ATOM      9  C   UNL     1       8.751  16.165  20.516  0.00  0.00    +0.000 A 
ATOM     10  C   UNL     1       9.527  15.016  20.520  0.00  0.00    +0.000 A 
ATOM     11  N   UNL     1       9.499  14.084  21.487  0.00  0.00    +0.000 NA
ATOM     12  C   UNL     1      10.431  14.846  19.397  0.00  0.00    +0.000 A 
ATOM     13  C   UNL     1      10.859  15.963  18.644  0.00  0.00    +0.000 A 
ATOM     14  N   UNL     1      11.457  15.625  17.507  0.00  0.00    +0.000 NA
ATOM     15  N   UNL     1      11.334  14.274  17.490  0.00  0.00    +0.000 N 
ATOM     16  C   UNL     1      11.872  13.556  16.357  0.00  0.00    +0.000 C 
ATOM     17  C   UNL     1      10.564  13.768  18.530  0.00  0.00    +0.000 A 
ATOM     18  C   UNL     1      10.415  17.338  19.012  0.00  0.00    +0.000 C 
ATOM     19  C   UNL     1       8.937  17.247  19.480  0.00  0.00    +0.000 C 
ATOM     20  N   UNL     1       7.472  11.777  24.962  0.00  0.00    +0.000 NA
ATOM     21  H   UNL     1       9.219  12.537  23.233  0.00  0.00    +0.000 HD
ENDROOT
BRANCH  17  22
ATOM     22  C   UNL     1       9.910  12.452  18.539  0.00  0.00    +0.000 A 
ATOM     23  C   UNL     1       8.821  12.184  17.702  0.00  0.00    +0.000 A 
ATOM     24  C   UNL     1       8.291  10.896  17.589  0.00  0.00    +0.000 A 
ATOM     25  C   UNL     1       8.787   9.863  18.384  0.00  0.00    +0.000 A 
ATOM     26  C   UNL     1       9.851  10.126  19.251  0.00  0.00    +0.000 A 
ATOM     27  C   UNL     1      10.428  11.397  19.299  0.00  0.00    +0.000 A 
BRANCH  25  28
ATOM     28  C   UNL     1       8.201   8.547  18.315  0.00  0.00    +0.000 A 
ATOM     29  C   UNL     1       8.486   7.351  19.016  0.00  0.00    +0.000 A 
ATOM     30  N   UNL     1       7.714   6.335  18.626  0.00  0.00    +0.000 NA
ATOM     31  N   UNL     1       6.936   6.877  17.670  0.00  0.00    +0.000 N 
ATOM     32  C   UNL     1       7.192   8.196  17.444  0.00  0.00    +0.000 A 
BRANCH  31  33
ATOM     33  C   UNL     1       5.913   6.082  17.021  0.00  0.00    +0.000 C 
BRANCH  33  34
ATOM     34  C   UNL     1       5.266   5.088  17.975  0.00  0.00    +0.000 C 
BRANCH  34  35
ATOM     35  O   UNL     1       6.141   4.002  18.270  0.00  0.00    +0.000 OA
ATOM     36  H   UNL     1       6.384   4.093  19.215  0.00  0.00    +0.000 HD
ENDBRANCH  34  35
ENDBRANCH  33  34
ENDBRANCH  31  33
ENDBRANCH  25  28
ENDBRANCH  17  22
BRANCH   1  38
ATOM     37  C   UNL     1       4.796  11.204  27.467  0.00  0.00    +0.000 C 
ATOM     38  C   UNL     1       5.902  10.774  26.522  0.00  0.00    +0.000 C 
ENDBRANCH   1  38
TORSDOF 6
ENDMDL
MODEL 4
REMARK VINA RESULT:      -7.4      3.662     10.115
REMARK  Name = 
REMARK  8 active torsions:
REMARK  status: ('A' for Active; 'I' for Inactive)
REMARK    1  A    between atoms: C_1  and  C_2
REMARK    2  A    between atoms: C_2  and  N_3
REMARK    3  A    between atoms: N_17  and  C_18
REMARK    4  A    between atoms: C_19  and  C_20
REMARK    5  A    between atoms: C_23  and  C_24
REMARK    6  A    between atoms: N_27  and  C_28
REMARK    7  A    between atoms: C_28  and  C_29
REMARK    8  A    between atoms: C_29  and  O_30
REMARK                            x       y       z     vdW  Elec       q    Type
REMARK                         _______ _______ _______ _____ _____    ______ ____
ROOT
ATOM      1  N   UNL     1       6.851   7.115  17.723  0.00  0.00    +0.000 N 
ATOM      2  C   UNL     1       7.818   6.932  18.662  0.00  0.00    +0.000 A 
ATOM      3  C   UNL     1       8.543   8.095  18.667  0.00  0.00    +0.000 A 
ATOM      4  C   UNL     1       7.919   8.946  17.722  0.00  0.00    +0.000 A 
ATOM      5  N   UNL     1       8.271  10.217  17.458  0.00  0.00    +0.000 N 
ATOM      6  C   UNL     1       9.137  11.067  18.139  0.00  0.00    +0.000 A 
ATOM      7  N   UNL     1       9.983  10.590  19.070  0.00  0.00    +0.000 NA
ATOM      8  C   UNL     1      10.811  11.448  19.690  0.00  0.00    +0.000 A 
ATOM      9  C   UNL     1      10.830  12.785  19.418  0.00  0.00    +0.000 A 
ATOM     10  C   UNL     1       9.839  13.198  18.540  0.00  0.00    +0.000 A 
ATOM     11  N   UNL     1       9.047  12.366  17.844  0.00  0.00    +0.000 NA
ATOM     12  C   UNL     1       9.683  14.631  18.374  0.00  0.00    +0.000 A 
ATOM     13  C   UNL     1      10.752  15.509  18.668  0.00  0.00    +0.000 A 
ATOM     14  N   UNL     1      10.378  16.782  18.723  0.00  0.00    +0.000 NA
ATOM     15  N   UNL     1       9.035  16.712  18.546  0.00  0.00    +0.000 N 
ATOM     16  C   UNL     1       8.280  17.945  18.568  0.00  0.00    +0.000 C 
ATOM     17  C   UNL     1       8.542  15.414  18.505  0.00  0.00    +0.000 A 
ATOM     18  C   UNL     1      12.067  14.974  19.122  0.00  0.00    +0.000 C 
ATOM     19  C   UNL     1      11.787  13.763  20.055  0.00  0.00    +0.000 C 
ATOM     20  N   UNL     1       6.890   8.323  17.131  0.00  0.00    +0.000 NA
ATOM     21  H   UNL     1       7.709  10.739  16.801  0.00  0.00    +0.000 HD
ENDROOT
BRANCH  17  22
ATOM     22  C   UNL     1       7.146  15.028  18.755  0.00  0.00    +0.000 A 
ATOM     23  C   UNL     1       6.617  15.038  20.049  0.00  0.00    +0.000 A 
ATOM     24  C   UNL     1       5.256  14.824  20.281  0.00  0.00    +0.000 A 
ATOM     25  C   UNL     1       4.408  14.505  19.220  0.00  0.00    +0.000 A 
ATOM     26  C   UNL     1       4.932  14.455  17.925  0.00  0.00    +0.000 A 
ATOM     27  C   UNL     1       6.277  14.750  17.693  0.00  0.00    +0.000 A 
BRANCH  25  28
ATOM     28  C   UNL     1       3.015  14.222  19.463  0.00  0.00    +0.000 A 
ATOM     29  C   UNL     1       1.980  15.004  20.030  0.00  0.00    +0.000 A 
ATOM     30  N   UNL     1       0.821  14.346  20.096  0.00  0.00    +0.000 NA
ATOM     31  N   UNL     1       1.114  13.137  19.578  0.00  0.00    +0.000 N 
ATOM     32  C   UNL     1       2.414  13.013  19.189  0.00  0.00    +0.000 A 
BRANCH  31  33
ATOM     33  C   UNL     1       0.079  12.133  19.435  0.00  0.00    +0.000 C 
BRANCH  33  34
ATOM     34  C   UNL     1      -0.591  11.806  20.762  0.00  0.00    +0.000 C 
BRANCH  34  35
ATOM     35  O   UNL     1       0.330  11.888  21.847  0.00  0.00    +0.000 OA
ATOM     36  H   UNL     1       0.698  10.987  21.964  0.00  0.00    +0.000 HD
ENDBRANCH  34  35
ENDBRANCH  33  34
ENDBRANCH  31  33
ENDBRANCH  25  28
ENDBRANCH  17  22
BRANCH   1  38
ATOM     37  C   UNL     1       5.106   6.539  16.090  0.00  0.00    +0.000 C 
ATOM     38  C   UNL     1       5.842   6.142  17.355  0.00  0.00    +0.000 C 
ENDBRANCH   1  38
TORSDOF 6
ENDMDL
MODEL 5
REMARK VINA RESULT:      -7.3      1.184      1.626
REMARK  Name = 
REMARK  8 active torsions:
REMARK  status: ('A' for Active; 'I' for Inactive)
REMARK    1  A    between atoms: C_1  and  C_2
REMARK    2  A    between atoms: C_2  and  N_3
REMARK    3  A    between atoms: N_17  and  C_18
REMARK    4  A    between atoms: C_19  and  C_20
REMARK    5  A    between atoms: C_23  and  C_24
REMARK    6  A    between atoms: N_27  and  C_28
REMARK    7  A    between atoms: C_28  and  C_29
REMARK    8  A    between atoms: C_29  and  O_30
REMARK                            x       y       z     vdW  Elec       q    Type
REMARK                         _______ _______ _______ _____ _____    ______ ____
ROOT
ATOM      1  N   UNL     1       1.774  12.956  19.211  0.00  0.00    +0.000 N 
ATOM      2  C   UNL     1       1.152  12.221  20.171  0.00  0.00    +0.000 A 
ATOM      3  C   UNL     1       1.287  10.917  19.773  0.00  0.00    +0.000 A 
ATOM      4  C   UNL     1       2.041  10.952  18.575  0.00  0.00    +0.000 A 
ATOM      5  N   UNL     1       2.461   9.879  17.880  0.00  0.00    +0.000 N 
ATOM      6  C   UNL     1       2.466   8.532  18.229  0.00  0.00    +0.000 A 
ATOM      7  N   UNL     1       1.760   8.088  19.285  0.00  0.00    +0.000 NA
ATOM      8  C   UNL     1       1.784   6.776  19.573  0.00  0.00    +0.000 A 
ATOM      9  C   UNL     1       2.497   5.872  18.841  0.00  0.00    +0.000 A 
ATOM     10  C   UNL     1       3.289   6.439  17.855  0.00  0.00    +0.000 A 
ATOM     11  N   UNL     1       3.235   7.730  17.487  0.00  0.00    +0.000 NA
ATOM     12  C   UNL     1       4.219   5.549  17.184  0.00  0.00    +0.000 A 
ATOM     13  C   UNL     1       3.991   4.154  17.166  0.00  0.00    +0.000 A 
ATOM     14  N   UNL     1       5.047   3.461  16.754  0.00  0.00    +0.000 NA
ATOM     15  N   UNL     1       5.993   4.419  16.589  0.00  0.00    +0.000 N 
ATOM     16  C   UNL     1       7.309   4.008  16.154  0.00  0.00    +0.000 C 
ATOM     17  C   UNL     1       5.591   5.682  17.005  0.00  0.00    +0.000 A 
ATOM     18  C   UNL     1       2.775   3.578  17.806  0.00  0.00    +0.000 C 
ATOM     19  C   UNL     1       2.498   4.385  19.104  0.00  0.00    +0.000 C 
ATOM     20  N   UNL     1       2.317  12.215  18.226  0.00  0.00    +0.000 NA
ATOM     21  H   UNL     1       3.042  10.035  17.070  0.00  0.00    +0.000 HD
ENDROOT
BRANCH  17  22
ATOM     22  C   UNL     1       6.494   6.789  17.350  0.00  0.00    +0.000 A 
ATOM     23  C   UNL     1       6.263   8.083  16.870  0.00  0.00    +0.000 A 
ATOM     24  C   UNL     1       7.021   9.169  17.314  0.00  0.00    +0.000 A 
ATOM     25  C   UNL     1       8.091   8.966  18.184  0.00  0.00    +0.000 A 
ATOM     26  C   UNL     1       8.356   7.672  18.643  0.00  0.00    +0.000 A 
ATOM     27  C   UNL     1       7.543   6.604  18.258  0.00  0.00    +0.000 A 
BRANCH  25  28
ATOM     28  C   UNL     1       8.915  10.077  18.595  0.00  0.00    +0.000 A 
ATOM     29  C   UNL     1       9.646  10.318  19.784  0.00  0.00    +0.000 A 
ATOM     30  N   UNL     1      10.264  11.501  19.770  0.00  0.00    +0.000 NA
ATOM     31  N   UNL     1       9.925  12.022  18.575  0.00  0.00    +0.000 N 
ATOM     32  C   UNL     1       9.117  11.210  17.838  0.00  0.00    +0.000 A 
BRANCH  31  33
ATOM     33  C   UNL     1      10.449  13.308  18.163  0.00  0.00    +0.000 C 
BRANCH  33  34
ATOM     34  C   UNL     1      11.911  13.226  17.747  0.00  0.00    +0.000 C 
BRANCH  34  35
ATOM     35  O   UNL     1      12.325  11.875  17.557  0.00  0.00    +0.000 OA
ATOM     36  H   UNL     1      11.689  11.320  18.055  0.00  0.00    +0.000 HD
ENDBRANCH  34  35
ENDBRANCH  33  34
ENDBRANCH  31  33
ENDBRANCH  25  28
ENDBRANCH  17  22
BRANCH   1  38
ATOM     37  C   UNL     1       0.939  15.051  20.191  0.00  0.00    +0.000 C 
ATOM     38  C   UNL     1       1.882  14.401  19.196  0.00  0.00    +0.000 C 
ENDBRANCH   1  38
TORSDOF 6
ENDMDL
MODEL 6
REMARK VINA RESULT:      -7.2      0.932      1.052
REMARK  Name = 
REMARK  8 active torsions:
REMARK  status: ('A' for Active; 'I' for Inactive)
REMARK    1  A    between atoms: C_1  and  C_2
REMARK    2  A    between atoms: C_2  and  N_3
REMARK    3  A    between atoms: N_17  and  C_18
REMARK    4  A    between atoms: C_19  and  C_20
REMARK    5  A    between atoms: C_23  and  C_24
REMARK    6  A    between atoms: N_27  and  C_28
REMARK    7  A    between atoms: C_28  and  C_29
REMARK    8  A    between atoms: C_29  and  O_30
REMARK                            x       y       z     vdW  Elec       q    Type
REMARK                         _______ _______ _______ _____ _____    ______ ____
ROOT
ATOM      1  N   UNL     1       0.853  11.125  20.962  0.00  0.00    +0.000 N 
ATOM      2  C   UNL     1       0.542  10.149  21.857  0.00  0.00    +0.000 A 
ATOM      3  C   UNL     1       0.839   8.970  21.225  0.00  0.00    +0.000 A 
ATOM      4  C   UNL     1       1.362   9.329  19.958  0.00  0.00    +0.000 A 
ATOM      5  N   UNL     1       1.843   8.475  19.038  0.00  0.00    +0.000 N 
ATOM      6  C   UNL     1       2.146   7.120  19.145  0.00  0.00    +0.000 A 
ATOM      7  N   UNL     1       1.720   6.396  20.195  0.00  0.00    +0.000 NA
ATOM      8  C   UNL     1       2.025   5.089  20.246  0.00  0.00    +0.000 A 
ATOM      9  C   UNL     1       2.754   4.462  19.277  0.00  0.00    +0.000 A 
ATOM     10  C   UNL     1       3.254   5.314  18.304  0.00  0.00    +0.000 A 
ATOM     11  N   UNL     1       2.910   6.606  18.176  0.00  0.00    +0.000 NA
ATOM     12  C   UNL     1       4.202   4.737  17.368  0.00  0.00    +0.000 A 
ATOM     13  C   UNL     1       4.226   3.342  17.140  0.00  0.00    +0.000 A 
ATOM     14  N   UNL     1       5.304   2.944  16.473  0.00  0.00    +0.000 NA
ATOM     15  N   UNL     1       6.023   4.088  16.347  0.00  0.00    +0.000 N 
ATOM     16  C   UNL     1       7.298   4.019  15.671  0.00  0.00    +0.000 C 
ATOM     17  C   UNL     1       5.477   5.169  17.027  0.00  0.00    +0.000 A 
ATOM     18  C   UNL     1       3.258   2.445  17.832  0.00  0.00    +0.000 C 
ATOM     19  C   UNL     1       3.064   2.985  19.277  0.00  0.00    +0.000 C 
ATOM     20  N   UNL     1       1.345  10.659  19.799  0.00  0.00    +0.000 NA
ATOM     21  H   UNL     1       2.242   8.859  18.194  0.00  0.00    +0.000 HD
ENDROOT
BRANCH  17  22
ATOM     22  C   UNL     1       6.214   6.376  17.430  0.00  0.00    +0.000 A 
ATOM     23  C   UNL     1       7.336   6.291  18.261  0.00  0.00    +0.000 A 
ATOM     24  C   UNL     1       8.132   7.408  18.524  0.00  0.00    +0.000 A 
ATOM     25  C   UNL     1       7.766   8.660  18.030  0.00  0.00    +0.000 A 
ATOM     26  C   UNL     1       6.626   8.765  17.228  0.00  0.00    +0.000 A 
ATOM     27  C   UNL     1       5.881   7.630  16.904  0.00  0.00    +0.000 A 
BRANCH  25  28
ATOM     28  C   UNL     1       8.552   9.826  18.352  0.00  0.00    +0.000 A 
ATOM     29  C   UNL     1       9.551  10.049  19.330  0.00  0.00    +0.000 A 
ATOM     30  N   UNL     1      10.016  11.300  19.308  0.00  0.00    +0.000 NA
ATOM     31  N   UNL     1       9.310  11.883  18.320  0.00  0.00    +0.000 N 
ATOM     32  C   UNL     1       8.419  11.044  17.721  0.00  0.00    +0.000 A 
BRANCH  31  33
ATOM     33  C   UNL     1       9.564  13.261  17.954  0.00  0.00    +0.000 C 
BRANCH  33  34
ATOM     34  C   UNL     1       8.279  14.065  17.814  0.00  0.00    +0.000 C 
BRANCH  34  35
ATOM     35  O   UNL     1       8.539  15.389  17.354  0.00  0.00    +0.000 OA
ATOM     36  H   UNL     1       8.015  15.503  16.533  0.00  0.00    +0.000 HD
ENDBRANCH  34  35
ENDBRANCH  33  34
ENDBRANCH  31  33
ENDBRANCH  25  28
ENDBRANCH  17  22
BRANCH   1  38
ATOM     37  C   UNL     1      -0.350  13.154  20.266  0.00  0.00    +0.000 C 
ATOM     38  C   UNL     1       0.697  12.549  21.183  0.00  0.00    +0.000 C 
ENDBRANCH   1  38
TORSDOF 6
ENDMDL
MODEL 7
REMARK VINA RESULT:      -7.2      1.199      1.330
REMARK  Name = 
REMARK  8 active torsions:
REMARK  status: ('A' for Active; 'I' for Inactive)
REMARK    1  A    between atoms: C_1  and  C_2
REMARK    2  A    between atoms: C_2  and  N_3
REMARK    3  A    between atoms: N_17  and  C_18
REMARK    4  A    between atoms: C_19  and  C_20
REMARK    5  A    between atoms: C_23  and  C_24
REMARK    6  A    between atoms: N_27  and  C_28
REMARK    7  A    between atoms: C_28  and  C_29
REMARK    8  A    between atoms: C_29  and  O_30
REMARK                            x       y       z     vdW  Elec       q    Type
REMARK                         _______ _______ _______ _____ _____    ______ ____
ROOT
ATOM      1  N   UNL     1       1.340  12.396  19.968  0.00  0.00    +0.000 N 
ATOM      2  C   UNL     1       0.757  11.506  20.814  0.00  0.00    +0.000 A 
ATOM      3  C   UNL     1       0.990  10.274  20.262  0.00  0.00    +0.000 A 
ATOM      4  C   UNL     1       1.760  10.511  19.096  0.00  0.00    +0.000 A 
ATOM      5  N   UNL     1       2.266   9.565  18.285  0.00  0.00    +0.000 N 
ATOM      6  C   UNL     1       2.361   8.188  18.465  0.00  0.00    +0.000 A 
ATOM      7  N   UNL     1       1.672   7.568  19.440  0.00  0.00    +0.000 NA
ATOM      8  C   UNL     1       1.785   6.235  19.564  0.00  0.00    +0.000 A 
ATOM      9  C   UNL     1       2.572   5.480  18.744  0.00  0.00    +0.000 A 
ATOM     10  C   UNL     1       3.337   6.220  17.855  0.00  0.00    +0.000 A 
ATOM     11  N   UNL     1       3.197   7.540  17.648  0.00  0.00    +0.000 NA
ATOM     12  C   UNL     1       4.339   5.487  17.103  0.00  0.00    +0.000 A 
ATOM     13  C   UNL     1       4.211   4.093  16.907  0.00  0.00    +0.000 A 
ATOM     14  N   UNL     1       5.321   3.531  16.439  0.00  0.00    +0.000 NA
ATOM     15  N   UNL     1       6.198   4.565  16.417  0.00  0.00    +0.000 N 
ATOM     16  C   UNL     1       7.547   4.303  15.967  0.00  0.00    +0.000 C 
ATOM     17  C   UNL     1       5.700   5.735  16.976  0.00  0.00    +0.000 A 
ATOM     18  C   UNL     1       3.029   3.359  17.441  0.00  0.00    +0.000 C 
ATOM     19  C   UNL     1       2.675   3.976  18.822  0.00  0.00    +0.000 C 
ATOM     20  N   UNL     1       1.950  11.824  18.913  0.00  0.00    +0.000 NA
ATOM     21  H   UNL     1       2.847   9.860  17.515  0.00  0.00    +0.000 HD
ENDROOT
BRANCH  17  22
ATOM     22  C   UNL     1       6.517   6.850  17.477  0.00  0.00    +0.000 A 
ATOM     23  C   UNL     1       7.548   6.631  18.395  0.00  0.00    +0.000 A 
ATOM     24  C   UNL     1       8.427   7.654  18.759  0.00  0.00    +0.000 A 
ATOM     25  C   UNL     1       8.234   8.947  18.276  0.00  0.00    +0.000 A 
ATOM     26  C   UNL     1       7.184   9.188  17.385  0.00  0.00    +0.000 A 
ATOM     27  C   UNL     1       6.359   8.143  16.964  0.00  0.00    +0.000 A 
BRANCH  25  28
ATOM     28  C   UNL     1       9.102  10.020  18.698  0.00  0.00    +0.000 A 
ATOM     29  C   UNL     1       9.373  10.563  19.977  0.00  0.00    +0.000 A 
ATOM     30  N   UNL     1      10.234  11.581  19.925  0.00  0.00    +0.000 NA
ATOM     31  N   UNL     1      10.510  11.696  18.612  0.00  0.00    +0.000 N 
ATOM     32  C   UNL     1       9.854  10.787  17.837  0.00  0.00    +0.000 A 
BRANCH  31  33
ATOM     33  C   UNL     1      11.462  12.685  18.148  0.00  0.00    +0.000 C 
BRANCH  33  34
ATOM     34  C   UNL     1      10.794  14.010  17.806  0.00  0.00    +0.000 C 
BRANCH  34  35
ATOM     35  O   UNL     1       9.621  14.220  18.588  0.00  0.00    +0.000 OA
ATOM     36  H   UNL     1       9.727  13.674  19.394  0.00  0.00    +0.000 HD
ENDBRANCH  34  35
ENDBRANCH  33  34
ENDBRANCH  31  33
ENDBRANCH  25  28
ENDBRANCH  17  22
BRANCH   1  38
ATOM     37  C   UNL     1       0.822  14.552  18.902  0.00  0.00    +0.000 C 
ATOM     38  C   UNL     1       1.345  13.836  20.134  0.00  0.00    +0.000 C 
ENDBRANCH   1  38
TORSDOF 6
ENDMDL
MODEL 8
REMARK VINA RESULT:      -7.2      3.788     10.138
REMARK  Name = 
REMARK  8 active torsions:
REMARK  status: ('A' for Active; 'I' for Inactive)
REMARK    1  A    between atoms: C_1  and  C_2
REMARK    2  A    between atoms: C_2  and  N_3
REMARK    3  A    between atoms: N_17  and  C_18
REMARK    4  A    between atoms: C_19  and  C_20
REMARK    5  A    between atoms: C_23  and  C_24
REMARK    6  A    between atoms: N_27  and  C_28
REMARK    7  A    between atoms: C_28  and  C_29
REMARK    8  A    between atoms: C_29  and  O_30
REMARK                            x       y       z     vdW  Elec       q    Type
REMARK                         _______ _______ _______ _____ _____    ______ ____
ROOT
ATOM      1  N   UNL     1       6.878   7.071  17.665  0.00  0.00    +0.000 N 
ATOM      2  C   UNL     1       7.828   6.877  18.619  0.00  0.00    +0.000 A 
ATOM      3  C   UNL     1       8.565   8.032  18.636  0.00  0.00    +0.000 A 
ATOM      4  C   UNL     1       7.965   8.891  17.683  0.00  0.00    +0.000 A 
ATOM      5  N   UNL     1       8.334  10.158  17.426  0.00  0.00    +0.000 N 
ATOM      6  C   UNL     1       9.199  10.997  18.122  0.00  0.00    +0.000 A 
ATOM      7  N   UNL     1      10.025  10.511  19.065  0.00  0.00    +0.000 NA
ATOM      8  C   UNL     1      10.853  11.359  19.700  0.00  0.00    +0.000 A 
ATOM      9  C   UNL     1      10.890  12.696  19.429  0.00  0.00    +0.000 A 
ATOM     10  C   UNL     1       9.918  13.121  18.537  0.00  0.00    +0.000 A 
ATOM     11  N   UNL     1       9.127  12.299  17.827  0.00  0.00    +0.000 NA
ATOM     12  C   UNL     1       9.779  14.556  18.370  0.00  0.00    +0.000 A 
ATOM     13  C   UNL     1      10.853  15.421  18.683  0.00  0.00    +0.000 A 
ATOM     14  N   UNL     1      10.492  16.699  18.734  0.00  0.00    +0.000 NA
ATOM     15  N   UNL     1       9.151  16.643  18.536  0.00  0.00    +0.000 N 
ATOM     16  C   UNL     1       8.409  17.884  18.547  0.00  0.00    +0.000 C 
ATOM     17  C   UNL     1       8.645  15.350  18.485  0.00  0.00    +0.000 A 
ATOM     18  C   UNL     1      12.155  14.872  19.156  0.00  0.00    +0.000 C 
ATOM     19  C   UNL     1      11.847  13.663  20.083  0.00  0.00    +0.000 C 
ATOM     20  N   UNL     1       6.939   8.279  17.075  0.00  0.00    +0.000 NA
ATOM     21  H   UNL     1       7.789  10.687  16.762  0.00  0.00    +0.000 HD
ENDROOT
BRANCH  17  22
ATOM     22  C   UNL     1       7.241  14.979  18.712  0.00  0.00    +0.000 A 
ATOM     23  C   UNL     1       6.707  14.941  20.004  0.00  0.00    +0.000 A 
ATOM     24  C   UNL     1       5.341  14.742  20.221  0.00  0.00    +0.000 A 
ATOM     25  C   UNL     1       4.493  14.485  19.145  0.00  0.00    +0.000 A 
ATOM     26  C   UNL     1       5.020  14.484  17.851  0.00  0.00    +0.000 A 
ATOM     27  C   UNL     1       6.371  14.764  17.637  0.00  0.00    +0.000 A 
BRANCH  25  28
ATOM     28  C   UNL     1       3.093  14.217  19.370  0.00  0.00    +0.000 A 
ATOM     29  C   UNL     1       2.239  13.198  18.885  0.00  0.00    +0.000 A 
ATOM     30  N   UNL     1       0.986  13.331  19.324  0.00  0.00    +0.000 NA
ATOM     31  N   UNL     1       1.034  14.440  20.086  0.00  0.00    +0.000 N 
ATOM     32  C   UNL     1       2.271  15.008  20.142  0.00  0.00    +0.000 A 
BRANCH  31  33
ATOM     33  C   UNL     1      -0.149  14.896  20.789  0.00  0.00    +0.000 C 
BRANCH  33  34
ATOM     34  C   UNL     1      -0.931  15.927  19.987  0.00  0.00    +0.000 C 
BRANCH  34  35
ATOM     35  O   UNL     1      -0.788  15.716  18.584  0.00  0.00    +0.000 OA
ATOM     36  H   UNL     1      -1.688  15.790  18.202  0.00  0.00    +0.000 HD
ENDBRANCH  34  35
ENDBRANCH  33  34
ENDBRANCH  31  33
ENDBRANCH  25  28
ENDBRANCH  17  22
BRANCH   1  38
ATOM     37  C   UNL     1       4.485   6.736  17.211  0.00  0.00    +0.000 C 
ATOM     38  C   UNL     1       5.865   6.109  17.280  0.00  0.00    +0.000 C 
ENDBRANCH   1  38
TORSDOF 6
ENDMDL
MODEL 9
REMARK VINA RESULT:      -7.1      3.639      8.983
REMARK  Name = 
REMARK  8 active torsions:
REMARK  status: ('A' for Active; 'I' for Inactive)
REMARK    1  A    between atoms: C_1  and  C_2
REMARK    2  A    between atoms: C_2  and  N_3
REMARK    3  A    between atoms: N_17  and  C_18
REMARK    4  A    between atoms: C_19  and  C_20
REMARK    5  A    between atoms: C_23  and  C_24
REMARK    6  A    between atoms: N_27  and  C_28
REMARK    7  A    between atoms: C_28  and  C_29
REMARK    8  A    between atoms: C_29  and  O_30
REMARK                            x       y       z     vdW  Elec       q    Type
REMARK                         _______ _______ _______ _____ _____    ______ ____
ROOT
ATOM      1  N   UNL     1       1.479  13.258  20.685  0.00  0.00    +0.000 N 
ATOM      2  C   UNL     1       1.321  14.295  19.819  0.00  0.00    +0.000 A 
ATOM      3  C   UNL     1       2.528  14.943  19.804  0.00  0.00    +0.000 A 
ATOM      4  C   UNL     1       3.376  14.204  20.666  0.00  0.00    +0.000 A 
ATOM      5  N   UNL     1       4.678  14.456  20.891  0.00  0.00    +0.000 N 
ATOM      6  C   UNL     1       5.553  15.310  20.225  0.00  0.00    +0.000 A 
ATOM      7  N   UNL     1       5.094  16.244  19.373  0.00  0.00    +0.000 NA
ATOM      8  C   UNL     1       5.977  17.054  18.766  0.00  0.00    +0.000 A 
ATOM      9  C   UNL     1       7.323  16.970  18.975  0.00  0.00    +0.000 A 
ATOM     10  C   UNL     1       7.707  15.899  19.768  0.00  0.00    +0.000 A 
ATOM     11  N   UNL     1       6.856  15.117  20.451  0.00  0.00    +0.000 NA
ATOM     12  C   UNL     1       9.133  15.641  19.854  0.00  0.00    +0.000 A 
ATOM     13  C   UNL     1      10.066  16.669  19.586  0.00  0.00    +0.000 A 
ATOM     14  N   UNL     1      11.308  16.218  19.447  0.00  0.00    +0.000 NA
ATOM     15  N   UNL     1      11.156  14.874  19.542  0.00  0.00    +0.000 N 
ATOM     16  C   UNL     1      12.333  14.045  19.413  0.00  0.00    +0.000 C 
ATOM     17  C   UNL     1       9.831  14.464  19.614  0.00  0.00    +0.000 A 
ATOM     18  C   UNL     1       9.601  18.042  19.242  0.00  0.00    +0.000 C 
ATOM     19  C   UNL     1       8.334  17.902  18.353  0.00  0.00    +0.000 C 
ATOM     20  N   UNL     1       2.712  13.181  21.220  0.00  0.00    +0.000 NA
ATOM     21  H   UNL     1       5.190  13.820  21.484  0.00  0.00    +0.000 HD
ENDROOT
BRANCH  17  22
ATOM     22  C   UNL     1       9.342  13.115  19.295  0.00  0.00    +0.000 A 
ATOM     23  C   UNL     1       8.896  12.795  18.008  0.00  0.00    +0.000 A 
ATOM     24  C   UNL     1       8.577  11.483  17.654  0.00  0.00    +0.000 A 
ATOM     25  C   UNL     1       8.610  10.471  18.614  0.00  0.00    +0.000 A 
ATOM     26  C   UNL     1       9.019  10.784  19.913  0.00  0.00    +0.000 A 
ATOM     27  C   UNL     1       9.414  12.083  20.239  0.00  0.00    +0.000 A 
BRANCH  25  28
ATOM     28  C   UNL     1       8.221   9.126  18.267  0.00  0.00    +0.000 A 
ATOM     29  C   UNL     1       7.422   8.619  17.214  0.00  0.00    +0.000 A 
ATOM     30  N   UNL     1       7.287   7.292  17.270  0.00  0.00    +0.000 NA
ATOM     31  N   UNL     1       7.994   6.949  18.364  0.00  0.00    +0.000 N 
ATOM     32  C   UNL     1       8.568   8.010  18.996  0.00  0.00    +0.000 A 
BRANCH  31  33
ATOM     33  C   UNL     1       8.127   5.556  18.741  0.00  0.00    +0.000 C 
BRANCH  33  34
ATOM     34  C   UNL     1       7.291   4.639  17.858  0.00  0.00    +0.000 C 
BRANCH  34  35
ATOM     35  O   UNL     1       7.910   4.428  16.591  0.00  0.00    +0.000 OA
ATOM     36  H   UNL     1       8.155   5.315  16.254  0.00  0.00    +0.000 HD
ENDBRANCH  34  35
ENDBRANCH  33  34
ENDBRANCH  31  33
ENDBRANCH  25  28
ENDBRANCH  17  22
BRANCH   1  38
ATOM     37  C   UNL     1       0.327  11.200  19.989  0.00  0.00    +0.000 C 
ATOM     38  C   UNL     1       0.458  12.291  21.035  0.00  0.00    +0.000 C 
ENDBRANCH   1  38
TORSDOF 6
ENDMDL
