MODEL 1
REMARK VINA RESULT:      -6.2      0.000      0.000
REMARK  Name = 
REMARK  4 active torsions:
REMARK  status: ('A' for Active; 'I' for Inactive)
REMARK    1  A    between atoms: C_2  and  O_3
REMARK    2  A    between atoms: C_2  and  C_4
REMARK    3  A    between atoms: N_8  and  C_9
REMARK    4  A    between atoms: C_9  and  C_10
REMARK                            x       y       z     vdW  Elec       q    Type
REMARK                         _______ _______ _______ _____ _____    ______ ____
ROOT
ATOM      1  C   UNL     1       0.232  10.723  19.637  0.00  0.00    +0.000 C 
ATOM      2  C   UNL     1      -0.867  11.215  18.653  0.00  0.00    +0.000 C 
ATOM      3  C   UNL     1      -1.592  12.436  19.186  0.00  0.00    +0.000 C 
ATOM      4  C   UNL     1      -2.057  12.230  20.625  0.00  0.00    +0.000 C 
ATOM      5  N   UNL     1      -0.949  11.748  21.491  0.00  0.00    +0.000 NA
ATOM      6  C   UNL     1      -0.454  10.416  20.998  0.00  0.00    +0.000 C 
ATOM      7  C   UNL     1       0.525   9.620  21.882  0.00  0.00    +0.000 C 
ATOM      8  C   UNL     1       0.984   8.307  21.209  0.00  0.00    +0.000 C 
ATOM      9  N   UNL     1       1.499   8.524  19.868  0.00  0.00    +0.000 N 
ATOM     10  C   UNL     1       2.326   7.607  19.214  0.00  0.00    +0.000 A 
ATOM     11  C   UNL     1       2.644   6.331  19.685  0.00  0.00    +0.000 A 
ATOM     12  N   UNL     1       3.536   5.483  19.094  0.00  0.00    +0.000 NA
ATOM     13  C   UNL     1       4.131   5.957  17.982  0.00  0.00    +0.000 A 
ATOM     14  C   UNL     1       3.809   7.191  17.463  0.00  0.00    +0.000 A 
ATOM     15  N   UNL     1       2.905   8.004  18.052  0.00  0.00    +0.000 NA
ATOM     16  C   UNL     1       0.915   9.515  18.965  0.00  0.00    +0.000 C 
ENDROOT
BRANCH   1  18
ATOM     17  O   UNL     1       1.803  12.353  18.751  0.00  0.00    +0.000 OA
ATOM     18  C   UNL     1       1.331  11.811  19.728  0.00  0.00    +0.000 C 
BRANCH  18  19
ATOM     19  O   UNL     1       1.672  12.246  20.958  0.00  0.00    +0.000 OA
ATOM     20  H   UNL     1       1.578  11.492  21.582  0.00  0.00    +0.000 HD
ENDBRANCH  18  19
ENDBRANCH   1  18
BRANCH   5  21
ATOM     21  C   UNL     1      -1.263  11.984  22.912  0.00  0.00    +0.000 C 
BRANCH  21  22
ATOM     22  C   UNL     1      -1.326  13.497  23.162  0.00  0.00    +0.000 A 
ATOM     23  C   UNL     1      -0.419  14.480  22.790  0.00  0.00    +0.000 A 
ATOM     24  C   UNL     1      -0.884  15.802  23.051  0.00  0.00    +0.000 A 
ATOM     25  C   UNL     1      -2.116  15.799  23.663  0.00  0.00    +0.000 A 
ATOM     26  S   UNL     1      -2.691  14.208  23.935  0.00  0.00    +0.000 S 
ENDBRANCH  21  22
ENDBRANCH   5  21
TORSDOF 4
ENDMDL
MODEL 2
REMARK VINA RESULT:      -6.1      4.341      8.687
REMARK  Name = 
REMARK  4 active torsions:
REMARK  status: ('A' for Active; 'I' for Inactive)
REMARK    1  A    between atoms: C_2  and  O_3
REMARK    2  A    between atoms: C_2  and  C_4
REMARK    3  A    between atoms: N_8  and  C_9
REMARK    4  A    between atoms: C_9  and  C_10
REMARK                            x       y       z     vdW  Elec       q    Type
REMARK                         _______ _______ _______ _____ _____    ______ ____
ROOT
ATOM      1  C   UNL     1       2.315   5.499  19.035  0.00  0.00    +0.000 C 
ATOM      2  C   UNL     1       1.443   4.239  18.770  0.00  0.00    +0.000 C 
ATOM      3  C   UNL     1       2.252   3.118  18.145  0.00  0.00    +0.000 C 
ATOM      4  C   UNL     1       3.061   3.608  16.947  0.00  0.00    +0.000 C 
ATOM      5  N   UNL     1       3.852   4.821  17.285  0.00  0.00    +0.000 NA
ATOM      6  C   UNL     1       2.931   5.943  17.678  0.00  0.00    +0.000 C 
ATOM      7  C   UNL     1       3.519   7.358  17.835  0.00  0.00    +0.000 C 
ATOM      8  C   UNL     1       2.459   8.382  18.299  0.00  0.00    +0.000 C 
ATOM      9  N   UNL     1       1.748   7.941  19.487  0.00  0.00    +0.000 N 
ATOM     10  C   UNL     1       1.050   8.817  20.324  0.00  0.00    +0.000 A 
ATOM     11  C   UNL     1       0.825  10.171  20.064  0.00  0.00    +0.000 A 
ATOM     12  N   UNL     1       0.237  11.044  20.934  0.00  0.00    +0.000 NA
ATOM     13  C   UNL     1      -0.132  10.515  22.118  0.00  0.00    +0.000 A 
ATOM     14  C   UNL     1       0.033   9.176  22.391  0.00  0.00    +0.000 A 
ATOM     15  N   UNL     1       0.596   8.326  21.505  0.00  0.00    +0.000 NA
ATOM     16  C   UNL     1       1.394   6.539  19.704  0.00  0.00    +0.000 C 
ENDROOT
BRANCH   1  18
ATOM     17  O   UNL     1       3.190   4.301  20.960  0.00  0.00    +0.000 OA
ATOM     18  C   UNL     1       3.374   5.145  20.109  0.00  0.00    +0.000 C 
BRANCH  18  19
ATOM     19  O   UNL     1       4.587   5.723  19.999  0.00  0.00    +0.000 OA
ATOM     20  H   UNL     1       5.247   5.012  19.832  0.00  0.00    +0.000 HD
ENDBRANCH  18  19
ENDBRANCH   1  18
BRANCH   5  21
ATOM     21  C   UNL     1       4.944   5.013  16.312  0.00  0.00    +0.000 C 
BRANCH  21  22
ATOM     22  C   UNL     1       6.153   5.619  17.036  0.00  0.00    +0.000 A 
ATOM     23  C   UNL     1       6.618   6.927  17.012  0.00  0.00    +0.000 A 
ATOM     24  C   UNL     1       7.678   7.163  17.936  0.00  0.00    +0.000 A 
ATOM     25  C   UNL     1       8.034   6.019  18.610  0.00  0.00    +0.000 A 
ATOM     26  S   UNL     1       7.105   4.668  18.112  0.00  0.00    +0.000 S 
ENDBRANCH  21  22
ENDBRANCH   5  21
TORSDOF 4
ENDMDL
MODEL 3
REMARK VINA RESULT:      -5.7      4.350      8.866
REMARK  Name = 
REMARK  4 active torsions:
REMARK  status: ('A' for Active; 'I' for Inactive)
REMARK    1  A    between atoms: C_2  and  O_3
REMARK    2  A    between atoms: C_2  and  C_4
REMARK    3  A    between atoms: N_8  and  C_9
REMARK    4  A    between atoms: C_9  and  C_10
REMARK                            x       y       z     vdW  Elec       q    Type
REMARK                         _______ _______ _______ _____ _____    ______ ____
ROOT
ATOM      1  C   UNL     1       1.904   5.024  19.603  0.00  0.00    +0.000 C 
ATOM      2  C   UNL     1       0.900   3.836  19.642  0.00  0.00    +0.000 C 
ATOM      3  C   UNL     1       1.520   2.560  19.106  0.00  0.00    +0.000 C 
ATOM      4  C   UNL     1       2.202   2.787  17.759  0.00  0.00    +0.000 C 
ATOM      5  N   UNL     1       3.131   3.947  17.810  0.00  0.00    +0.000 NA
ATOM      6  C   UNL     1       2.369   5.203  18.131  0.00  0.00    +0.000 C 
ATOM      7  C   UNL     1       3.091   6.557  17.997  0.00  0.00    +0.000 C 
ATOM      8  C   UNL     1       2.193   7.741  18.419  0.00  0.00    +0.000 C 
ATOM      9  N   UNL     1       1.611   7.551  19.737  0.00  0.00    +0.000 N 
ATOM     10  C   UNL     1       1.107   8.604  20.505  0.00  0.00    +0.000 A 
ATOM     11  C   UNL     1       0.966   9.924  20.067  0.00  0.00    +0.000 A 
ATOM     12  N   UNL     1       0.575  10.968  20.856  0.00  0.00    +0.000 NA
ATOM     13  C   UNL     1       0.323  10.654  22.142  0.00  0.00    +0.000 A 
ATOM     14  C   UNL     1       0.408   9.358  22.598  0.00  0.00    +0.000 A 
ATOM     15  N   UNL     1       0.774   8.337  21.793  0.00  0.00    +0.000 NA
ATOM     16  C   UNL     1       1.171   6.238  20.208  0.00  0.00    +0.000 C 
ENDROOT
BRANCH   1  18
ATOM     17  O   UNL     1       2.950   3.944  21.513  0.00  0.00    +0.000 OA
ATOM     18  C   UNL     1       3.062   4.718  20.586  0.00  0.00    +0.000 C 
BRANCH  18  19
ATOM     19  O   UNL     1       4.268   5.250  20.308  0.00  0.00    +0.000 OA
ATOM     20  H   UNL     1       4.945   4.745  20.813  0.00  0.00    +0.000 HD
ENDBRANCH  18  19
ENDBRANCH   1  18
BRANCH   5  21
ATOM     21  C   UNL     1       4.096   3.884  16.696  0.00  0.00    +0.000 C 
BRANCH  21  22
ATOM     22  C   UNL     1       5.361   4.657  17.091  0.00  0.00    +0.000 A 
ATOM     23  C   UNL     1       6.237   4.417  18.140  0.00  0.00    +0.000 A 
ATOM     24  C   UNL     1       7.396   5.247  18.106  0.00  0.00    +0.000 A 
ATOM     25  C   UNL     1       7.355   6.139  17.061  0.00  0.00    +0.000 A 
ATOM     26  S   UNL     1       5.917   5.983  16.143  0.00  0.00    +0.000 S 
ENDBRANCH  21  22
ENDBRANCH   5  21
TORSDOF 4
ENDMDL
MODEL 4
REMARK VINA RESULT:      -5.7      0.856      1.160
REMARK  Name = 
REMARK  4 active torsions:
REMARK  status: ('A' for Active; 'I' for Inactive)
REMARK    1  A    between atoms: C_2  and  O_3
REMARK    2  A    between atoms: C_2  and  C_4
REMARK    3  A    between atoms: N_8  and  C_9
REMARK    4  A    between atoms: C_9  and  C_10
REMARK                            x       y       z     vdW  Elec       q    Type
REMARK                         _______ _______ _______ _____ _____    ______ ____
ROOT
ATOM      1  C   UNL     1       0.342  10.452  19.246  0.00  0.00    +0.000 C 
ATOM      2  C   UNL     1      -0.811  10.812  18.266  0.00  0.00    +0.000 C 
ATOM      3  C   UNL     1      -1.582  12.033  18.730  0.00  0.00    +0.000 C 
ATOM      4  C   UNL     1      -1.992  11.917  20.196  0.00  0.00    +0.000 C 
ATOM      5  N   UNL     1      -0.834  11.558  21.056  0.00  0.00    +0.000 NA
ATOM      6  C   UNL     1      -0.285  10.219  20.650  0.00  0.00    +0.000 C 
ATOM      7  C   UNL     1       0.760   9.544  21.557  0.00  0.00    +0.000 C 
ATOM      8  C   UNL     1       1.266   8.207  20.971  0.00  0.00    +0.000 C 
ATOM      9  N   UNL     1       1.727   8.344  19.600  0.00  0.00    +0.000 N 
ATOM     10  C   UNL     1       2.580   7.420  18.990  0.00  0.00    +0.000 A 
ATOM     11  C   UNL     1       2.979   6.202  19.545  0.00  0.00    +0.000 A 
ATOM     12  N   UNL     1       3.896   5.356  18.990  0.00  0.00    +0.000 NA
ATOM     13  C   UNL     1       4.430   5.771  17.825  0.00  0.00    +0.000 A 
ATOM     14  C   UNL     1       4.029   6.943  17.225  0.00  0.00    +0.000 A 
ATOM     15  N   UNL     1       3.102   7.754  17.781  0.00  0.00    +0.000 NA
ATOM     16  C   UNL     1       1.066   9.231  18.645  0.00  0.00    +0.000 C 
ENDROOT
BRANCH   1  18
ATOM     17  O   UNL     1       1.799  12.136  20.221  0.00  0.00    +0.000 OA
ATOM     18  C   UNL     1       1.384  11.598  19.216  0.00  0.00    +0.000 C 
BRANCH  18  19
ATOM     19  O   UNL     1       1.931  11.908  18.024  0.00  0.00    +0.000 OA
ATOM     20  H   UNL     1       1.641  11.229  17.373  0.00  0.00    +0.000 HD
ENDBRANCH  18  19
ENDBRANCH   1  18
BRANCH   5  21
ATOM     21  C   UNL     1      -1.116  11.889  22.466  0.00  0.00    +0.000 C 
BRANCH  21  22
ATOM     22  C   UNL     1      -1.263  13.411  22.599  0.00  0.00    +0.000 A 
ATOM     23  C   UNL     1      -2.326  14.141  23.114  0.00  0.00    +0.000 A 
ATOM     24  C   UNL     1      -2.046  15.535  23.226  0.00  0.00    +0.000 A 
ATOM     25  C   UNL     1      -0.796  15.846  22.747  0.00  0.00    +0.000 A 
ATOM     26  S   UNL     1       0.023  14.465  22.150  0.00  0.00    +0.000 S 
ENDBRANCH  21  22
ENDBRANCH   5  21
TORSDOF 4
ENDMDL
MODEL 5
REMARK VINA RESULT:      -5.7      4.760      9.401
REMARK  Name = 
REMARK  4 active torsions:
REMARK  status: ('A' for Active; 'I' for Inactive)
REMARK    1  A    between atoms: C_2  and  O_3
REMARK    2  A    between atoms: C_2  and  C_4
REMARK    3  A    between atoms: N_8  and  C_9
REMARK    4  A    between atoms: C_9  and  C_10
REMARK                            x       y       z     vdW  Elec       q    Type
REMARK                         _______ _______ _______ _____ _____    ______ ____
ROOT
ATOM      1  C   UNL     1       2.424   5.539  18.391  0.00  0.00    +0.000 C 
ATOM      2  C   UNL     1       1.451   4.472  17.810  0.00  0.00    +0.000 C 
ATOM      3  C   UNL     1       2.047   3.079  17.866  0.00  0.00    +0.000 C 
ATOM      4  C   UNL     1       3.461   3.047  17.291  0.00  0.00    +0.000 C 
ATOM      5  N   UNL     1       4.315   4.105  17.892  0.00  0.00    +0.000 NA
ATOM      6  C   UNL     1       3.749   5.462  17.581  0.00  0.00    +0.000 C 
ATOM      7  C   UNL     1       4.599   6.707  17.898  0.00  0.00    +0.000 C 
ATOM      8  C   UNL     1       3.854   8.021  17.577  0.00  0.00    +0.000 C 
ATOM      9  N   UNL     1       2.539   8.076  18.194  0.00  0.00    +0.000 N 
ATOM     10  C   UNL     1       1.844   9.271  18.398  0.00  0.00    +0.000 A 
ATOM     11  C   UNL     1       2.240  10.524  17.921  0.00  0.00    +0.000 A 
ATOM     12  N   UNL     1       1.614  11.701  18.215  0.00  0.00    +0.000 NA
ATOM     13  C   UNL     1       0.546  11.597  19.030  0.00  0.00    +0.000 A 
ATOM     14  C   UNL     1       0.101  10.376  19.483  0.00  0.00    +0.000 A 
ATOM     15  N   UNL     1       0.722   9.221  19.160  0.00  0.00    +0.000 NA
ATOM     16  C   UNL     1       1.690   6.892  18.314  0.00  0.00    +0.000 C 
ENDROOT
BRANCH   1  18
ATOM     17  O   UNL     1       1.691   4.927  20.626  0.00  0.00    +0.000 OA
ATOM     18  C   UNL     1       2.606   5.261  19.904  0.00  0.00    +0.000 C 
BRANCH  18  19
ATOM     19  O   UNL     1       3.863   5.276  20.390  0.00  0.00    +0.000 OA
ATOM     20  H   UNL     1       4.168   6.212  20.411  0.00  0.00    +0.000 HD
ENDBRANCH  18  19
ENDBRANCH   1  18
BRANCH   5  21
ATOM     21  C   UNL     1       5.742   3.792  17.690  0.00  0.00    +0.000 C 
BRANCH  21  22
ATOM     22  C   UNL     1       6.099   4.022  16.216  0.00  0.00    +0.000 A 
ATOM     23  C   UNL     1       5.523   3.463  15.083  0.00  0.00    +0.000 A 
ATOM     24  C   UNL     1       6.006   4.033  13.869  0.00  0.00    +0.000 A 
ATOM     25  C   UNL     1       6.977   4.978  14.098  0.00  0.00    +0.000 A 
ATOM     26  S   UNL     1       7.313   5.159  15.768  0.00  0.00    +0.000 S 
ENDBRANCH  21  22
ENDBRANCH   5  21
TORSDOF 4
ENDMDL
MODEL 6
REMARK VINA RESULT:      -5.6      1.253      1.701
REMARK  Name = 
REMARK  4 active torsions:
REMARK  status: ('A' for Active; 'I' for Inactive)
REMARK    1  A    between atoms: C_2  and  O_3
REMARK    2  A    between atoms: C_2  and  C_4
REMARK    3  A    between atoms: N_8  and  C_9
REMARK    4  A    between atoms: C_9  and  C_10
REMARK                            x       y       z     vdW  Elec       q    Type
REMARK                         _______ _______ _______ _____ _____    ______ ____
ROOT
ATOM      1  C   UNL     1       0.408  10.606  19.143  0.00  0.00    +0.000 C 
ATOM      2  C   UNL     1      -0.815  10.891  18.224  0.00  0.00    +0.000 C 
ATOM      3  C   UNL     1      -1.312  12.316  18.378  0.00  0.00    +0.000 C 
ATOM      4  C   UNL     1      -1.505  12.689  19.845  0.00  0.00    +0.000 C 
ATOM      5  N   UNL     1      -0.296  12.371  20.650  0.00  0.00    +0.000 NA
ATOM      6  C   UNL     1      -0.025  10.893  20.609  0.00  0.00    +0.000 C 
ATOM      7  C   UNL     1       1.034  10.311  21.564  0.00  0.00    +0.000 C 
ATOM      8  C   UNL     1       1.237   8.793  21.356  0.00  0.00    +0.000 C 
ATOM      9  N   UNL     1       1.498   8.456  19.967  0.00  0.00    +0.000 N 
ATOM     10  C   UNL     1       2.098   7.256  19.576  0.00  0.00    +0.000 A 
ATOM     11  C   UNL     1       2.389   6.187  20.427  0.00  0.00    +0.000 A 
ATOM     12  N   UNL     1       3.072   5.063  20.059  0.00  0.00    +0.000 NA
ATOM     13  C   UNL     1       3.478   5.031  18.774  0.00  0.00    +0.000 A 
ATOM     14  C   UNL     1       3.170   6.045  17.896  0.00  0.00    +0.000 A 
ATOM     15  N   UNL     1       2.472   7.137  18.276  0.00  0.00    +0.000 NA
ATOM     16  C   UNL     1       0.839   9.153  18.863  0.00  0.00    +0.000 C 
ENDROOT
BRANCH   1  18
ATOM     17  O   UNL     1       2.058  12.381  19.332  0.00  0.00    +0.000 OA
ATOM     18  C   UNL     1       1.594  11.481  18.665  0.00  0.00    +0.000 C 
BRANCH  18  19
ATOM     19  O   UNL     1       2.198  11.129  17.512  0.00  0.00    +0.000 OA
ATOM     20  H   UNL     1       2.689  11.914  17.177  0.00  0.00    +0.000 HD
ENDBRANCH  18  19
ENDBRANCH   1  18
BRANCH   5  21
ATOM     21  C   UNL     1      -0.306  13.126  21.917  0.00  0.00    +0.000 C 
BRANCH  21  22
ATOM     22  C   UNL     1      -1.701  13.022  22.547  0.00  0.00    +0.000 A 
ATOM     23  C   UNL     1      -2.303  11.927  23.153  0.00  0.00    +0.000 A 
ATOM     24  C   UNL     1      -3.549  12.242  23.770  0.00  0.00    +0.000 A 
ATOM     25  C   UNL     1      -3.896  13.559  23.579  0.00  0.00    +0.000 A 
ATOM     26  S   UNL     1      -2.732  14.398  22.643  0.00  0.00    +0.000 S 
ENDBRANCH  21  22
ENDBRANCH   5  21
TORSDOF 4
ENDMDL
MODEL 7
REMARK VINA RESULT:      -5.5      1.362      1.684
REMARK  Name = 
REMARK  4 active torsions:
REMARK  status: ('A' for Active; 'I' for Inactive)
REMARK    1  A    between atoms: C_2  and  O_3
REMARK    2  A    between atoms: C_2  and  C_4
REMARK    3  A    between atoms: N_8  and  C_9
REMARK    4  A    between atoms: C_9  and  C_10
REMARK                            x       y       z     vdW  Elec       q    Type
REMARK                         _______ _______ _______ _____ _____    ______ ____
ROOT
ATOM      1  C   UNL     1       0.171  11.223  19.985  0.00  0.00    +0.000 C 
ATOM      2  C   UNL     1      -0.852  11.759  18.942  0.00  0.00    +0.000 C 
ATOM      3  C   UNL     1      -1.342  13.149  19.301  0.00  0.00    +0.000 C 
ATOM      4  C   UNL     1      -1.800  13.227  20.755  0.00  0.00    +0.000 C 
ATOM      5  N   UNL     1      -0.769  12.683  21.678  0.00  0.00    +0.000 NA
ATOM      6  C   UNL     1      -0.523  11.231  21.376  0.00  0.00    +0.000 C 
ATOM      7  C   UNL     1       0.326  10.407  22.362  0.00  0.00    +0.000 C 
ATOM      8  C   UNL     1       0.536   8.954  21.879  0.00  0.00    +0.000 C 
ATOM      9  N   UNL     1       1.046   8.891  20.520  0.00  0.00    +0.000 N 
ATOM     10  C   UNL     1       1.685   7.763  19.999  0.00  0.00    +0.000 A 
ATOM     11  C   UNL     1       1.791   6.528  20.644  0.00  0.00    +0.000 A 
ATOM     12  N   UNL     1       2.509   5.465  20.177  0.00  0.00    +0.000 NA
ATOM     13  C   UNL     1       3.148   5.671  19.008  0.00  0.00    +0.000 A 
ATOM     14  C   UNL     1       3.030   6.859  18.323  0.00  0.00    +0.000 A 
ATOM     15  N   UNL     1       2.294   7.889  18.793  0.00  0.00    +0.000 NA
ATOM     16  C   UNL     1       0.618   9.835  19.488  0.00  0.00    +0.000 C 
ENDROOT
BRANCH   1  18
ATOM     17  O   UNL     1       1.950  12.453  18.877  0.00  0.00    +0.000 OA
ATOM     18  C   UNL     1       1.442  12.106  19.922  0.00  0.00    +0.000 C 
BRANCH  18  19
ATOM     19  O   UNL     1       1.913  12.600  21.084  0.00  0.00    +0.000 OA
ATOM     20  H   UNL     1       1.429  13.435  21.277  0.00  0.00    +0.000 HD
ENDBRANCH  18  19
ENDBRANCH   1  18
BRANCH   5  21
ATOM     21  C   UNL     1      -1.002  13.165  23.053  0.00  0.00    +0.000 C 
BRANCH  21  22
ATOM     22  C   UNL     1      -2.513  13.258  23.298  0.00  0.00    +0.000 A 
ATOM     23  C   UNL     1      -3.411  12.244  23.603  0.00  0.00    +0.000 A 
ATOM     24  C   UNL     1      -4.715  12.725  23.921  0.00  0.00    +0.000 A 
ATOM     25  C   UNL     1      -4.798  14.092  23.802  0.00  0.00    +0.000 A 
ATOM     26  S   UNL     1      -3.316  14.782  23.292  0.00  0.00    +0.000 S 
ENDBRANCH  21  22
ENDBRANCH   5  21
TORSDOF 4
ENDMDL
MODEL 8
REMARK VINA RESULT:      -5.4      3.144      4.806
REMARK  Name = 
REMARK  4 active torsions:
REMARK  status: ('A' for Active; 'I' for Inactive)
REMARK    1  A    between atoms: C_2  and  O_3
REMARK    2  A    between atoms: C_2  and  C_4
REMARK    3  A    between atoms: N_8  and  C_9
REMARK    4  A    between atoms: C_9  and  C_10
REMARK                            x       y       z     vdW  Elec       q    Type
REMARK                         _______ _______ _______ _____ _____    ______ ____
ROOT
ATOM      1  C   UNL     1      -1.555  12.771  22.099  0.00  0.00    +0.000 C 
ATOM      2  C   UNL     1      -0.817  13.814  22.986  0.00  0.00    +0.000 C 
ATOM      3  C   UNL     1      -1.788  14.641  23.807  0.00  0.00    +0.000 C 
ATOM      4  C   UNL     1      -2.915  15.206  22.945  0.00  0.00    +0.000 C 
ATOM      5  N   UNL     1      -3.554  14.145  22.123  0.00  0.00    +0.000 NA
ATOM      6  C   UNL     1      -2.545  13.544  21.183  0.00  0.00    +0.000 C 
ATOM      7  C   UNL     1      -3.042  12.598  20.074  0.00  0.00    +0.000 C 
ATOM      8  C   UNL     1      -1.881  12.020  19.235  0.00  0.00    +0.000 C 
ATOM      9  N   UNL     1      -0.850  11.414  20.061  0.00  0.00    +0.000 N 
ATOM     10  C   UNL     1       0.076  10.493  19.566  0.00  0.00    +0.000 A 
ATOM     11  C   UNL     1       0.228  10.147  18.221  0.00  0.00    +0.000 A 
ATOM     12  N   UNL     1       1.060   9.168  17.757  0.00  0.00    +0.000 NA
ATOM     13  C   UNL     1       1.762   8.514  18.704  0.00  0.00    +0.000 A 
ATOM     14  C   UNL     1       1.672   8.858  20.034  0.00  0.00    +0.000 A 
ATOM     15  N   UNL     1       0.859   9.846  20.467  0.00  0.00    +0.000 NA
ATOM     16  C   UNL     1      -0.464  11.976  21.355  0.00  0.00    +0.000 C 
ENDROOT
BRANCH   1  18
ATOM     17  O   UNL     1      -1.682  10.753  23.447  0.00  0.00    +0.000 OA
ATOM     18  C   UNL     1      -2.246  11.741  23.027  0.00  0.00    +0.000 C 
BRANCH  18  19
ATOM     19  O   UNL     1      -3.483  12.039  23.472  0.00  0.00    +0.000 OA
ATOM     20  H   UNL     1      -3.994  11.200  23.529  0.00  0.00    +0.000 HD
ENDBRANCH  18  19
ENDBRANCH   1  18
BRANCH   5  21
ATOM     21  C   UNL     1      -4.885  14.581  21.662  0.00  0.00    +0.000 C 
BRANCH  21  22
ATOM     22  C   UNL     1      -5.958  13.864  22.492  0.00  0.00    +0.000 A 
ATOM     23  C   UNL     1      -6.410  14.158  23.771  0.00  0.00    +0.000 A 
ATOM     24  C   UNL     1      -7.533  13.372  24.164  0.00  0.00    +0.000 A 
ATOM     25  C   UNL     1      -7.882  12.459  23.197  0.00  0.00    +0.000 A 
ATOM     26  S   UNL     1      -6.846  12.542  21.835  0.00  0.00    +0.000 S 
ENDBRANCH  21  22
ENDBRANCH   5  21
TORSDOF 4
ENDMDL
MODEL 9
REMARK VINA RESULT:      -5.3      4.249      7.005
REMARK  Name = 
REMARK  4 active torsions:
REMARK  status: ('A' for Active; 'I' for Inactive)
REMARK    1  A    between atoms: C_2  and  O_3
REMARK    2  A    between atoms: C_2  and  C_4
REMARK    3  A    between atoms: N_8  and  C_9
REMARK    4  A    between atoms: C_9  and  C_10
REMARK                            x       y       z     vdW  Elec       q    Type
REMARK                         _______ _______ _______ _____ _____    ______ ____
ROOT
ATOM      1  C   UNL     1       2.816   4.185  18.335  0.00  0.00    +0.000 C 
ATOM      2  C   UNL     1       2.275   2.804  18.802  0.00  0.00    +0.000 C 
ATOM      3  C   UNL     1       1.160   2.952  19.820  0.00  0.00    +0.000 C 
ATOM      4  C   UNL     1       1.549   3.908  20.945  0.00  0.00    +0.000 C 
ATOM      5  N   UNL     1       2.066   5.195  20.409  0.00  0.00    +0.000 NA
ATOM      6  C   UNL     1       3.307   4.952  19.596  0.00  0.00    +0.000 C 
ATOM      7  C   UNL     1       4.144   6.165  19.147  0.00  0.00    +0.000 C 
ATOM      8  C   UNL     1       5.348   5.752  18.272  0.00  0.00    +0.000 C 
ATOM      9  N   UNL     1       4.957   4.906  17.158  0.00  0.00    +0.000 N 
ATOM     10  C   UNL     1       5.751   4.730  16.021  0.00  0.00    +0.000 A 
ATOM     11  C   UNL     1       7.054   5.211  15.867  0.00  0.00    +0.000 A 
ATOM     12  N   UNL     1       7.783   5.129  14.715  0.00  0.00    +0.000 NA
ATOM     13  C   UNL     1       7.157   4.535  13.680  0.00  0.00    +0.000 A 
ATOM     14  C   UNL     1       5.892   4.009  13.808  0.00  0.00    +0.000 A 
ATOM     15  N   UNL     1       5.198   4.081  14.965  0.00  0.00    +0.000 NA
ATOM     16  C   UNL     1       3.904   3.899  17.281  0.00  0.00    +0.000 C 
ENDROOT
BRANCH   1  18
ATOM     17  O   UNL     1       0.743   4.337  17.074  0.00  0.00    +0.000 OA
ATOM     18  C   UNL     1       1.688   4.918  17.565  0.00  0.00    +0.000 C 
BRANCH  18  19
ATOM     19  O   UNL     1       1.714   6.265  17.561  0.00  0.00    +0.000 OA
ATOM     20  H   UNL     1       2.649   6.549  17.441  0.00  0.00    +0.000 HD
ENDBRANCH  18  19
ENDBRANCH   1  18
BRANCH   5  21
ATOM     21  C   UNL     1       2.005   6.246  21.442  0.00  0.00    +0.000 C 
BRANCH  21  22
ATOM     22  C   UNL     1       1.459   7.532  20.811  0.00  0.00    +0.000 A 
ATOM     23  C   UNL     1       1.870   8.177  19.652  0.00  0.00    +0.000 A 
ATOM     24  C   UNL     1       1.024   9.264  19.284  0.00  0.00    +0.000 A 
ATOM     25  C   UNL     1       0.015   9.459  20.197  0.00  0.00    +0.000 A 
ATOM     26  S   UNL     1       0.105   8.347  21.497  0.00  0.00    +0.000 S 
ENDBRANCH  21  22
ENDBRANCH   5  21
TORSDOF 4
ENDMDL
