MODEL 1
REMARK VINA RESULT:      -7.2      0.000      0.000
REMARK  Name = 
REMARK  11 active torsions:
REMARK  status: ('A' for Active; 'I' for Inactive)
REMARK    1  A    between atoms: C_1  and  N_2
REMARK    2  A    between atoms: N_2  and  C_3
REMARK    3  A    between atoms: N_2  and  C_21
REMARK    4  A    between atoms: C_3  and  C_4
REMARK    5  A    between atoms: C_4  and  C_5
REMARK    6  A    between atoms: C_5  and  C_6
REMARK    7  A    between atoms: C_6  and  C_7
REMARK    8  A    between atoms: C_7  and  C_8
REMARK    9  A    between atoms: C_8  and  C_9
REMARK   10  A    between atoms: C_9  and  N_10
REMARK   11  A    between atoms: C_21  and  C_22
REMARK                            x       y       z     vdW  Elec       q    Type
REMARK                         _______ _______ _______ _____ _____    ______ ____
ROOT
ATOM      1  C   UNL     1       4.717   7.418  17.169  0.00  0.00    +0.000 C 
ENDROOT
BRANCH   1   2
ATOM      2  C   UNL     1       3.262   7.025  17.444  0.00  0.00    +0.000 C 
BRANCH   2   3
ATOM      3  C   UNL     1       2.589   7.843  18.553  0.00  0.00    +0.000 C 
BRANCH   3   4
ATOM      4  C   UNL     1       1.830   9.044  17.972  0.00  0.00    +0.000 C 
BRANCH   4   6
ATOM      5  C   UNL     1      -0.431   9.899  17.891  0.00  0.00    +0.000 C 
ATOM      6  N   UNL     1       0.675   9.501  18.763  0.00  0.00    +0.000 NA
BRANCH   6   7
ATOM      7  C   UNL     1       1.070  10.651  19.618  0.00  0.00    +0.000 C 
BRANCH   7   8
ATOM      8  C   UNL     1       0.287  10.759  20.910  0.00  0.00    +0.000 A 
ATOM      9  C   UNL     1      -0.666  11.770  21.102  0.00  0.00    +0.000 A 
ATOM     10  C   UNL     1      -1.438  11.805  22.268  0.00  0.00    +0.000 A 
ATOM     11  C   UNL     1      -1.265  10.835  23.255  0.00  0.00    +0.000 A 
ATOM     12  C   UNL     1      -0.312   9.835  23.084  0.00  0.00    +0.000 A 
ATOM     13  C   UNL     1       0.456   9.806  21.922  0.00  0.00    +0.000 A 
ATOM     14  F   UNL     1       1.351   8.819  21.773  0.00  0.00    +0.000 F 
ENDBRANCH   7   8
ENDBRANCH   6   7
ENDBRANCH   4   6
ENDBRANCH   3   4
ENDBRANCH   2   3
ENDBRANCH   1   2
BRANCH   1  15
ATOM     15  C   UNL     1       5.591   6.194  16.908  0.00  0.00    +0.000 C 
BRANCH  15  16
ATOM     16  C   UNL     1       4.884   5.190  16.013  0.00  0.00    +0.000 C 
BRANCH  16  17
ATOM     17  C   UNL     1       5.104   3.770  16.529  0.00  0.00    +0.000 C 
BRANCH  17  18
ATOM     18  N   UNL     1       4.208   3.487  17.627  0.00  0.00    +0.000 N 
ATOM     19  C   UNL     1       4.586   3.560  18.937  0.00  0.00    +0.000 C 
ATOM     20  O   UNL     1       5.687   3.761  19.416  0.00  0.00    +0.000 OA
ATOM     21  C   UNL     1       3.370   3.384  19.725  0.00  0.00    +0.000 A 
ATOM     22  C   UNL     1       3.186   3.395  21.093  0.00  0.00    +0.000 A 
ATOM     23  C   UNL     1       1.877   3.246  21.558  0.00  0.00    +0.000 A 
ATOM     24  C   UNL     1       0.800   3.093  20.657  0.00  0.00    +0.000 A 
ATOM     25  C   UNL     1       1.015   3.089  19.275  0.00  0.00    +0.000 A 
ATOM     26  C   UNL     1       2.315   3.238  18.841  0.00  0.00    +0.000 A 
ATOM     27  C   UNL     1       2.853   3.323  17.491  0.00  0.00    +0.000 C 
ATOM     28  O   UNL     1       2.180   3.286  16.475  0.00  0.00    +0.000 OA
ENDBRANCH  17  18
ENDBRANCH  16  17
ENDBRANCH  15  16
ENDBRANCH   1  15
TORSDOF 10
ENDMDL
MODEL 2
REMARK VINA RESULT:      -7.1      2.118      4.336
REMARK  Name = 
REMARK  11 active torsions:
REMARK  status: ('A' for Active; 'I' for Inactive)
REMARK    1  A    between atoms: C_1  and  N_2
REMARK    2  A    between atoms: N_2  and  C_3
REMARK    3  A    between atoms: N_2  and  C_21
REMARK    4  A    between atoms: C_3  and  C_4
REMARK    5  A    between atoms: C_4  and  C_5
REMARK    6  A    between atoms: C_5  and  C_6
REMARK    7  A    between atoms: C_6  and  C_7
REMARK    8  A    between atoms: C_7  and  C_8
REMARK    9  A    between atoms: C_8  and  C_9
REMARK   10  A    between atoms: C_9  and  N_10
REMARK   11  A    between atoms: C_21  and  C_22
REMARK                            x       y       z     vdW  Elec       q    Type
REMARK                         _______ _______ _______ _____ _____    ______ ____
ROOT
ATOM      1  C   UNL     1       1.410   5.579  19.878  0.00  0.00    +0.000 C 
ENDROOT
BRANCH   1   2
ATOM      2  C   UNL     1       2.559   6.555  19.606  0.00  0.00    +0.000 C 
BRANCH   2   3
ATOM      3  C   UNL     1       2.181   7.736  18.702  0.00  0.00    +0.000 C 
BRANCH   3   4
ATOM      4  C   UNL     1       1.508   8.855  19.508  0.00  0.00    +0.000 C 
BRANCH   4   6
ATOM      5  C   UNL     1       1.573  11.111  18.639  0.00  0.00    +0.000 C 
ATOM      6  N   UNL     1       0.803   9.869  18.708  0.00  0.00    +0.000 NA
BRANCH   6   7
ATOM      7  C   UNL     1      -0.531  10.147  19.304  0.00  0.00    +0.000 C 
BRANCH   7   8
ATOM      8  C   UNL     1      -1.616  10.432  18.286  0.00  0.00    +0.000 A 
ATOM      9  C   UNL     1      -1.680   9.728  17.074  0.00  0.00    +0.000 A 
ATOM     10  C   UNL     1      -2.736   9.946  16.183  0.00  0.00    +0.000 A 
ATOM     11  C   UNL     1      -3.736  10.868  16.489  0.00  0.00    +0.000 A 
ATOM     12  C   UNL     1      -3.676  11.585  17.682  0.00  0.00    +0.000 A 
ATOM     13  C   UNL     1      -2.621  11.366  18.564  0.00  0.00    +0.000 A 
ATOM     14  F   UNL     1      -2.600  12.052  19.716  0.00  0.00    +0.000 F 
ENDBRANCH   7   8
ENDBRANCH   6   7
ENDBRANCH   4   6
ENDBRANCH   3   4
ENDBRANCH   2   3
ENDBRANCH   1   2
BRANCH   1  15
ATOM     15  C   UNL     1       1.887   4.344  20.637  0.00  0.00    +0.000 C 
BRANCH  15  16
ATOM     16  C   UNL     1       1.382   3.066  19.988  0.00  0.00    +0.000 C 
BRANCH  16  17
ATOM     17  C   UNL     1       2.550   2.251  19.438  0.00  0.00    +0.000 C 
BRANCH  17  18
ATOM     18  N   UNL     1       3.449   3.099  18.688  0.00  0.00    +0.000 N 
ATOM     19  C   UNL     1       4.708   3.411  19.112  0.00  0.00    +0.000 C 
ATOM     20  O   UNL     1       5.259   3.149  20.166  0.00  0.00    +0.000 OA
ATOM     21  C   UNL     1       5.347   4.124  18.010  0.00  0.00    +0.000 A 
ATOM     22  C   UNL     1       6.623   4.640  17.903  0.00  0.00    +0.000 A 
ATOM     23  C   UNL     1       6.966   5.236  16.688  0.00  0.00    +0.000 A 
ATOM     24  C   UNL     1       6.040   5.300  15.623  0.00  0.00    +0.000 A 
ATOM     25  C   UNL     1       4.754   4.766  15.758  0.00  0.00    +0.000 A 
ATOM     26  C   UNL     1       4.439   4.183  16.966  0.00  0.00    +0.000 A 
ATOM     27  C   UNL     1       3.224   3.507  17.398  0.00  0.00    +0.000 C 
ATOM     28  O   UNL     1       2.243   3.333  16.695  0.00  0.00    +0.000 OA
ENDBRANCH  17  18
ENDBRANCH  16  17
ENDBRANCH  15  16
ENDBRANCH   1  15
TORSDOF 10
ENDMDL
MODEL 3
REMARK VINA RESULT:      -7.0      1.817      4.283
REMARK  Name = 
REMARK  11 active torsions:
REMARK  status: ('A' for Active; 'I' for Inactive)
REMARK    1  A    between atoms: C_1  and  N_2
REMARK    2  A    between atoms: N_2  and  C_3
REMARK    3  A    between atoms: N_2  and  C_21
REMARK    4  A    between atoms: C_3  and  C_4
REMARK    5  A    between atoms: C_4  and  C_5
REMARK    6  A    between atoms: C_5  and  C_6
REMARK    7  A    between atoms: C_6  and  C_7
REMARK    8  A    between atoms: C_7  and  C_8
REMARK    9  A    between atoms: C_8  and  C_9
REMARK   10  A    between atoms: C_9  and  N_10
REMARK   11  A    between atoms: C_21  and  C_22
REMARK                            x       y       z     vdW  Elec       q    Type
REMARK                         _______ _______ _______ _____ _____    ______ ____
ROOT
ATOM      1  C   UNL     1       1.942   4.836  21.141  0.00  0.00    +0.000 C 
ENDROOT
BRANCH   1   2
ATOM      2  C   UNL     1       2.052   6.117  20.309  0.00  0.00    +0.000 C 
BRANCH   2   3
ATOM      3  C   UNL     1       1.129   7.250  20.774  0.00  0.00    +0.000 C 
BRANCH   3   4
ATOM      4  C   UNL     1       1.651   8.616  20.307  0.00  0.00    +0.000 C 
BRANCH   4   6
ATOM      5  C   UNL     1      -0.358   9.415  21.391  0.00  0.00    +0.000 C 
ATOM      6  N   UNL     1       0.967   9.783  20.887  0.00  0.00    +0.000 NA
BRANCH   6   7
ATOM      7  C   UNL     1       0.826  10.850  19.861  0.00  0.00    +0.000 C 
BRANCH   7   8
ATOM      8  C   UNL     1      -0.505  10.842  19.139  0.00  0.00    +0.000 A 
ATOM      9  C   UNL     1      -1.571  11.648  19.569  0.00  0.00    +0.000 A 
ATOM     10  C   UNL     1      -2.765  11.691  18.841  0.00  0.00    +0.000 A 
ATOM     11  C   UNL     1      -2.910  10.929  17.682  0.00  0.00    +0.000 A 
ATOM     12  C   UNL     1      -1.867  10.113  17.254  0.00  0.00    +0.000 A 
ATOM     13  C   UNL     1      -0.680  10.072  17.983  0.00  0.00    +0.000 A 
ATOM     14  F   UNL     1       0.318   9.296  17.536  0.00  0.00    +0.000 F 
ENDBRANCH   7   8
ENDBRANCH   6   7
ENDBRANCH   4   6
ENDBRANCH   3   4
ENDBRANCH   2   3
ENDBRANCH   1   2
BRANCH   1  15
ATOM     15  C   UNL     1       1.092   3.779  20.440  0.00  0.00    +0.000 C 
BRANCH  15  16
ATOM     16  C   UNL     1       1.759   2.415  20.483  0.00  0.00    +0.000 C 
BRANCH  16  17
ATOM     17  C   UNL     1       2.211   1.999  19.086  0.00  0.00    +0.000 C 
BRANCH  17  18
ATOM     18  N   UNL     1       3.218   2.911  18.590  0.00  0.00    +0.000 N 
ATOM     19  C   UNL     1       2.968   3.849  17.631  0.00  0.00    +0.000 C 
ATOM     20  O   UNL     1       1.961   4.035  16.972  0.00  0.00    +0.000 OA
ATOM     21  C   UNL     1       4.169   4.673  17.540  0.00  0.00    +0.000 A 
ATOM     22  C   UNL     1       4.439   5.772  16.748  0.00  0.00    +0.000 A 
ATOM     23  C   UNL     1       5.678   6.390  16.922  0.00  0.00    +0.000 A 
ATOM     24  C   UNL     1       6.605   5.905  17.871  0.00  0.00    +0.000 A 
ATOM     25  C   UNL     1       6.305   4.791  18.664  0.00  0.00    +0.000 A 
ATOM     26  C   UNL     1       5.075   4.199  18.473  0.00  0.00    +0.000 A 
ATOM     27  C   UNL     1       4.454   3.075  19.161  0.00  0.00    +0.000 C 
ATOM     28  O   UNL     1       4.965   2.461  20.082  0.00  0.00    +0.000 OA
ENDBRANCH  17  18
ENDBRANCH  16  17
ENDBRANCH  15  16
ENDBRANCH   1  15
TORSDOF 10
ENDMDL
MODEL 4
REMARK VINA RESULT:      -7.0      2.896      7.992
REMARK  Name = 
REMARK  11 active torsions:
REMARK  status: ('A' for Active; 'I' for Inactive)
REMARK    1  A    between atoms: C_1  and  N_2
REMARK    2  A    between atoms: N_2  and  C_3
REMARK    3  A    between atoms: N_2  and  C_21
REMARK    4  A    between atoms: C_3  and  C_4
REMARK    5  A    between atoms: C_4  and  C_5
REMARK    6  A    between atoms: C_5  and  C_6
REMARK    7  A    between atoms: C_6  and  C_7
REMARK    8  A    between atoms: C_7  and  C_8
REMARK    9  A    between atoms: C_8  and  C_9
REMARK   10  A    between atoms: C_9  and  N_10
REMARK   11  A    between atoms: C_21  and  C_22
REMARK                            x       y       z     vdW  Elec       q    Type
REMARK                         _______ _______ _______ _____ _____    ______ ____
ROOT
ATOM      1  C   UNL     1       2.464   7.267  18.940  0.00  0.00    +0.000 C 
ENDROOT
BRANCH   1   2
ATOM      2  C   UNL     1       3.868   6.779  18.570  0.00  0.00    +0.000 C 
BRANCH   2   3
ATOM      3  C   UNL     1       4.282   7.091  17.126  0.00  0.00    +0.000 C 
BRANCH   3   4
ATOM      4  C   UNL     1       4.902   5.860  16.450  0.00  0.00    +0.000 C 
BRANCH   4   6
ATOM      5  C   UNL     1       6.747   4.484  17.194  0.00  0.00    +0.000 C 
ATOM      6  N   UNL     1       5.325   4.787  17.365  0.00  0.00    +0.000 NA
BRANCH   6   7
ATOM      7  C   UNL     1       4.525   3.560  17.113  0.00  0.00    +0.000 C 
BRANCH   7   8
ATOM      8  C   UNL     1       3.394   3.346  18.098  0.00  0.00    +0.000 A 
ATOM      9  C   UNL     1       2.057   3.313  17.675  0.00  0.00    +0.000 A 
ATOM     10  C   UNL     1       1.032   3.032  18.585  0.00  0.00    +0.000 A 
ATOM     11  C   UNL     1       1.329   2.784  19.925  0.00  0.00    +0.000 A 
ATOM     12  C   UNL     1       2.651   2.830  20.361  0.00  0.00    +0.000 A 
ATOM     13  C   UNL     1       3.667   3.113  19.451  0.00  0.00    +0.000 A 
ATOM     14  F   UNL     1       4.933   3.128  19.893  0.00  0.00    +0.000 F 
ENDBRANCH   7   8
ENDBRANCH   6   7
ENDBRANCH   4   6
ENDBRANCH   3   4
ENDBRANCH   2   3
ENDBRANCH   1   2
BRANCH   1  15
ATOM     15  C   UNL     1       1.831   6.395  20.021  0.00  0.00    +0.000 C 
BRANCH  15  16
ATOM     16  C   UNL     1       1.112   7.237  21.061  0.00  0.00    +0.000 C 
BRANCH  16  17
ATOM     17  C   UNL     1       1.605   8.681  21.010  0.00  0.00    +0.000 C 
BRANCH  17  18
ATOM     18  N   UNL     1       0.506   9.597  21.215  0.00  0.00    +0.000 N 
ATOM     19  C   UNL     1       0.105  10.018  22.450  0.00  0.00    +0.000 C 
ATOM     20  O   UNL     1       0.486   9.663  23.552  0.00  0.00    +0.000 OA
ATOM     21  C   UNL     1      -0.895  11.057  22.225  0.00  0.00    +0.000 A 
ATOM     22  C   UNL     1      -1.600  11.826  23.130  0.00  0.00    +0.000 A 
ATOM     23  C   UNL     1      -2.466  12.788  22.606  0.00  0.00    +0.000 A 
ATOM     24  C   UNL     1      -2.602  12.958  21.210  0.00  0.00    +0.000 A 
ATOM     25  C   UNL     1      -1.873  12.167  20.315  0.00  0.00    +0.000 A 
ATOM     26  C   UNL     1      -1.025  11.225  20.858  0.00  0.00    +0.000 A 
ATOM     27  C   UNL     1      -0.110  10.297  20.209  0.00  0.00    +0.000 C 
ATOM     28  O   UNL     1       0.063  10.226  19.003  0.00  0.00    +0.000 OA
ENDBRANCH  17  18
ENDBRANCH  16  17
ENDBRANCH  15  16
ENDBRANCH   1  15
TORSDOF 10
ENDMDL
MODEL 5
REMARK VINA RESULT:      -7.0      5.950      9.206
REMARK  Name = 
REMARK  11 active torsions:
REMARK  status: ('A' for Active; 'I' for Inactive)
REMARK    1  A    between atoms: C_1  and  N_2
REMARK    2  A    between atoms: N_2  and  C_3
REMARK    3  A    between atoms: N_2  and  C_21
REMARK    4  A    between atoms: C_3  and  C_4
REMARK    5  A    between atoms: C_4  and  C_5
REMARK    6  A    between atoms: C_5  and  C_6
REMARK    7  A    between atoms: C_6  and  C_7
REMARK    8  A    between atoms: C_7  and  C_8
REMARK    9  A    between atoms: C_8  and  C_9
REMARK   10  A    between atoms: C_9  and  N_10
REMARK   11  A    between atoms: C_21  and  C_22
REMARK                            x       y       z     vdW  Elec       q    Type
REMARK                         _______ _______ _______ _____ _____    ______ ____
ROOT
ATOM      1  C   UNL     1       7.968   7.100  18.586  0.00  0.00    +0.000 C 
ENDROOT
BRANCH   1   2
ATOM      2  C   UNL     1       7.268   5.828  18.098  0.00  0.00    +0.000 C 
BRANCH   2   3
ATOM      3  C   UNL     1       6.928   5.831  16.602  0.00  0.00    +0.000 C 
BRANCH   3   4
ATOM      4  C   UNL     1       5.413   5.726  16.379  0.00  0.00    +0.000 C 
BRANCH   4   6
ATOM      5  C   UNL     1       4.694   3.494  16.971  0.00  0.00    +0.000 C 
ATOM      6  N   UNL     1       4.688   4.905  17.362  0.00  0.00    +0.000 NA
BRANCH   6   7
ATOM      7  C   UNL     1       3.284   5.378  17.481  0.00  0.00    +0.000 C 
BRANCH   7   8
ATOM      8  C   UNL     1       2.517   4.757  18.630  0.00  0.00    +0.000 A 
ATOM      9  C   UNL     1       1.462   3.861  18.400  0.00  0.00    +0.000 A 
ATOM     10  C   UNL     1       0.819   3.232  19.472  0.00  0.00    +0.000 A 
ATOM     11  C   UNL     1       1.218   3.494  20.782  0.00  0.00    +0.000 A 
ATOM     12  C   UNL     1       2.253   4.394  21.025  0.00  0.00    +0.000 A 
ATOM     13  C   UNL     1       2.888   5.018  19.954  0.00  0.00    +0.000 A 
ATOM     14  F   UNL     1       3.897   5.862  20.215  0.00  0.00    +0.000 F 
ENDBRANCH   7   8
ENDBRANCH   6   7
ENDBRANCH   4   6
ENDBRANCH   3   4
ENDBRANCH   2   3
ENDBRANCH   1   2
BRANCH   1  15
ATOM     15  C   UNL     1       8.020   8.167  17.496  0.00  0.00    +0.000 C 
BRANCH  15  16
ATOM     16  C   UNL     1       8.104   9.562  18.092  0.00  0.00    +0.000 C 
BRANCH  16  17
ATOM     17  C   UNL     1       9.264   9.650  19.080  0.00  0.00    +0.000 C 
BRANCH  17  18
ATOM     18  N   UNL     1       9.560  11.031  19.390  0.00  0.00    +0.000 N 
ATOM     19  C   UNL     1       9.293  11.598  20.602  0.00  0.00    +0.000 C 
ATOM     20  O   UNL     1       8.706  11.134  21.563  0.00  0.00    +0.000 OA
ATOM     21  C   UNL     1       9.895  12.927  20.575  0.00  0.00    +0.000 A 
ATOM     22  C   UNL     1       9.940  13.906  21.549  0.00  0.00    +0.000 A 
ATOM     23  C   UNL     1      10.641  15.073  21.242  0.00  0.00    +0.000 A 
ATOM     24  C   UNL     1      11.275  15.232  19.990  0.00  0.00    +0.000 A 
ATOM     25  C   UNL     1      11.217  14.223  19.022  0.00  0.00    +0.000 A 
ATOM     26  C   UNL     1      10.519  13.080  19.348  0.00  0.00    +0.000 A 
ATOM     27  C   UNL     1      10.317  11.852  18.594  0.00  0.00    +0.000 C 
ATOM     28  O   UNL     1      10.786  11.635  17.488  0.00  0.00    +0.000 OA
ENDBRANCH  17  18
ENDBRANCH  16  17
ENDBRANCH  15  16
ENDBRANCH   1  15
TORSDOF 10
ENDMDL
MODEL 6
REMARK VINA RESULT:      -7.0      2.928      8.113
REMARK  Name = 
REMARK  11 active torsions:
REMARK  status: ('A' for Active; 'I' for Inactive)
REMARK    1  A    between atoms: C_1  and  N_2
REMARK    2  A    between atoms: N_2  and  C_3
REMARK    3  A    between atoms: N_2  and  C_21
REMARK    4  A    between atoms: C_3  and  C_4
REMARK    5  A    between atoms: C_4  and  C_5
REMARK    6  A    between atoms: C_5  and  C_6
REMARK    7  A    between atoms: C_6  and  C_7
REMARK    8  A    between atoms: C_7  and  C_8
REMARK    9  A    between atoms: C_8  and  C_9
REMARK   10  A    between atoms: C_9  and  N_10
REMARK   11  A    between atoms: C_21  and  C_22
REMARK                            x       y       z     vdW  Elec       q    Type
REMARK                         _______ _______ _______ _____ _____    ______ ____
ROOT
ATOM      1  C   UNL     1       2.939   6.800  19.810  0.00  0.00    +0.000 C 
ENDROOT
BRANCH   1   2
ATOM      2  C   UNL     1       2.747   6.865  18.292  0.00  0.00    +0.000 C 
BRANCH   2   3
ATOM      3  C   UNL     1       4.054   6.819  17.490  0.00  0.00    +0.000 C 
BRANCH   3   4
ATOM      4  C   UNL     1       4.197   5.488  16.740  0.00  0.00    +0.000 C 
BRANCH   4   6
ATOM      5  C   UNL     1       6.304   4.301  16.778  0.00  0.00    +0.000 C 
ATOM      6  N   UNL     1       5.001   4.463  17.426  0.00  0.00    +0.000 NA
BRANCH   6   7
ATOM      7  C   UNL     1       4.280   3.163  17.417  0.00  0.00    +0.000 C 
BRANCH   7   8
ATOM      8  C   UNL     1       3.198   3.049  18.471  0.00  0.00    +0.000 A 
ATOM      9  C   UNL     1       1.840   3.018  18.119  0.00  0.00    +0.000 A 
ATOM     10  C   UNL     1       0.858   2.829  19.097  0.00  0.00    +0.000 A 
ATOM     11  C   UNL     1       1.220   2.673  20.436  0.00  0.00    +0.000 A 
ATOM     12  C   UNL     1       2.563   2.718  20.800  0.00  0.00    +0.000 A 
ATOM     13  C   UNL     1       3.536   2.908  19.822  0.00  0.00    +0.000 A 
ATOM     14  F   UNL     1       4.823   2.924  20.198  0.00  0.00    +0.000 F 
ENDBRANCH   7   8
ENDBRANCH   6   7
ENDBRANCH   4   6
ENDBRANCH   3   4
ENDBRANCH   2   3
ENDBRANCH   1   2
BRANCH   1  15
ATOM     15  C   UNL     1       1.725   6.189  20.506  0.00  0.00    +0.000 C 
BRANCH  15  16
ATOM     16  C   UNL     1       0.791   7.264  21.035  0.00  0.00    +0.000 C 
BRANCH  16  17
ATOM     17  C   UNL     1       1.552   8.569  21.257  0.00  0.00    +0.000 C 
BRANCH  17  18
ATOM     18  N   UNL     1       0.631   9.674  21.392  0.00  0.00    +0.000 N 
ATOM     19  C   UNL     1       0.056  10.302  20.325  0.00  0.00    +0.000 C 
ATOM     20  O   UNL     1       0.256  10.146  19.133  0.00  0.00    +0.000 OA
ATOM     21  C   UNL     1      -0.932  11.225  20.875  0.00  0.00    +0.000 A 
ATOM     22  C   UNL     1      -1.805  12.081  20.233  0.00  0.00    +0.000 A 
ATOM     23  C   UNL     1      -2.678  12.816  21.038  0.00  0.00    +0.000 A 
ATOM     24  C   UNL     1      -2.660  12.677  22.444  0.00  0.00    +0.000 A 
ATOM     25  C   UNL     1      -1.767  11.799  23.068  0.00  0.00    +0.000 A 
ATOM     26  C   UNL     1      -0.916  11.085  22.252  0.00  0.00    +0.000 A 
ATOM     27  C   UNL     1       0.078  10.074  22.582  0.00  0.00    +0.000 C 
ATOM     28  O   UNL     1       0.307   9.672  23.711  0.00  0.00    +0.000 OA
ENDBRANCH  17  18
ENDBRANCH  16  17
ENDBRANCH  15  16
ENDBRANCH   1  15
TORSDOF 10
ENDMDL
MODEL 7
REMARK VINA RESULT:      -6.9      1.832      4.093
REMARK  Name = 
REMARK  11 active torsions:
REMARK  status: ('A' for Active; 'I' for Inactive)
REMARK    1  A    between atoms: C_1  and  N_2
REMARK    2  A    between atoms: N_2  and  C_3
REMARK    3  A    between atoms: N_2  and  C_21
REMARK    4  A    between atoms: C_3  and  C_4
REMARK    5  A    between atoms: C_4  and  C_5
REMARK    6  A    between atoms: C_5  and  C_6
REMARK    7  A    between atoms: C_6  and  C_7
REMARK    8  A    between atoms: C_7  and  C_8
REMARK    9  A    between atoms: C_8  and  C_9
REMARK   10  A    between atoms: C_9  and  N_10
REMARK   11  A    between atoms: C_21  and  C_22
REMARK                            x       y       z     vdW  Elec       q    Type
REMARK                         _______ _______ _______ _____ _____    ______ ____
ROOT
ATOM      1  C   UNL     1       1.261   5.123  20.498  0.00  0.00    +0.000 C 
ENDROOT
BRANCH   1   2
ATOM      2  C   UNL     1       2.411   6.071  20.143  0.00  0.00    +0.000 C 
BRANCH   2   3
ATOM      3  C   UNL     1       1.976   7.519  19.887  0.00  0.00    +0.000 C 
BRANCH   3   4
ATOM      4  C   UNL     1       1.756   8.272  21.206  0.00  0.00    +0.000 C 
BRANCH   4   6
ATOM      5  C   UNL     1      -0.591   8.455  21.757  0.00  0.00    +0.000 C 
ATOM      6  N   UNL     1       0.582   9.159  21.236  0.00  0.00    +0.000 NA
BRANCH   6   7
ATOM      7  C   UNL     1       0.289   9.659  19.867  0.00  0.00    +0.000 C 
BRANCH   7   8
ATOM      8  C   UNL     1       0.986  10.960  19.522  0.00  0.00    +0.000 A 
ATOM      9  C   UNL     1       0.889  12.081  20.360  0.00  0.00    +0.000 A 
ATOM     10  C   UNL     1       1.605  13.247  20.068  0.00  0.00    +0.000 A 
ATOM     11  C   UNL     1       2.421  13.308  18.938  0.00  0.00    +0.000 A 
ATOM     12  C   UNL     1       2.513  12.207  18.091  0.00  0.00    +0.000 A 
ATOM     13  C   UNL     1       1.797  11.049  18.384  0.00  0.00    +0.000 A 
ATOM     14  F   UNL     1       1.921   9.996  17.564  0.00  0.00    +0.000 F 
ENDBRANCH   7   8
ENDBRANCH   6   7
ENDBRANCH   4   6
ENDBRANCH   3   4
ENDBRANCH   2   3
ENDBRANCH   1   2
BRANCH   1  15
ATOM     15  C   UNL     1       1.769   3.726  20.846  0.00  0.00    +0.000 C 
BRANCH  15  16
ATOM     16  C   UNL     1       1.259   2.690  19.858  0.00  0.00    +0.000 C 
BRANCH  16  17
ATOM     17  C   UNL     1       2.428   1.996  19.163  0.00  0.00    +0.000 C 
BRANCH  17  18
ATOM     18  N   UNL     1       3.346   2.974  18.622  0.00  0.00    +0.000 N 
ATOM     19  C   UNL     1       4.589   3.197  19.139  0.00  0.00    +0.000 C 
ATOM     20  O   UNL     1       5.107   2.735  20.140  0.00  0.00    +0.000 OA
ATOM     21  C   UNL     1       5.258   4.111  18.218  0.00  0.00    +0.000 A 
ATOM     22  C   UNL     1       6.535   4.637  18.256  0.00  0.00    +0.000 A 
ATOM     23  C   UNL     1       6.913   5.458  17.191  0.00  0.00    +0.000 A 
ATOM     24  C   UNL     1       6.021   5.727  16.129  0.00  0.00    +0.000 A 
ATOM     25  C   UNL     1       4.734   5.178  16.115  0.00  0.00    +0.000 A 
ATOM     26  C   UNL     1       4.385   4.371  17.177  0.00  0.00    +0.000 A 
ATOM     27  C   UNL     1       3.161   3.624  17.429  0.00  0.00    +0.000 C 
ATOM     28  O   UNL     1       2.203   3.591  16.674  0.00  0.00    +0.000 OA
ENDBRANCH  17  18
ENDBRANCH  16  17
ENDBRANCH  15  16
ENDBRANCH   1  15
TORSDOF 10
ENDMDL
MODEL 8
REMARK VINA RESULT:      -6.9      6.280      7.287
REMARK  Name = 
REMARK  11 active torsions:
REMARK  status: ('A' for Active; 'I' for Inactive)
REMARK    1  A    between atoms: C_1  and  N_2
REMARK    2  A    between atoms: N_2  and  C_3
REMARK    3  A    between atoms: N_2  and  C_21
REMARK    4  A    between atoms: C_3  and  C_4
REMARK    5  A    between atoms: C_4  and  C_5
REMARK    6  A    between atoms: C_5  and  C_6
REMARK    7  A    between atoms: C_6  and  C_7
REMARK    8  A    between atoms: C_7  and  C_8
REMARK    9  A    between atoms: C_8  and  C_9
REMARK   10  A    between atoms: C_9  and  N_10
REMARK   11  A    between atoms: C_21  and  C_22
REMARK                            x       y       z     vdW  Elec       q    Type
REMARK                         _______ _______ _______ _____ _____    ______ ____
ROOT
ATOM      1  C   UNL     1       8.745   9.753  18.701  0.00  0.00    +0.000 C 
ENDROOT
BRANCH   1   2
ATOM      2  C   UNL     1       9.678  10.771  18.038  0.00  0.00    +0.000 C 
BRANCH   2   3
ATOM      3  C   UNL     1       9.124  12.201  18.003  0.00  0.00    +0.000 C 
BRANCH   3   4
ATOM      4  C   UNL     1      10.259  13.234  18.003  0.00  0.00    +0.000 C 
BRANCH   4   6
ATOM      5  C   UNL     1      11.169  15.274  18.931  0.00  0.00    +0.000 C 
ATOM      6  N   UNL     1      10.303  14.120  19.178  0.00  0.00    +0.000 NA
BRANCH   6   7
ATOM      7  C   UNL     1      10.804  13.371  20.360  0.00  0.00    +0.000 C 
BRANCH   7   8
ATOM      8  C   UNL     1       9.773  13.179  21.453  0.00  0.00    +0.000 A 
ATOM      9  C   UNL     1       9.150  11.938  21.656  0.00  0.00    +0.000 A 
ATOM     10  C   UNL     1       8.263  11.757  22.723  0.00  0.00    +0.000 A 
ATOM     11  C   UNL     1       7.984  12.810  23.593  0.00  0.00    +0.000 A 
ATOM     12  C   UNL     1       8.583  14.051  23.393  0.00  0.00    +0.000 A 
ATOM     13  C   UNL     1       9.465  14.227  22.329  0.00  0.00    +0.000 A 
ATOM     14  F   UNL     1      10.046  15.426  22.172  0.00  0.00    +0.000 F 
ENDBRANCH   7   8
ENDBRANCH   6   7
ENDBRANCH   4   6
ENDBRANCH   3   4
ENDBRANCH   2   3
ENDBRANCH   1   2
BRANCH   1  15
ATOM     15  C   UNL     1       7.965   8.946  17.667  0.00  0.00    +0.000 C 
BRANCH  15  16
ATOM     16  C   UNL     1       7.875   7.481  18.061  0.00  0.00    +0.000 C 
BRANCH  16  17
ATOM     17  C   UNL     1       7.070   6.700  17.026  0.00  0.00    +0.000 C 
BRANCH  17  18
ATOM     18  N   UNL     1       5.922   6.076  17.645  0.00  0.00    +0.000 N 
ATOM     19  C   UNL     1       4.636   6.453  17.387  0.00  0.00    +0.000 C 
ATOM     20  O   UNL     1       4.221   7.382  16.717  0.00  0.00    +0.000 OA
ATOM     21  C   UNL     1       3.780   5.479  18.055  0.00  0.00    +0.000 A 
ATOM     22  C   UNL     1       2.403   5.382  18.094  0.00  0.00    +0.000 A 
ATOM     23  C   UNL     1       1.864   4.295  18.786  0.00  0.00    +0.000 A 
ATOM     24  C   UNL     1       2.701   3.344  19.411  0.00  0.00    +0.000 A 
ATOM     25  C   UNL     1       4.094   3.465  19.352  0.00  0.00    +0.000 A 
ATOM     26  C   UNL     1       4.602   4.546  18.663  0.00  0.00    +0.000 A 
ATOM     27  C   UNL     1       5.980   4.921  18.384  0.00  0.00    +0.000 C 
ATOM     28  O   UNL     1       6.956   4.278  18.732  0.00  0.00    +0.000 OA
ENDBRANCH  17  18
ENDBRANCH  16  17
ENDBRANCH  15  16
ENDBRANCH   1  15
TORSDOF 10
ENDMDL
MODEL 9
REMARK VINA RESULT:      -6.9      2.417      4.714
REMARK  Name = 
REMARK  11 active torsions:
REMARK  status: ('A' for Active; 'I' for Inactive)
REMARK    1  A    between atoms: C_1  and  N_2
REMARK    2  A    between atoms: N_2  and  C_3
REMARK    3  A    between atoms: N_2  and  C_21
REMARK    4  A    between atoms: C_3  and  C_4
REMARK    5  A    between atoms: C_4  and  C_5
REMARK    6  A    between atoms: C_5  and  C_6
REMARK    7  A    between atoms: C_6  and  C_7
REMARK    8  A    between atoms: C_7  and  C_8
REMARK    9  A    between atoms: C_8  and  C_9
REMARK   10  A    between atoms: C_9  and  N_10
REMARK   11  A    between atoms: C_21  and  C_22
REMARK                            x       y       z     vdW  Elec       q    Type
REMARK                         _______ _______ _______ _____ _____    ______ ____
ROOT
ATOM      1  C   UNL     1       2.386   6.449  19.952  0.00  0.00    +0.000 C 
ENDROOT
BRANCH   1   2
ATOM      2  C   UNL     1       1.650   7.636  20.579  0.00  0.00    +0.000 C 
BRANCH   2   3
ATOM      3  C   UNL     1       1.454   8.827  19.631  0.00  0.00    +0.000 C 
BRANCH   3   4
ATOM      4  C   UNL     1       0.211   9.641  20.016  0.00  0.00    +0.000 C 
BRANCH   4   6
ATOM      5  C   UNL     1       0.786  11.921  19.451  0.00  0.00    +0.000 C 
ATOM      6  N   UNL     1      -0.085  10.786  19.140  0.00  0.00    +0.000 NA
BRANCH   6   7
ATOM      7  C   UNL     1      -1.505  11.195  19.303  0.00  0.00    +0.000 C 
BRANCH   7   8
ATOM      8  C   UNL     1      -2.346  11.023  18.055  0.00  0.00    +0.000 A 
ATOM      9  C   UNL     1      -1.881  10.276  16.962  0.00  0.00    +0.000 A 
ATOM     10  C   UNL     1      -2.703  10.058  15.851  0.00  0.00    +0.000 A 
ATOM     11  C   UNL     1      -3.994  10.585  15.818  0.00  0.00    +0.000 A 
ATOM     12  C   UNL     1      -4.462  11.341  16.889  0.00  0.00    +0.000 A 
ATOM     13  C   UNL     1      -3.638  11.557  17.992  0.00  0.00    +0.000 A 
ATOM     14  F   UNL     1      -4.122  12.269  19.020  0.00  0.00    +0.000 F 
ENDBRANCH   7   8
ENDBRANCH   6   7
ENDBRANCH   4   6
ENDBRANCH   3   4
ENDBRANCH   2   3
ENDBRANCH   1   2
BRANCH   1  15
ATOM     15  C   UNL     1       1.566   5.164  20.043  0.00  0.00    +0.000 C 
BRANCH  15  16
ATOM     16  C   UNL     1       2.373   4.037  20.665  0.00  0.00    +0.000 C 
BRANCH  16  17
ATOM     17  C   UNL     1       2.726   2.990  19.611  0.00  0.00    +0.000 C 
BRANCH  17  18
ATOM     18  N   UNL     1       3.619   3.551  18.623  0.00  0.00    +0.000 N 
ATOM     19  C   UNL     1       4.920   3.868  18.886  0.00  0.00    +0.000 C 
ATOM     20  O   UNL     1       5.525   3.844  19.943  0.00  0.00    +0.000 OA
ATOM     21  C   UNL     1       5.522   4.228  17.606  0.00  0.00    +0.000 A 
ATOM     22  C   UNL     1       6.816   4.605  17.305  0.00  0.00    +0.000 A 
ATOM     23  C   UNL     1       7.109   4.845  15.961  0.00  0.00    +0.000 A 
ATOM     24  C   UNL     1       6.118   4.702  14.965  0.00  0.00    +0.000 A 
ATOM     25  C   UNL     1       4.815   4.315  15.298  0.00  0.00    +0.000 A 
ATOM     26  C   UNL     1       4.551   4.084  16.631  0.00  0.00    +0.000 A 
ATOM     27  C   UNL     1       3.331   3.632  17.284  0.00  0.00    +0.000 C 
ATOM     28  O   UNL     1       2.296   3.356  16.701  0.00  0.00    +0.000 OA
ENDBRANCH  17  18
ENDBRANCH  16  17
ENDBRANCH  15  16
ENDBRANCH   1  15
TORSDOF 10
ENDMDL
