MODEL 1
REMARK VINA RESULT:      -7.1      0.000      0.000
REMARK  Name = 
REMARK  8 active torsions:
REMARK  status: ('A' for Active; 'I' for Inactive)
REMARK    1  A    between atoms: C_1  and  C_2
REMARK    2  A    between atoms: C_2  and  N_3
REMARK    3  A    between atoms: N_3  and  C_4
REMARK    4  A    between atoms: C_5  and  O_7
REMARK    5  A    between atoms: O_7  and  C_8
REMARK    6  A    between atoms: C_8  and  C_9
REMARK    7  A    between atoms: N_13  and  C_14
REMARK    8  A    between atoms: C_14  and  C_15
REMARK                            x       y       z     vdW  Elec       q    Type
REMARK                         _______ _______ _______ _____ _____    ______ ____
ROOT
ATOM      1  C   UNL     1       6.893   6.265  16.732  0.00  0.00    +0.000 C 
ATOM      2  C   UNL     1       7.677   6.375  18.043  0.00  0.00    +0.000 C 
ATOM      3  C   UNL     1       7.153   5.409  19.095  0.00  0.00    +0.000 C 
ATOM      4  C   UNL     1       5.672   5.663  19.350  0.00  0.00    +0.000 C 
ATOM      5  N   UNL     1       4.865   5.396  18.153  0.00  0.00    +0.000 NA
ATOM      6  C   UNL     1       5.364   6.138  16.967  0.00  0.00    +0.000 C 
ENDROOT
BRANCH   1   7
ATOM      7  C   UNL     1       7.499   5.194  15.802  0.00  0.00    +0.000 C 
BRANCH   7   8
ATOM      8  O   UNL     1       6.950   5.314  14.460  0.00  0.00    +0.000 OA
BRANCH   8  11
ATOM      9  N   UNL     1       6.482   3.908  12.686  0.00  0.00    +0.000 N 
ATOM     10  C   UNL     1       7.382   4.678  11.846  0.00  0.00    +0.000 C 
ATOM     11  C   UNL     1       6.233   4.236  14.015  0.00  0.00    +0.000 C 
ATOM     12  O   UNL     1       5.440   3.622  14.716  0.00  0.00    +0.000 OA
BRANCH   9  14
ATOM     13  C   UNL     1       4.465   3.202  11.406  0.00  0.00    +0.000 C 
ATOM     14  C   UNL     1       5.761   2.785  12.085  0.00  0.00    +0.000 C 
ENDBRANCH   9  14
ENDBRANCH   8  11
ENDBRANCH   7   8
ENDBRANCH   1   7
BRANCH   5  15
ATOM     15  C   UNL     1       3.451   5.804  18.394  0.00  0.00    +0.000 C 
BRANCH  15  16
ATOM     16  C   UNL     1       2.509   4.738  18.927  0.00  0.00    +0.000 A 
ATOM     17  C   UNL     1       2.050   4.790  20.256  0.00  0.00    +0.000 A 
ATOM     18  C   UNL     1       1.109   3.871  20.727  0.00  0.00    +0.000 A 
ATOM     19  C   UNL     1       0.613   2.884  19.877  0.00  0.00    +0.000 A 
ATOM     20  C   UNL     1       1.072   2.810  18.563  0.00  0.00    +0.000 A 
ATOM     21  C   UNL     1       2.016   3.728  18.092  0.00  0.00    +0.000 A 
ENDBRANCH  15  16
ENDBRANCH   5  15
TORSDOF 6
ENDMDL
MODEL 2
REMARK VINA RESULT:      -6.9      2.671      5.248
REMARK  Name = 
REMARK  8 active torsions:
REMARK  status: ('A' for Active; 'I' for Inactive)
REMARK    1  A    between atoms: C_1  and  C_2
REMARK    2  A    between atoms: C_2  and  N_3
REMARK    3  A    between atoms: N_3  and  C_4
REMARK    4  A    between atoms: C_5  and  O_7
REMARK    5  A    between atoms: O_7  and  C_8
REMARK    6  A    between atoms: C_8  and  C_9
REMARK    7  A    between atoms: N_13  and  C_14
REMARK    8  A    between atoms: C_14  and  C_15
REMARK                            x       y       z     vdW  Elec       q    Type
REMARK                         _______ _______ _______ _____ _____    ______ ____
ROOT
ATOM      1  C   UNL     1       4.518   3.797  18.250  0.00  0.00    +0.000 C 
ATOM      2  C   UNL     1       3.538   2.629  18.392  0.00  0.00    +0.000 C 
ATOM      3  C   UNL     1       2.101   3.067  18.155  0.00  0.00    +0.000 C 
ATOM      4  C   UNL     1       1.726   4.181  19.124  0.00  0.00    +0.000 C 
ATOM      5  N   UNL     1       2.533   5.387  18.898  0.00  0.00    +0.000 NA
ATOM      6  C   UNL     1       3.989   5.095  18.918  0.00  0.00    +0.000 C 
ENDROOT
BRANCH   1   7
ATOM      7  C   UNL     1       4.990   3.962  16.792  0.00  0.00    +0.000 C 
BRANCH   7   8
ATOM      8  O   UNL     1       6.394   4.346  16.750  0.00  0.00    +0.000 OA
BRANCH   8  11
ATOM      9  N   UNL     1       7.359   6.315  17.484  0.00  0.00    +0.000 N 
ATOM     10  C   UNL     1       7.763   5.652  18.711  0.00  0.00    +0.000 C 
ATOM     11  C   UNL     1       6.638   5.666  16.485  0.00  0.00    +0.000 C 
ATOM     12  O   UNL     1       6.251   6.230  15.470  0.00  0.00    +0.000 OA
BRANCH   9  14
ATOM     13  C   UNL     1       8.420   8.319  18.515  0.00  0.00    +0.000 C 
ATOM     14  C   UNL     1       7.667   7.737  17.328  0.00  0.00    +0.000 C 
ENDBRANCH   9  14
ENDBRANCH   8  11
ENDBRANCH   7   8
ENDBRANCH   1   7
BRANCH   5  15
ATOM     15  C   UNL     1       2.247   6.394  19.960  0.00  0.00    +0.000 C 
BRANCH  15  16
ATOM     16  C   UNL     1       1.947   7.811  19.502  0.00  0.00    +0.000 A 
ATOM     17  C   UNL     1       2.309   8.235  18.210  0.00  0.00    +0.000 A 
ATOM     18  C   UNL     1       1.951   9.503  17.745  0.00  0.00    +0.000 A 
ATOM     19  C   UNL     1       1.228  10.367  18.564  0.00  0.00    +0.000 A 
ATOM     20  C   UNL     1       0.877   9.966  19.852  0.00  0.00    +0.000 A 
ATOM     21  C   UNL     1       1.237   8.699  20.320  0.00  0.00    +0.000 A 
ENDBRANCH  15  16
ENDBRANCH   5  15
TORSDOF 6
ENDMDL
MODEL 3
REMARK VINA RESULT:      -6.8      3.127      5.907
REMARK  Name = 
REMARK  8 active torsions:
REMARK  status: ('A' for Active; 'I' for Inactive)
REMARK    1  A    between atoms: C_1  and  C_2
REMARK    2  A    between atoms: C_2  and  N_3
REMARK    3  A    between atoms: N_3  and  C_4
REMARK    4  A    between atoms: C_5  and  O_7
REMARK    5  A    between atoms: O_7  and  C_8
REMARK    6  A    between atoms: C_8  and  C_9
REMARK    7  A    between atoms: N_13  and  C_14
REMARK    8  A    between atoms: C_14  and  C_15
REMARK                            x       y       z     vdW  Elec       q    Type
REMARK                         _______ _______ _______ _____ _____    ______ ____
ROOT
ATOM      1  C   UNL     1       5.052   6.416  17.570  0.00  0.00    +0.000 C 
ATOM      2  C   UNL     1       6.072   6.146  16.460  0.00  0.00    +0.000 C 
ATOM      3  C   UNL     1       5.544   5.151  15.439  0.00  0.00    +0.000 C 
ATOM      4  C   UNL     1       5.164   3.845  16.126  0.00  0.00    +0.000 C 
ATOM      5  N   UNL     1       4.061   4.036  17.076  0.00  0.00    +0.000 NA
ATOM      6  C   UNL     1       4.347   5.119  18.051  0.00  0.00    +0.000 C 
ENDROOT
BRANCH   1   7
ATOM      7  C   UNL     1       4.102   7.569  17.192  0.00  0.00    +0.000 C 
BRANCH   7   8
ATOM      8  O   UNL     1       2.786   7.360  17.779  0.00  0.00    +0.000 OA
BRANCH   8  11
ATOM      9  N   UNL     1       1.674   8.435  19.496  0.00  0.00    +0.000 N 
ATOM     10  C   UNL     1       1.837   7.259  20.331  0.00  0.00    +0.000 C 
ATOM     11  C   UNL     1       2.132   8.492  18.183  0.00  0.00    +0.000 C 
ATOM     12  O   UNL     1       1.956   9.461  17.457  0.00  0.00    +0.000 OA
BRANCH   9  14
ATOM     13  C   UNL     1       0.583   9.413  21.511  0.00  0.00    +0.000 C 
ATOM     14  C   UNL     1       0.939   9.577  20.041  0.00  0.00    +0.000 C 
ENDBRANCH   9  14
ENDBRANCH   8  11
ENDBRANCH   7   8
ENDBRANCH   1   7
BRANCH   5  15
ATOM     15  C   UNL     1       3.826   2.776  17.838  0.00  0.00    +0.000 C 
BRANCH  15  16
ATOM     16  C   UNL     1       2.947   2.874  19.074  0.00  0.00    +0.000 A 
ATOM     17  C   UNL     1       1.571   3.142  18.952  0.00  0.00    +0.000 A 
ATOM     18  C   UNL     1       0.738   3.138  20.074  0.00  0.00    +0.000 A 
ATOM     19  C   UNL     1       1.266   2.868  21.334  0.00  0.00    +0.000 A 
ATOM     20  C   UNL     1       2.631   2.617  21.472  0.00  0.00    +0.000 A 
ATOM     21  C   UNL     1       3.466   2.624  20.350  0.00  0.00    +0.000 A 
ENDBRANCH  15  16
ENDBRANCH   5  15
TORSDOF 6
ENDMDL
MODEL 4
REMARK VINA RESULT:      -6.8      3.603      7.193
REMARK  Name = 
REMARK  8 active torsions:
REMARK  status: ('A' for Active; 'I' for Inactive)
REMARK    1  A    between atoms: C_1  and  C_2
REMARK    2  A    between atoms: C_2  and  N_3
REMARK    3  A    between atoms: N_3  and  C_4
REMARK    4  A    between atoms: C_5  and  O_7
REMARK    5  A    between atoms: O_7  and  C_8
REMARK    6  A    between atoms: C_8  and  C_9
REMARK    7  A    between atoms: N_13  and  C_14
REMARK    8  A    between atoms: C_14  and  C_15
REMARK                            x       y       z     vdW  Elec       q    Type
REMARK                         _______ _______ _______ _____ _____    ______ ____
ROOT
ATOM      1  C   UNL     1       1.264   4.546  20.103  0.00  0.00    +0.000 C 
ATOM      2  C   UNL     1       1.464   3.259  20.910  0.00  0.00    +0.000 C 
ATOM      3  C   UNL     1       2.907   2.782  20.862  0.00  0.00    +0.000 C 
ATOM      4  C   UNL     1       3.339   2.562  19.417  0.00  0.00    +0.000 C 
ATOM      5  N   UNL     1       3.329   3.817  18.654  0.00  0.00    +0.000 NA
ATOM      6  C   UNL     1       2.021   4.514  18.747  0.00  0.00    +0.000 C 
ENDROOT
BRANCH   1   7
ATOM      7  C   UNL     1       1.527   5.797  20.964  0.00  0.00    +0.000 C 
BRANCH   7   8
ATOM      8  O   UNL     1       2.165   6.838  20.171  0.00  0.00    +0.000 OA
BRANCH   8  11
ATOM      9  N   UNL     1       1.603   8.802  19.090  0.00  0.00    +0.000 N 
ATOM     10  C   UNL     1       2.169   8.280  17.859  0.00  0.00    +0.000 C 
ATOM     11  C   UNL     1       1.616   8.087  20.283  0.00  0.00    +0.000 C 
ATOM     12  O   UNL     1       1.185   8.538  21.336  0.00  0.00    +0.000 OA
BRANCH   9  14
ATOM     13  C   UNL     1      -0.308  10.255  18.424  0.00  0.00    +0.000 C 
ATOM     14  C   UNL     1       1.060  10.161  19.083  0.00  0.00    +0.000 C 
ENDBRANCH   9  14
ENDBRANCH   8  11
ENDBRANCH   7   8
ENDBRANCH   1   7
BRANCH   5  15
ATOM     15  C   UNL     1       3.604   3.536  17.216  0.00  0.00    +0.000 C 
BRANCH  15  16
ATOM     16  C   UNL     1       4.907   4.073  16.648  0.00  0.00    +0.000 A 
ATOM     17  C   UNL     1       5.958   4.449  17.504  0.00  0.00    +0.000 A 
ATOM     18  C   UNL     1       7.193   4.851  16.990  0.00  0.00    +0.000 A 
ATOM     19  C   UNL     1       7.397   4.887  15.612  0.00  0.00    +0.000 A 
ATOM     20  C   UNL     1       6.358   4.534  14.751  0.00  0.00    +0.000 A 
ATOM     21  C   UNL     1       5.120   4.134  15.265  0.00  0.00    +0.000 A 
ENDBRANCH  15  16
ENDBRANCH   5  15
TORSDOF 6
ENDMDL
MODEL 5
REMARK VINA RESULT:      -6.8      3.305      6.010
REMARK  Name = 
REMARK  8 active torsions:
REMARK  status: ('A' for Active; 'I' for Inactive)
REMARK    1  A    between atoms: C_1  and  C_2
REMARK    2  A    between atoms: C_2  and  N_3
REMARK    3  A    between atoms: N_3  and  C_4
REMARK    4  A    between atoms: C_5  and  O_7
REMARK    5  A    between atoms: O_7  and  C_8
REMARK    6  A    between atoms: C_8  and  C_9
REMARK    7  A    between atoms: N_13  and  C_14
REMARK    8  A    between atoms: C_14  and  C_15
REMARK                            x       y       z     vdW  Elec       q    Type
REMARK                         _______ _______ _______ _____ _____    ______ ____
ROOT
ATOM      1  C   UNL     1       4.959   6.448  17.589  0.00  0.00    +0.000 C 
ATOM      2  C   UNL     1       5.944   6.254  16.432  0.00  0.00    +0.000 C 
ATOM      3  C   UNL     1       5.415   5.271  15.400  0.00  0.00    +0.000 C 
ATOM      4  C   UNL     1       5.115   3.930  16.059  0.00  0.00    +0.000 C 
ATOM      5  N   UNL     1       4.045   4.046  17.057  0.00  0.00    +0.000 NA
ATOM      6  C   UNL     1       4.326   5.109  18.055  0.00  0.00    +0.000 C 
ENDROOT
BRANCH   1   7
ATOM      7  C   UNL     1       3.949   7.573  17.286  0.00  0.00    +0.000 C 
BRANCH   7   8
ATOM      8  O   UNL     1       2.801   7.481  18.176  0.00  0.00    +0.000 OA
BRANCH   8  11
ATOM      9  N   UNL     1       1.459   8.781  19.538  0.00  0.00    +0.000 N 
ATOM     10  C   UNL     1       1.600   7.803  20.601  0.00  0.00    +0.000 C 
ATOM     11  C   UNL     1       2.046   8.618  18.287  0.00  0.00    +0.000 C 
ATOM     12  O   UNL     1       1.893   9.413  17.369  0.00  0.00    +0.000 OA
BRANCH   9  14
ATOM     13  C   UNL     1       0.616  10.407  21.227  0.00  0.00    +0.000 C 
ATOM     14  C   UNL     1       0.609   9.948  19.776  0.00  0.00    +0.000 C 
ENDBRANCH   9  14
ENDBRANCH   8  11
ENDBRANCH   7   8
ENDBRANCH   1   7
BRANCH   5  15
ATOM     15  C   UNL     1       3.890   2.754  17.786  0.00  0.00    +0.000 C 
BRANCH  15  16
ATOM     16  C   UNL     1       2.950   2.747  18.979  0.00  0.00    +0.000 A 
ATOM     17  C   UNL     1       3.454   2.607  20.285  0.00  0.00    +0.000 A 
ATOM     18  C   UNL     1       2.609   2.697  21.395  0.00  0.00    +0.000 A 
ATOM     19  C   UNL     1       1.247   2.926  21.216  0.00  0.00    +0.000 A 
ATOM     20  C   UNL     1       0.730   3.050  19.927  0.00  0.00    +0.000 A 
ATOM     21  C   UNL     1       1.575   2.957  18.816  0.00  0.00    +0.000 A 
ENDBRANCH  15  16
ENDBRANCH   5  15
TORSDOF 6
ENDMDL
MODEL 6
REMARK VINA RESULT:      -6.7      2.719      5.076
REMARK  Name = 
REMARK  8 active torsions:
REMARK  status: ('A' for Active; 'I' for Inactive)
REMARK    1  A    between atoms: C_1  and  C_2
REMARK    2  A    between atoms: C_2  and  N_3
REMARK    3  A    between atoms: N_3  and  C_4
REMARK    4  A    between atoms: C_5  and  O_7
REMARK    5  A    between atoms: O_7  and  C_8
REMARK    6  A    between atoms: C_8  and  C_9
REMARK    7  A    between atoms: N_13  and  C_14
REMARK    8  A    between atoms: C_14  and  C_15
REMARK                            x       y       z     vdW  Elec       q    Type
REMARK                         _______ _______ _______ _____ _____    ______ ____
ROOT
ATOM      1  C   UNL     1       3.323   2.871  20.281  0.00  0.00    +0.000 C 
ATOM      2  C   UNL     1       1.966   2.161  20.296  0.00  0.00    +0.000 C 
ATOM      3  C   UNL     1       0.909   2.950  19.540  0.00  0.00    +0.000 C 
ATOM      4  C   UNL     1       0.772   4.346  20.134  0.00  0.00    +0.000 C 
ATOM      5  N   UNL     1       2.009   5.122  19.978  0.00  0.00    +0.000 NA
ATOM      6  C   UNL     1       3.191   4.400  20.513  0.00  0.00    +0.000 C 
ENDROOT
BRANCH   1   7
ATOM      7  C   UNL     1       4.154   2.471  19.046  0.00  0.00    +0.000 C 
BRANCH   7   8
ATOM      8  O   UNL     1       4.922   3.607  18.558  0.00  0.00    +0.000 OA
BRANCH   8  11
ATOM      9  N   UNL     1       5.770   4.478  16.592  0.00  0.00    +0.000 N 
ATOM     10  C   UNL     1       7.073   4.609  17.218  0.00  0.00    +0.000 C 
ATOM     11  C   UNL     1       4.658   3.991  17.271  0.00  0.00    +0.000 C 
ATOM     12  O   UNL     1       3.545   3.923  16.766  0.00  0.00    +0.000 OA
BRANCH   9  14
ATOM     13  C   UNL     1       6.149   3.956  14.186  0.00  0.00    +0.000 C 
ATOM     14  C   UNL     1       5.613   4.942  15.213  0.00  0.00    +0.000 C 
ENDBRANCH   9  14
ENDBRANCH   8  11
ENDBRANCH   7   8
ENDBRANCH   1   7
BRANCH   5  15
ATOM     15  C   UNL     1       1.888   6.418  20.706  0.00  0.00    +0.000 C 
BRANCH  15  16
ATOM     16  C   UNL     1       1.817   7.678  19.859  0.00  0.00    +0.000 A 
ATOM     17  C   UNL     1       2.372   7.702  18.566  0.00  0.00    +0.000 A 
ATOM     18  C   UNL     1       2.226   8.822  17.743  0.00  0.00    +0.000 A 
ATOM     19  C   UNL     1       1.526   9.936  18.200  0.00  0.00    +0.000 A 
ATOM     20  C   UNL     1       0.985   9.933  19.485  0.00  0.00    +0.000 A 
ATOM     21  C   UNL     1       1.133   8.814  20.311  0.00  0.00    +0.000 A 
ENDBRANCH  15  16
ENDBRANCH   5  15
TORSDOF 6
ENDMDL
MODEL 7
REMARK VINA RESULT:      -6.7      0.926      1.472
REMARK  Name = 
REMARK  8 active torsions:
REMARK  status: ('A' for Active; 'I' for Inactive)
REMARK    1  A    between atoms: C_1  and  C_2
REMARK    2  A    between atoms: C_2  and  N_3
REMARK    3  A    between atoms: N_3  and  C_4
REMARK    4  A    between atoms: C_5  and  O_7
REMARK    5  A    between atoms: O_7  and  C_8
REMARK    6  A    between atoms: C_8  and  C_9
REMARK    7  A    between atoms: N_13  and  C_14
REMARK    8  A    between atoms: C_14  and  C_15
REMARK                            x       y       z     vdW  Elec       q    Type
REMARK                         _______ _______ _______ _____ _____    ______ ____
ROOT
ATOM      1  C   UNL     1       5.704   7.051  16.900  0.00  0.00    +0.000 C 
ATOM      2  C   UNL     1       7.147   7.048  17.412  0.00  0.00    +0.000 C 
ATOM      3  C   UNL     1       7.542   5.691  17.976  0.00  0.00    +0.000 C 
ATOM      4  C   UNL     1       6.590   5.292  19.097  0.00  0.00    +0.000 C 
ATOM      5  N   UNL     1       5.219   5.114  18.603  0.00  0.00    +0.000 NA
ATOM      6  C   UNL     1       4.736   6.304  17.857  0.00  0.00    +0.000 C 
ENDROOT
BRANCH   1   7
ATOM      7  C   UNL     1       5.629   6.609  15.425  0.00  0.00    +0.000 C 
BRANCH   7   8
ATOM      8  O   UNL     1       6.638   5.599  15.143  0.00  0.00    +0.000 OA
BRANCH   8  11
ATOM      9  N   UNL     1       6.670   4.229  13.281  0.00  0.00    +0.000 N 
ATOM     10  C   UNL     1       7.551   5.170  12.612  0.00  0.00    +0.000 C 
ATOM     11  C   UNL     1       6.177   4.448  14.564  0.00  0.00    +0.000 C 
ATOM     12  O   UNL     1       5.396   3.684  15.117  0.00  0.00    +0.000 OA
BRANCH   9  14
ATOM     13  C   UNL     1       4.982   3.278  11.716  0.00  0.00    +0.000 C 
ATOM     14  C   UNL     1       6.235   3.041  12.546  0.00  0.00    +0.000 C 
ENDBRANCH   9  14
ENDBRANCH   8  11
ENDBRANCH   7   8
ENDBRANCH   1   7
BRANCH   5  15
ATOM     15  C   UNL     1       4.294   4.879  19.749  0.00  0.00    +0.000 C 
BRANCH  15  16
ATOM     16  C   UNL     1       3.024   4.098  19.458  0.00  0.00    +0.000 A 
ATOM     17  C   UNL     1       2.990   3.152  18.417  0.00  0.00    +0.000 A 
ATOM     18  C   UNL     1       1.858   2.360  18.205  0.00  0.00    +0.000 A 
ATOM     19  C   UNL     1       0.743   2.502  19.028  0.00  0.00    +0.000 A 
ATOM     20  C   UNL     1       0.757   3.447  20.053  0.00  0.00    +0.000 A 
ATOM     21  C   UNL     1       1.888   4.242  20.265  0.00  0.00    +0.000 A 
ENDBRANCH  15  16
ENDBRANCH   5  15
TORSDOF 6
ENDMDL
MODEL 8
REMARK VINA RESULT:      -6.7      1.099      1.961
REMARK  Name = 
REMARK  8 active torsions:
REMARK  status: ('A' for Active; 'I' for Inactive)
REMARK    1  A    between atoms: C_1  and  C_2
REMARK    2  A    between atoms: C_2  and  N_3
REMARK    3  A    between atoms: N_3  and  C_4
REMARK    4  A    between atoms: C_5  and  O_7
REMARK    5  A    between atoms: O_7  and  C_8
REMARK    6  A    between atoms: C_8  and  C_9
REMARK    7  A    between atoms: N_13  and  C_14
REMARK    8  A    between atoms: C_14  and  C_15
REMARK                            x       y       z     vdW  Elec       q    Type
REMARK                         _______ _______ _______ _____ _____    ______ ____
ROOT
ATOM      1  C   UNL     1       5.308   6.883  16.870  0.00  0.00    +0.000 C 
ATOM      2  C   UNL     1       6.727   7.237  17.324  0.00  0.00    +0.000 C 
ATOM      3  C   UNL     1       7.472   6.019  17.847  0.00  0.00    +0.000 C 
ATOM      4  C   UNL     1       6.700   5.387  18.999  0.00  0.00    +0.000 C 
ATOM      5  N   UNL     1       5.396   4.875  18.557  0.00  0.00    +0.000 NA
ATOM      6  C   UNL     1       4.600   5.911  17.852  0.00  0.00    +0.000 C 
ENDROOT
BRANCH   1   7
ATOM      7  C   UNL     1       5.282   6.445  15.392  0.00  0.00    +0.000 C 
BRANCH   7   8
ATOM      8  O   UNL     1       5.777   5.084  15.254  0.00  0.00    +0.000 OA
BRANCH   8  11
ATOM      9  N   UNL     1       6.300   4.123  13.217  0.00  0.00    +0.000 N 
ATOM     10  C   UNL     1       4.974   3.534  13.161  0.00  0.00    +0.000 C 
ATOM     11  C   UNL     1       6.732   4.896  14.291  0.00  0.00    +0.000 C 
ATOM     12  O   UNL     1       7.864   5.355  14.369  0.00  0.00    +0.000 OA
BRANCH   9  14
ATOM     13  C   UNL     1       6.981   2.488  11.466  0.00  0.00    +0.000 C 
ATOM     14  C   UNL     1       7.236   3.832  12.131  0.00  0.00    +0.000 C 
ENDBRANCH   9  14
ENDBRANCH   8  11
ENDBRANCH   7   8
ENDBRANCH   1   7
BRANCH   5  15
ATOM     15  C   UNL     1       4.610   4.408  19.736  0.00  0.00    +0.000 C 
BRANCH  15  16
ATOM     16  C   UNL     1       3.239   3.816  19.457  0.00  0.00    +0.000 A 
ATOM     17  C   UNL     1       3.078   2.820  18.476  0.00  0.00    +0.000 A 
ATOM     18  C   UNL     1       1.841   2.200  18.280  0.00  0.00    +0.000 A 
ATOM     19  C   UNL     1       0.746   2.566  19.058  0.00  0.00    +0.000 A 
ATOM     20  C   UNL     1       0.887   3.564  20.023  0.00  0.00    +0.000 A 
ATOM     21  C   UNL     1       2.124   4.187  20.218  0.00  0.00    +0.000 A 
ENDBRANCH  15  16
ENDBRANCH   5  15
TORSDOF 6
ENDMDL
MODEL 9
REMARK VINA RESULT:      -6.6      3.890      7.392
REMARK  Name = 
REMARK  8 active torsions:
REMARK  status: ('A' for Active; 'I' for Inactive)
REMARK    1  A    between atoms: C_1  and  C_2
REMARK    2  A    between atoms: C_2  and  N_3
REMARK    3  A    between atoms: N_3  and  C_4
REMARK    4  A    between atoms: C_5  and  O_7
REMARK    5  A    between atoms: O_7  and  C_8
REMARK    6  A    between atoms: C_8  and  C_9
REMARK    7  A    between atoms: N_13  and  C_14
REMARK    8  A    between atoms: C_14  and  C_15
REMARK                            x       y       z     vdW  Elec       q    Type
REMARK                         _______ _______ _______ _____ _____    ______ ____
ROOT
ATOM      1  C   UNL     1       1.523   4.768  19.885  0.00  0.00    +0.000 C 
ATOM      2  C   UNL     1       1.295   3.429  20.592  0.00  0.00    +0.000 C 
ATOM      3  C   UNL     1       2.571   2.908  21.236  0.00  0.00    +0.000 C 
ATOM      4  C   UNL     1       3.666   2.763  20.187  0.00  0.00    +0.000 C 
ATOM      5  N   UNL     1       4.035   4.061  19.609  0.00  0.00    +0.000 NA
ATOM      6  C   UNL     1       2.854   4.795  19.087  0.00  0.00    +0.000 C 
ENDROOT
BRANCH   1   7
ATOM      7  C   UNL     1       1.318   5.955  20.848  0.00  0.00    +0.000 C 
BRANCH   7   8
ATOM      8  O   UNL     1       2.095   7.106  20.410  0.00  0.00    +0.000 OA
BRANCH   8  11
ATOM      9  N   UNL     1       1.401   8.963  19.221  0.00  0.00    +0.000 N 
ATOM     10  C   UNL     1       2.040   8.432  18.031  0.00  0.00    +0.000 C 
ATOM     11  C   UNL     1       1.442   8.309  20.449  0.00  0.00    +0.000 C 
ATOM     12  O   UNL     1       0.949   8.772  21.469  0.00  0.00    +0.000 OA
BRANCH   9  14
ATOM     13  C   UNL     1       1.668  11.364  18.612  0.00  0.00    +0.000 C 
ATOM     14  C   UNL     1       0.749  10.270  19.136  0.00  0.00    +0.000 C 
ENDBRANCH   9  14
ENDBRANCH   8  11
ENDBRANCH   7   8
ENDBRANCH   1   7
BRANCH   5  15
ATOM     15  C   UNL     1       4.992   3.861  18.483  0.00  0.00    +0.000 C 
BRANCH  15  16
ATOM     16  C   UNL     1       5.951   5.001  18.185  0.00  0.00    +0.000 A 
ATOM     17  C   UNL     1       5.693   5.893  17.128  0.00  0.00    +0.000 A 
ATOM     18  C   UNL     1       6.517   7.000  16.907  0.00  0.00    +0.000 A 
ATOM     19  C   UNL     1       7.611   7.232  17.737  0.00  0.00    +0.000 A 
ATOM     20  C   UNL     1       7.888   6.347  18.778  0.00  0.00    +0.000 A 
ATOM     21  C   UNL     1       7.067   5.236  18.998  0.00  0.00    +0.000 A 
ENDBRANCH  15  16
ENDBRANCH   5  15
TORSDOF 6
ENDMDL
