MODEL 1
REMARK VINA RESULT:      -7.9      0.000      0.000
REMARK  Name = 
REMARK  7 active torsions:
REMARK  status: ('A' for Active; 'I' for Inactive)
REMARK    1  A    between atoms: C_1  and  N_2
REMARK    2  A    between atoms: N_2  and  C_3
REMARK    3  A    between atoms: N_2  and  C_4
REMARK    4  A    between atoms: C_4  and  C_5
REMARK    5  A    between atoms: C_5  and  C_6
REMARK    6  A    between atoms: C_6  and  N_7
REMARK    7  A    between atoms: N_7  and  C_8
REMARK                            x       y       z     vdW  Elec       q    Type
REMARK                         _______ _______ _______ _____ _____    ______ ____
ROOT
ATOM      1  C   UNL     1       2.781   6.429  19.555  0.00  0.00    +0.000 A 
ATOM      2  C   UNL     1       2.185   7.706  19.326  0.00  0.00    +0.000 A 
ATOM      3  C   UNL     1       1.306   8.330  20.253  0.00  0.00    +0.000 A 
ATOM      4  C   UNL     1       0.741   9.581  20.006  0.00  0.00    +0.000 A 
ATOM      5  C   UNL     1       1.042  10.242  18.826  0.00  0.00    +0.000 A 
ATOM      6  C   UNL     1       1.914   9.650  17.912  0.00  0.00    +0.000 A 
ATOM      7  C   UNL     1       2.495   8.405  18.128  0.00  0.00    +0.000 A 
ATOM      8  N   UNL     1       3.319   7.956  17.171  0.00  0.00    +0.000 NA
ATOM      9  C   UNL     1       3.852   6.729  17.367  0.00  0.00    +0.000 A 
ATOM     10  C   UNL     1       3.579   5.973  18.496  0.00  0.00    +0.000 A 
ATOM     11  N   UNL     1       4.217   4.774  18.311  0.00  0.00    +0.000 N 
ATOM     12  C   UNL     1       5.007   4.776  17.201  0.00  0.00    +0.000 A 
ATOM     13  C   UNL     1       5.878   3.783  16.754  0.00  0.00    +0.000 A 
ATOM     14  C   UNL     1       6.523   4.031  15.543  0.00  0.00    +0.000 A 
ATOM     15  C   UNL     1       6.286   5.211  14.851  0.00  0.00    +0.000 A 
ATOM     16  F   UNL     1       6.914   5.403  13.685  0.00  0.00    +0.000 F 
ATOM     17  C   UNL     1       5.423   6.201  15.326  0.00  0.00    +0.000 A 
ATOM     18  C   UNL     1       4.762   5.983  16.550  0.00  0.00    +0.000 A 
ATOM     19  H   UNL     1       4.161   3.987  18.931  0.00  0.00    +0.000 HD
ENDROOT
BRANCH   1  20
ATOM     20  N   UNL     1       2.518   5.649  20.704  0.00  0.00    +0.000 N 
ATOM     21  H   UNL     1       3.348   5.153  21.015  0.00  0.00    +0.000 HD
BRANCH  20  22
ATOM     22  C   UNL     1       1.369   4.735  20.605  0.00  0.00    +0.000 C 
BRANCH  22  23
ATOM     23  C   UNL     1       1.632   3.423  21.326  0.00  0.00    +0.000 C 
BRANCH  23  24
ATOM     24  C   UNL     1       1.909   2.291  20.319  0.00  0.00    +0.000 C 
BRANCH  24  26
ATOM     25  C   UNL     1       4.320   2.115  20.562  0.00  0.00    +0.000 C 
ATOM     26  N   UNL     1       3.216   2.406  19.644  0.00  0.00    +0.000 NA
ATOM     27  C   UNL     1       3.288   1.501  18.491  0.00  0.00    +0.000 C 
ENDBRANCH  24  26
ENDBRANCH  23  24
ENDBRANCH  22  23
ENDBRANCH  20  22
ENDBRANCH   1  20
TORSDOF 5
ENDMDL
MODEL 2
REMARK VINA RESULT:      -7.5      2.260      5.365
REMARK  Name = 
REMARK  7 active torsions:
REMARK  status: ('A' for Active; 'I' for Inactive)
REMARK    1  A    between atoms: C_1  and  N_2
REMARK    2  A    between atoms: N_2  and  C_3
REMARK    3  A    between atoms: N_2  and  C_4
REMARK    4  A    between atoms: C_4  and  C_5
REMARK    5  A    between atoms: C_5  and  C_6
REMARK    6  A    between atoms: C_6  and  N_7
REMARK    7  A    between atoms: N_7  and  C_8
REMARK                            x       y       z     vdW  Elec       q    Type
REMARK                         _______ _______ _______ _____ _____    ______ ____
ROOT
ATOM      1  C   UNL     1       4.762   4.907  18.578  0.00  0.00    +0.000 A 
ATOM      2  C   UNL     1       5.332   4.949  17.270  0.00  0.00    +0.000 A 
ATOM      3  C   UNL     1       6.277   3.996  16.803  0.00  0.00    +0.000 A 
ATOM      4  C   UNL     1       6.814   4.058  15.518  0.00  0.00    +0.000 A 
ATOM      5  C   UNL     1       6.420   5.076  14.665  0.00  0.00    +0.000 A 
ATOM      6  C   UNL     1       5.483   6.012  15.102  0.00  0.00    +0.000 A 
ATOM      7  C   UNL     1       4.927   5.977  16.376  0.00  0.00    +0.000 A 
ATOM      8  N   UNL     1       4.033   6.934  16.665  0.00  0.00    +0.000 NA
ATOM      9  C   UNL     1       3.523   6.920  17.917  0.00  0.00    +0.000 A 
ATOM     10  C   UNL     1       3.886   5.967  18.855  0.00  0.00    +0.000 A 
ATOM     11  N   UNL     1       3.242   6.313  20.014  0.00  0.00    +0.000 N 
ATOM     12  C   UNL     1       2.369   7.343  19.831  0.00  0.00    +0.000 A 
ATOM     13  C   UNL     1       1.470   7.892  20.745  0.00  0.00    +0.000 A 
ATOM     14  C   UNL     1       0.733   8.988  20.299  0.00  0.00    +0.000 A 
ATOM     15  C   UNL     1       0.909   9.475  19.011  0.00  0.00    +0.000 A 
ATOM     16  F   UNL     1       0.192  10.538  18.628  0.00  0.00    +0.000 F 
ATOM     17  C   UNL     1       1.802   8.898  18.104  0.00  0.00    +0.000 A 
ATOM     18  C   UNL     1       2.556   7.785  18.523  0.00  0.00    +0.000 A 
ATOM     19  H   UNL     1       3.350   5.848  20.897  0.00  0.00    +0.000 HD
ENDROOT
BRANCH   1  20
ATOM     20  N   UNL     1       5.117   3.937  19.545  0.00  0.00    +0.000 N 
ATOM     21  H   UNL     1       6.124   3.824  19.605  0.00  0.00    +0.000 HD
BRANCH  20  22
ATOM     22  C   UNL     1       4.449   2.633  19.414  0.00  0.00    +0.000 C 
BRANCH  22  23
ATOM     23  C   UNL     1       3.168   2.574  20.229  0.00  0.00    +0.000 C 
BRANCH  23  24
ATOM     24  C   UNL     1       1.998   2.055  19.373  0.00  0.00    +0.000 C 
BRANCH  24  26
ATOM     25  C   UNL     1       0.787   3.959  20.275  0.00  0.00    +0.000 C 
ATOM     26  N   UNL     1       0.951   3.064  19.125  0.00  0.00    +0.000 NA
ATOM     27  C   UNL     1       1.265   3.858  17.931  0.00  0.00    +0.000 C 
ENDBRANCH  24  26
ENDBRANCH  23  24
ENDBRANCH  22  23
ENDBRANCH  20  22
ENDBRANCH   1  20
TORSDOF 5
ENDMDL
MODEL 3
REMARK VINA RESULT:      -7.3      2.485      5.446
REMARK  Name = 
REMARK  7 active torsions:
REMARK  status: ('A' for Active; 'I' for Inactive)
REMARK    1  A    between atoms: C_1  and  N_2
REMARK    2  A    between atoms: N_2  and  C_3
REMARK    3  A    between atoms: N_2  and  C_4
REMARK    4  A    between atoms: C_4  and  C_5
REMARK    5  A    between atoms: C_5  and  C_6
REMARK    6  A    between atoms: C_6  and  N_7
REMARK    7  A    between atoms: N_7  and  C_8
REMARK                            x       y       z     vdW  Elec       q    Type
REMARK                         _______ _______ _______ _____ _____    ______ ____
ROOT
ATOM      1  C   UNL     1       3.403   5.784  19.586  0.00  0.00    +0.000 A 
ATOM      2  C   UNL     1       4.219   5.651  18.423  0.00  0.00    +0.000 A 
ATOM      3  C   UNL     1       5.107   4.560  18.218  0.00  0.00    +0.000 A 
ATOM      4  C   UNL     1       5.889   4.452  17.068  0.00  0.00    +0.000 A 
ATOM      5  C   UNL     1       5.803   5.432  16.093  0.00  0.00    +0.000 A 
ATOM      6  C   UNL     1       4.927   6.502  16.271  0.00  0.00    +0.000 A 
ATOM      7  C   UNL     1       4.132   6.639  17.405  0.00  0.00    +0.000 A 
ATOM      8  N   UNL     1       3.329   7.712  17.446  0.00  0.00    +0.000 NA
ATOM      9  C   UNL     1       2.586   7.862  18.566  0.00  0.00    +0.000 A 
ATOM     10  C   UNL     1       2.633   6.956  19.614  0.00  0.00    +0.000 A 
ATOM     11  N   UNL     1       1.824   7.471  20.594  0.00  0.00    +0.000 N 
ATOM     12  C   UNL     1       1.143   8.573  20.174  0.00  0.00    +0.000 A 
ATOM     13  C   UNL     1       0.161   9.296  20.850  0.00  0.00    +0.000 A 
ATOM     14  C   UNL     1      -0.328  10.427  20.197  0.00  0.00    +0.000 A 
ATOM     15  C   UNL     1       0.158  10.781  18.946  0.00  0.00    +0.000 A 
ATOM     16  F   UNL     1      -0.328  11.881  18.361  0.00  0.00    +0.000 F 
ATOM     17  C   UNL     1       1.129  10.031  18.277  0.00  0.00    +0.000 A 
ATOM     18  C   UNL     1       1.638   8.879  18.908  0.00  0.00    +0.000 A 
ATOM     19  H   UNL     1       1.697   7.073  21.507  0.00  0.00    +0.000 HD
ENDROOT
BRANCH   1  20
ATOM     20  N   UNL     1       3.435   4.866  20.662  0.00  0.00    +0.000 N 
ATOM     21  H   UNL     1       4.112   4.128  20.500  0.00  0.00    +0.000 HD
BRANCH  20  22
ATOM     22  C   UNL     1       2.134   4.306  21.060  0.00  0.00    +0.000 C 
BRANCH  22  23
ATOM     23  C   UNL     1       1.949   2.891  20.536  0.00  0.00    +0.000 C 
BRANCH  23  24
ATOM     24  C   UNL     1       0.788   2.829  19.525  0.00  0.00    +0.000 C 
BRANCH  24  26
ATOM     25  C   UNL     1       1.286   4.054  17.487  0.00  0.00    +0.000 C 
ATOM     26  N   UNL     1       1.230   2.734  18.121  0.00  0.00    +0.000 NA
ATOM     27  C   UNL     1       2.547   2.093  18.032  0.00  0.00    +0.000 C 
ENDBRANCH  24  26
ENDBRANCH  23  24
ENDBRANCH  22  23
ENDBRANCH  20  22
ENDBRANCH   1  20
TORSDOF 5
ENDMDL
MODEL 4
REMARK VINA RESULT:      -7.3      1.031      1.279
REMARK  Name = 
REMARK  7 active torsions:
REMARK  status: ('A' for Active; 'I' for Inactive)
REMARK    1  A    between atoms: C_1  and  N_2
REMARK    2  A    between atoms: N_2  and  C_3
REMARK    3  A    between atoms: N_2  and  C_4
REMARK    4  A    between atoms: C_4  and  C_5
REMARK    5  A    between atoms: C_5  and  C_6
REMARK    6  A    between atoms: C_6  and  N_7
REMARK    7  A    between atoms: N_7  and  C_8
REMARK                            x       y       z     vdW  Elec       q    Type
REMARK                         _______ _______ _______ _____ _____    ______ ____
ROOT
ATOM      1  C   UNL     1       2.749   6.337  20.036  0.00  0.00    +0.000 A 
ATOM      2  C   UNL     1       2.023   7.540  19.785  0.00  0.00    +0.000 A 
ATOM      3  C   UNL     1       1.115   8.108  20.720  0.00  0.00    +0.000 A 
ATOM      4  C   UNL     1       0.421   9.288  20.450  0.00  0.00    +0.000 A 
ATOM      5  C   UNL     1       0.618   9.930  19.239  0.00  0.00    +0.000 A 
ATOM      6  C   UNL     1       1.516   9.395  18.316  0.00  0.00    +0.000 A 
ATOM      7  C   UNL     1       2.224   8.221  18.554  0.00  0.00    +0.000 A 
ATOM      8  N   UNL     1       3.060   7.820  17.585  0.00  0.00    +0.000 NA
ATOM      9  C   UNL     1       3.718   6.660  17.804  0.00  0.00    +0.000 A 
ATOM     10  C   UNL     1       3.556   5.923  18.967  0.00  0.00    +0.000 A 
ATOM     11  N   UNL     1       4.304   4.786  18.800  0.00  0.00    +0.000 N 
ATOM     12  C   UNL     1       5.055   4.825  17.664  0.00  0.00    +0.000 A 
ATOM     13  C   UNL     1       6.007   3.907  17.222  0.00  0.00    +0.000 A 
ATOM     14  C   UNL     1       6.586   4.173  15.981  0.00  0.00    +0.000 A 
ATOM     15  C   UNL     1       6.212   5.297  15.258  0.00  0.00    +0.000 A 
ATOM     16  F   UNL     1       6.782   5.506  14.066  0.00  0.00    +0.000 F 
ATOM     17  C   UNL     1       5.270   6.215  15.729  0.00  0.00    +0.000 A 
ATOM     18  C   UNL     1       4.672   5.977  16.982  0.00  0.00    +0.000 A 
ATOM     19  H   UNL     1       4.346   4.021  19.449  0.00  0.00    +0.000 HD
ENDROOT
BRANCH   1  20
ATOM     20  N   UNL     1       2.601   5.578  21.220  0.00  0.00    +0.000 N 
ATOM     21  H   UNL     1       3.428   5.637  21.806  0.00  0.00    +0.000 HD
BRANCH  20  22
ATOM     22  C   UNL     1       2.192   4.178  21.031  0.00  0.00    +0.000 C 
BRANCH  22  23
ATOM     23  C   UNL     1       0.928   4.070  20.194  0.00  0.00    +0.000 C 
BRANCH  23  24
ATOM     24  C   UNL     1       0.819   2.678  19.543  0.00  0.00    +0.000 C 
BRANCH  24  26
ATOM     25  C   UNL     1       1.174   4.025  17.552  0.00  0.00    +0.000 C 
ATOM     26  N   UNL     1       1.152   2.668  18.106  0.00  0.00    +0.000 NA
ATOM     27  C   UNL     1       2.451   2.026  17.876  0.00  0.00    +0.000 C 
ENDBRANCH  24  26
ENDBRANCH  23  24
ENDBRANCH  22  23
ENDBRANCH  20  22
ENDBRANCH   1  20
TORSDOF 5
ENDMDL
MODEL 5
REMARK VINA RESULT:      -7.3      3.818      7.375
REMARK  Name = 
REMARK  7 active torsions:
REMARK  status: ('A' for Active; 'I' for Inactive)
REMARK    1  A    between atoms: C_1  and  N_2
REMARK    2  A    between atoms: N_2  and  C_3
REMARK    3  A    between atoms: N_2  and  C_4
REMARK    4  A    between atoms: C_4  and  C_5
REMARK    5  A    between atoms: C_5  and  C_6
REMARK    6  A    between atoms: C_6  and  N_7
REMARK    7  A    between atoms: N_7  and  C_8
REMARK                            x       y       z     vdW  Elec       q    Type
REMARK                         _______ _______ _______ _____ _____    ______ ____
ROOT
ATOM      1  C   UNL     1       6.339   5.455  17.267  0.00  0.00    +0.000 A 
ATOM      2  C   UNL     1       6.413   5.030  15.906  0.00  0.00    +0.000 A 
ATOM      3  C   UNL     1       7.521   5.316  15.063  0.00  0.00    +0.000 A 
ATOM      4  C   UNL     1       7.570   4.884  13.737  0.00  0.00    +0.000 A 
ATOM      5  C   UNL     1       6.512   4.154  13.222  0.00  0.00    +0.000 A 
ATOM      6  C   UNL     1       5.423   3.852  14.039  0.00  0.00    +0.000 A 
ATOM      7  C   UNL     1       5.344   4.266  15.364  0.00  0.00    +0.000 A 
ATOM      8  N   UNL     1       4.244   3.902  16.040  0.00  0.00    +0.000 NA
ATOM      9  C   UNL     1       4.153   4.339  17.316  0.00  0.00    +0.000 A 
ATOM     10  C   UNL     1       5.141   5.109  17.909  0.00  0.00    +0.000 A 
ATOM     11  N   UNL     1       4.673   5.428  19.157  0.00  0.00    +0.000 N 
ATOM     12  C   UNL     1       3.512   4.780  19.454  0.00  0.00    +0.000 A 
ATOM     13  C   UNL     1       2.805   4.773  20.655  0.00  0.00    +0.000 A 
ATOM     14  C   UNL     1       1.605   4.061  20.658  0.00  0.00    +0.000 A 
ATOM     15  C   UNL     1       1.173   3.409  19.510  0.00  0.00    +0.000 A 
ATOM     16  F   UNL     1       0.009   2.751  19.552  0.00  0.00    +0.000 F 
ATOM     17  C   UNL     1       1.907   3.414  18.322  0.00  0.00    +0.000 A 
ATOM     18  C   UNL     1       3.127   4.118  18.290  0.00  0.00    +0.000 A 
ATOM     19  H   UNL     1       5.137   6.031  19.813  0.00  0.00    +0.000 HD
ENDROOT
BRANCH   1  20
ATOM     20  N   UNL     1       7.341   6.236  17.888  0.00  0.00    +0.000 N 
ATOM     21  H   UNL     1       7.303   6.153  18.899  0.00  0.00    +0.000 HD
BRANCH  20  22
ATOM     22  C   UNL     1       7.393   7.647  17.480  0.00  0.00    +0.000 C 
BRANCH  22  23
ATOM     23  C   UNL     1       8.372   8.442  18.330  0.00  0.00    +0.000 C 
BRANCH  23  24
ATOM     24  C   UNL     1       8.343   9.934  17.948  0.00  0.00    +0.000 C 
BRANCH  24  26
ATOM     25  C   UNL     1       9.471  12.086  17.994  0.00  0.00    +0.000 C 
ATOM     26  N   UNL     1       9.481  10.704  18.484  0.00  0.00    +0.000 NA
ATOM     27  C   UNL     1       9.464  10.707  19.951  0.00  0.00    +0.000 C 
ENDBRANCH  24  26
ENDBRANCH  23  24
ENDBRANCH  22  23
ENDBRANCH  20  22
ENDBRANCH   1  20
TORSDOF 5
ENDMDL
MODEL 6
REMARK VINA RESULT:      -7.2      2.519      5.526
REMARK  Name = 
REMARK  7 active torsions:
REMARK  status: ('A' for Active; 'I' for Inactive)
REMARK    1  A    between atoms: C_1  and  N_2
REMARK    2  A    between atoms: N_2  and  C_3
REMARK    3  A    between atoms: N_2  and  C_4
REMARK    4  A    between atoms: C_4  and  C_5
REMARK    5  A    between atoms: C_5  and  C_6
REMARK    6  A    between atoms: C_6  and  N_7
REMARK    7  A    between atoms: N_7  and  C_8
REMARK                            x       y       z     vdW  Elec       q    Type
REMARK                         _______ _______ _______ _____ _____    ______ ____
ROOT
ATOM      1  C   UNL     1       2.881   6.212  19.636  0.00  0.00    +0.000 A 
ATOM      2  C   UNL     1       3.684   6.125  18.459  0.00  0.00    +0.000 A 
ATOM      3  C   UNL     1       4.511   5.008  18.164  0.00  0.00    +0.000 A 
ATOM      4  C   UNL     1       5.283   4.947  17.003  0.00  0.00    +0.000 A 
ATOM      5  C   UNL     1       5.246   6.003  16.107  0.00  0.00    +0.000 A 
ATOM      6  C   UNL     1       4.430   7.101  16.374  0.00  0.00    +0.000 A 
ATOM      7  C   UNL     1       3.647   7.192  17.521  0.00  0.00    +0.000 A 
ATOM      8  N   UNL     1       2.903   8.300  17.651  0.00  0.00    +0.000 NA
ATOM      9  C   UNL     1       2.173   8.403  18.784  0.00  0.00    +0.000 A 
ATOM     10  C   UNL     1       2.176   7.418  19.759  0.00  0.00    +0.000 A 
ATOM     11  N   UNL     1       1.399   7.897  20.782  0.00  0.00    +0.000 N 
ATOM     12  C   UNL     1       0.777   9.064  20.453  0.00  0.00    +0.000 A 
ATOM     13  C   UNL     1      -0.163   9.784  21.190  0.00  0.00    +0.000 A 
ATOM     14  C   UNL     1      -0.593  10.986  20.630  0.00  0.00    +0.000 A 
ATOM     15  C   UNL     1      -0.092  11.409  19.406  0.00  0.00    +0.000 A 
ATOM     16  F   UNL     1      -0.520  12.576  18.912  0.00  0.00    +0.000 F 
ATOM     17  C   UNL     1       0.835  10.663  18.675  0.00  0.00    +0.000 A 
ATOM     18  C   UNL     1       1.283   9.440  19.211  0.00  0.00    +0.000 A 
ATOM     19  H   UNL     1       1.253   7.438  21.662  0.00  0.00    +0.000 HD
ENDROOT
BRANCH   1  20
ATOM     20  N   UNL     1       2.866   5.213  20.637  0.00  0.00    +0.000 N 
ATOM     21  H   UNL     1       3.632   4.557  20.518  0.00  0.00    +0.000 HD
BRANCH  20  22
ATOM     22  C   UNL     1       1.591   4.503  20.810  0.00  0.00    +0.000 C 
BRANCH  22  23
ATOM     23  C   UNL     1       1.800   3.092  21.336  0.00  0.00    +0.000 C 
BRANCH  23  24
ATOM     24  C   UNL     1       2.050   2.107  20.179  0.00  0.00    +0.000 C 
BRANCH  24  26
ATOM     25  C   UNL     1       4.473   2.028  20.339  0.00  0.00    +0.000 C 
ATOM     26  N   UNL     1       3.328   2.331  19.477  0.00  0.00    +0.000 NA
ATOM     27  C   UNL     1       3.404   1.515  18.260  0.00  0.00    +0.000 C 
ENDBRANCH  24  26
ENDBRANCH  23  24
ENDBRANCH  22  23
ENDBRANCH  20  22
ENDBRANCH   1  20
TORSDOF 5
ENDMDL
MODEL 7
REMARK VINA RESULT:      -7.0      2.722      6.449
REMARK  Name = 
REMARK  7 active torsions:
REMARK  status: ('A' for Active; 'I' for Inactive)
REMARK    1  A    between atoms: C_1  and  N_2
REMARK    2  A    between atoms: N_2  and  C_3
REMARK    3  A    between atoms: N_2  and  C_4
REMARK    4  A    between atoms: C_4  and  C_5
REMARK    5  A    between atoms: C_5  and  C_6
REMARK    6  A    between atoms: C_6  and  N_7
REMARK    7  A    between atoms: N_7  and  C_8
REMARK                            x       y       z     vdW  Elec       q    Type
REMARK                         _______ _______ _______ _____ _____    ______ ____
ROOT
ATOM      1  C   UNL     1       3.721   5.763  18.258  0.00  0.00    +0.000 A 
ATOM      2  C   UNL     1       3.466   4.720  19.199  0.00  0.00    +0.000 A 
ATOM      3  C   UNL     1       4.087   3.443  19.130  0.00  0.00    +0.000 A 
ATOM      4  C   UNL     1       3.823   2.443  20.065  0.00  0.00    +0.000 A 
ATOM      5  C   UNL     1       2.930   2.695  21.094  0.00  0.00    +0.000 A 
ATOM      6  C   UNL     1       2.322   3.946  21.185  0.00  0.00    +0.000 A 
ATOM      7  C   UNL     1       2.565   4.965  20.270  0.00  0.00    +0.000 A 
ATOM      8  N   UNL     1       1.919   6.122  20.478  0.00  0.00    +0.000 NA
ATOM      9  C   UNL     1       2.128   7.097  19.565  0.00  0.00    +0.000 A 
ATOM     10  C   UNL     1       2.971   6.927  18.478  0.00  0.00    +0.000 A 
ATOM     11  N   UNL     1       2.870   8.078  17.739  0.00  0.00    +0.000 N 
ATOM     12  C   UNL     1       2.131   9.032  18.370  0.00  0.00    +0.000 A 
ATOM     13  C   UNL     1       1.900  10.351  17.978  0.00  0.00    +0.000 A 
ATOM     14  C   UNL     1       1.048  11.094  18.794  0.00  0.00    +0.000 A 
ATOM     15  C   UNL     1       0.481  10.520  19.924  0.00  0.00    +0.000 A 
ATOM     16  F   UNL     1      -0.343  11.264  20.671  0.00  0.00    +0.000 F 
ATOM     17  C   UNL     1       0.740   9.202  20.309  0.00  0.00    +0.000 A 
ATOM     18  C   UNL     1       1.603   8.428  19.508  0.00  0.00    +0.000 A 
ATOM     19  H   UNL     1       3.318   8.239  16.855  0.00  0.00    +0.000 HD
ENDROOT
BRANCH   1  20
ATOM     20  N   UNL     1       4.583   5.609  17.148  0.00  0.00    +0.000 N 
ATOM     21  H   UNL     1       4.751   4.629  16.941  0.00  0.00    +0.000 HD
BRANCH  20  22
ATOM     22  C   UNL     1       5.849   6.354  17.215  0.00  0.00    +0.000 C 
BRANCH  22  23
ATOM     23  C   UNL     1       7.050   5.439  17.040  0.00  0.00    +0.000 C 
BRANCH  23  24
ATOM     24  C   UNL     1       6.761   4.351  15.989  0.00  0.00    +0.000 C 
BRANCH  24  26
ATOM     25  C   UNL     1       7.546   5.114  13.820  0.00  0.00    +0.000 C 
ATOM     26  N   UNL     1       6.375   4.890  14.671  0.00  0.00    +0.000 NA
ATOM     27  C   UNL     1       5.443   3.983  13.990  0.00  0.00    +0.000 C 
ENDBRANCH  24  26
ENDBRANCH  23  24
ENDBRANCH  22  23
ENDBRANCH  20  22
ENDBRANCH   1  20
TORSDOF 5
ENDMDL
MODEL 8
REMARK VINA RESULT:      -6.9      2.869      6.492
REMARK  Name = 
REMARK  7 active torsions:
REMARK  status: ('A' for Active; 'I' for Inactive)
REMARK    1  A    between atoms: C_1  and  N_2
REMARK    2  A    between atoms: N_2  and  C_3
REMARK    3  A    between atoms: N_2  and  C_4
REMARK    4  A    between atoms: C_4  and  C_5
REMARK    5  A    between atoms: C_5  and  C_6
REMARK    6  A    between atoms: C_6  and  N_7
REMARK    7  A    between atoms: N_7  and  C_8
REMARK                            x       y       z     vdW  Elec       q    Type
REMARK                         _______ _______ _______ _____ _____    ______ ____
ROOT
ATOM      1  C   UNL     1       3.181   5.200  18.324  0.00  0.00    +0.000 A 
ATOM      2  C   UNL     1       2.972   4.278  19.394  0.00  0.00    +0.000 A 
ATOM      3  C   UNL     1       3.416   2.928  19.355  0.00  0.00    +0.000 A 
ATOM      4  C   UNL     1       3.203   2.051  20.417  0.00  0.00    +0.000 A 
ATOM      5  C   UNL     1       2.540   2.501  21.548  0.00  0.00    +0.000 A 
ATOM      6  C   UNL     1       2.110   3.826  21.609  0.00  0.00    +0.000 A 
ATOM      7  C   UNL     1       2.309   4.727  20.568  0.00  0.00    +0.000 A 
ATOM      8  N   UNL     1       1.851   5.973  20.760  0.00  0.00    +0.000 NA
ATOM      9  C   UNL     1       2.012   6.835  19.731  0.00  0.00    +0.000 A 
ATOM     10  C   UNL     1       2.625   6.468  18.544  0.00  0.00    +0.000 A 
ATOM     11  N   UNL     1       2.534   7.559  17.719  0.00  0.00    +0.000 N 
ATOM     12  C   UNL     1       2.035   8.651  18.362  0.00  0.00    +0.000 A 
ATOM     13  C   UNL     1       1.898   9.953  17.882  0.00  0.00    +0.000 A 
ATOM     14  C   UNL     1       1.296  10.867  18.746  0.00  0.00    +0.000 A 
ATOM     15  C   UNL     1       0.871  10.466  20.006  0.00  0.00    +0.000 A 
ATOM     16  F   UNL     1       0.285  11.371  20.798  0.00  0.00    +0.000 F 
ATOM     17  C   UNL     1       1.035   9.160  20.475  0.00  0.00    +0.000 A 
ATOM     18  C   UNL     1       1.647   8.216  19.627  0.00  0.00    +0.000 A 
ATOM     19  H   UNL     1       2.836   7.587  16.762  0.00  0.00    +0.000 HD
ENDROOT
BRANCH   1  20
ATOM     20  N   UNL     1       3.811   4.843  17.109  0.00  0.00    +0.000 N 
ATOM     21  H   UNL     1       3.466   3.954  16.758  0.00  0.00    +0.000 HD
BRANCH  20  22
ATOM     22  C   UNL     1       5.282   4.864  17.123  0.00  0.00    +0.000 C 
BRANCH  22  23
ATOM     23  C   UNL     1       5.835   5.987  16.260  0.00  0.00    +0.000 C 
BRANCH  23  24
ATOM     24  C   UNL     1       6.156   7.227  17.115  0.00  0.00    +0.000 C 
BRANCH  24  26
ATOM     25  C   UNL     1       7.949   8.766  17.683  0.00  0.00    +0.000 C 
ATOM     26  N   UNL     1       7.588   7.366  17.442  0.00  0.00    +0.000 NA
ATOM     27  C   UNL     1       7.934   6.564  18.621  0.00  0.00    +0.000 C 
ENDBRANCH  24  26
ENDBRANCH  23  24
ENDBRANCH  22  23
ENDBRANCH  20  22
ENDBRANCH   1  20
TORSDOF 5
ENDMDL
MODEL 9
REMARK VINA RESULT:      -6.9      3.637      6.178
REMARK  Name = 
REMARK  7 active torsions:
REMARK  status: ('A' for Active; 'I' for Inactive)
REMARK    1  A    between atoms: C_1  and  N_2
REMARK    2  A    between atoms: N_2  and  C_3
REMARK    3  A    between atoms: N_2  and  C_4
REMARK    4  A    between atoms: C_4  and  C_5
REMARK    5  A    between atoms: C_5  and  C_6
REMARK    6  A    between atoms: C_6  and  N_7
REMARK    7  A    between atoms: N_7  and  C_8
REMARK                            x       y       z     vdW  Elec       q    Type
REMARK                         _______ _______ _______ _____ _____    ______ ____
ROOT
ATOM      1  C   UNL     1       6.027   5.711  17.478  0.00  0.00    +0.000 A 
ATOM      2  C   UNL     1       4.841   5.292  18.153  0.00  0.00    +0.000 A 
ATOM      3  C   UNL     1       4.526   5.682  19.483  0.00  0.00    +0.000 A 
ATOM      4  C   UNL     1       3.357   5.261  20.117  0.00  0.00    +0.000 A 
ATOM      5  C   UNL     1       2.473   4.439  19.437  0.00  0.00    +0.000 A 
ATOM      6  C   UNL     1       2.760   4.058  18.126  0.00  0.00    +0.000 A 
ATOM      7  C   UNL     1       3.915   4.461  17.465  0.00  0.00    +0.000 A 
ATOM      8  N   UNL     1       4.065   4.029  16.205  0.00  0.00    +0.000 NA
ATOM      9  C   UNL     1       5.207   4.391  15.578  0.00  0.00    +0.000 A 
ATOM     10  C   UNL     1       6.171   5.177  16.189  0.00  0.00    +0.000 A 
ATOM     11  N   UNL     1       7.207   5.267  15.296  0.00  0.00    +0.000 N 
ATOM     12  C   UNL     1       6.897   4.713  14.090  0.00  0.00    +0.000 A 
ATOM     13  C   UNL     1       7.652   4.709  12.918  0.00  0.00    +0.000 A 
ATOM     14  C   UNL     1       7.109   4.009  11.840  0.00  0.00    +0.000 A 
ATOM     15  C   UNL     1       5.885   3.366  11.966  0.00  0.00    +0.000 A 
ATOM     16  F   UNL     1       5.408   2.694  10.912  0.00  0.00    +0.000 F 
ATOM     17  C   UNL     1       5.136   3.399  13.145  0.00  0.00    +0.000 A 
ATOM     18  C   UNL     1       5.655   4.104  14.248  0.00  0.00    +0.000 A 
ATOM     19  H   UNL     1       8.083   5.724  15.470  0.00  0.00    +0.000 HD
ENDROOT
BRANCH   1  20
ATOM     20  N   UNL     1       7.017   6.519  18.085  0.00  0.00    +0.000 N 
ATOM     21  H   UNL     1       6.874   6.592  19.087  0.00  0.00    +0.000 HD
BRANCH  20  22
ATOM     22  C   UNL     1       7.211   7.847  17.485  0.00  0.00    +0.000 C 
BRANCH  22  23
ATOM     23  C   UNL     1       8.320   8.621  18.181  0.00  0.00    +0.000 C 
BRANCH  23  24
ATOM     24  C   UNL     1       8.315  10.098  17.743  0.00  0.00    +0.000 C 
BRANCH  24  26
ATOM     25  C   UNL     1       9.118  12.345  18.201  0.00  0.00    +0.000 C 
ATOM     26  N   UNL     1       9.356  10.912  18.398  0.00  0.00    +0.000 NA
ATOM     27  C   UNL     1       9.418  10.622  19.835  0.00  0.00    +0.000 C 
ENDBRANCH  24  26
ENDBRANCH  23  24
ENDBRANCH  22  23
ENDBRANCH  20  22
ENDBRANCH   1  20
TORSDOF 5
ENDMDL
