MODEL 1
REMARK VINA RESULT:      -7.7      0.000      0.000
REMARK  Name = 
REMARK  8 active torsions:
REMARK  status: ('A' for Active; 'I' for Inactive)
REMARK    1  A    between atoms: C_1  and  C_2
REMARK    2  A    between atoms: C_5  and  N_6
REMARK    3  A    between atoms: C_7  and  C_9
REMARK    4  A    between atoms: C_9  and  S_10
REMARK    5  A    between atoms: S_10  and  C_11
REMARK    6  A    between atoms: N_15  and  C_16
REMARK    7  A    between atoms: C_16  and  C_17
REMARK    8  A    between atoms: C_22  and  C_23
REMARK                            x       y       z     vdW  Elec       q    Type
REMARK                         _______ _______ _______ _____ _____    ______ ____
ROOT
ATOM      1  C   UNL     1       3.411   3.920  19.762  0.00  0.00    +0.000 C 
ENDROOT
BRANCH   1   3
ATOM      2  N   UNL     1       2.794   6.273  19.961  0.00  0.00    +0.000 N 
ATOM      3  C   UNL     1       2.323   4.964  19.958  0.00  0.00    +0.000 C 
ATOM      4  O   UNL     1       1.151   4.610  20.088  0.00  0.00    +0.000 OA
ATOM      5  H   UNL     1       3.769   6.376  19.689  0.00  0.00    +0.000 HD
BRANCH   2  10
ATOM      6  C   UNL     1      -0.705  10.831  20.082  0.00  0.00    +0.000 C 
ATOM      7  C   UNL     1       0.279   9.700  20.089  0.00  0.00    +0.000 A 
ATOM      8  C   UNL     1       0.446   8.904  21.216  0.00  0.00    +0.000 A 
ATOM      9  C   UNL     1       1.313   7.807  21.185  0.00  0.00    +0.000 A 
ATOM     10  C   UNL     1       2.030   7.467  20.033  0.00  0.00    +0.000 A 
ATOM     11  C   UNL     1       1.936   8.321  18.913  0.00  0.00    +0.000 A 
ATOM     12  C   UNL     1       2.739   8.174  17.647  0.00  0.00    +0.000 C 
ATOM     13  C   UNL     1       1.045   9.419  18.955  0.00  0.00    +0.000 A 
ENDBRANCH   2  10
ENDBRANCH   1   3
BRANCH   1  14
ATOM     14  S   UNL     1       4.066   4.013  18.068  0.00  0.00    +0.000 S 
BRANCH  14  15
ATOM     15  C   UNL     1       5.507   4.931  18.339  0.00  0.00    +0.000 A 
ATOM     16  N   UNL     1       6.299   4.778  19.379  0.00  0.00    +0.000 NA
ATOM     17  C   UNL     1       7.316   5.677  19.188  0.00  0.00    +0.000 A 
ATOM     18  C   UNL     1       7.119   6.402  18.037  0.00  0.00    +0.000 A 
ATOM     19  N   UNL     1       5.956   5.911  17.491  0.00  0.00    +0.000 N 
BRANCH  19  20
ATOM     20  C   UNL     1       5.422   6.308  16.197  0.00  0.00    +0.000 C 
BRANCH  20  21
ATOM     21  C   UNL     1       5.813   5.390  15.097  0.00  0.00    +0.000 A 
ATOM     22  C   UNL     1       5.225   4.305  14.474  0.00  0.00    +0.000 A 
ATOM     23  C   UNL     1       6.171   3.817  13.538  0.00  0.00    +0.000 A 
ATOM     24  C   UNL     1       7.270   4.635  13.639  0.00  0.00    +0.000 A 
ATOM     25  O   UNL     1       7.062   5.592  14.579  0.00  0.00    +0.000 OA
ENDBRANCH  20  21
ENDBRANCH  19  20
ENDBRANCH  14  15
ENDBRANCH   1  14
TORSDOF 6
ENDMDL
MODEL 2
REMARK VINA RESULT:      -7.5      0.884      1.633
REMARK  Name = 
REMARK  8 active torsions:
REMARK  status: ('A' for Active; 'I' for Inactive)
REMARK    1  A    between atoms: C_1  and  C_2
REMARK    2  A    between atoms: C_5  and  N_6
REMARK    3  A    between atoms: C_7  and  C_9
REMARK    4  A    between atoms: C_9  and  S_10
REMARK    5  A    between atoms: S_10  and  C_11
REMARK    6  A    between atoms: N_15  and  C_16
REMARK    7  A    between atoms: C_16  and  C_17
REMARK    8  A    between atoms: C_22  and  C_23
REMARK                            x       y       z     vdW  Elec       q    Type
REMARK                         _______ _______ _______ _____ _____    ______ ____
ROOT
ATOM      1  C   UNL     1       3.643   4.282  19.693  0.00  0.00    +0.000 C 
ENDROOT
BRANCH   1   3
ATOM      2  N   UNL     1       2.823   6.579  19.757  0.00  0.00    +0.000 N 
ATOM      3  C   UNL     1       2.732   5.350  19.111  0.00  0.00    +0.000 C 
ATOM      4  O   UNL     1       2.011   5.083  18.150  0.00  0.00    +0.000 OA
ATOM      5  H   UNL     1       3.581   6.652  20.431  0.00  0.00    +0.000 HD
BRANCH   2  10
ATOM      6  C   UNL     1       0.608  11.740  18.534  0.00  0.00    +0.000 C 
ATOM      7  C   UNL     1       1.107  10.353  18.807  0.00  0.00    +0.000 A 
ATOM      8  C   UNL     1       1.892   9.679  17.877  0.00  0.00    +0.000 A 
ATOM      9  C   UNL     1       2.412   8.417  18.174  0.00  0.00    +0.000 A 
ATOM     10  C   UNL     1       2.175   7.792  19.404  0.00  0.00    +0.000 A 
ATOM     11  C   UNL     1       1.307   8.428  20.317  0.00  0.00    +0.000 A 
ATOM     12  C   UNL     1       0.844   7.835  21.623  0.00  0.00    +0.000 C 
ATOM     13  C   UNL     1       0.799   9.711  20.008  0.00  0.00    +0.000 A 
ENDBRANCH   2  10
ENDBRANCH   1   3
BRANCH   1  14
ATOM     14  S   UNL     1       4.780   3.667  18.412  0.00  0.00    +0.000 S 
BRANCH  14  15
ATOM     15  C   UNL     1       6.022   4.868  18.493  0.00  0.00    +0.000 A 
ATOM     16  N   UNL     1       6.963   4.901  19.412  0.00  0.00    +0.000 NA
ATOM     17  C   UNL     1       7.736   5.987  19.093  0.00  0.00    +0.000 A 
ATOM     18  C   UNL     1       7.238   6.635  17.989  0.00  0.00    +0.000 A 
ATOM     19  N   UNL     1       6.138   5.905  17.602  0.00  0.00    +0.000 N 
BRANCH  19  20
ATOM     20  C   UNL     1       5.361   6.159  16.398  0.00  0.00    +0.000 C 
BRANCH  20  21
ATOM     21  C   UNL     1       5.805   5.350  15.234  0.00  0.00    +0.000 A 
ATOM     22  C   UNL     1       5.286   4.276  14.535  0.00  0.00    +0.000 A 
ATOM     23  C   UNL     1       6.257   3.920  13.566  0.00  0.00    +0.000 A 
ATOM     24  C   UNL     1       7.300   4.799  13.724  0.00  0.00    +0.000 A 
ATOM     25  O   UNL     1       7.036   5.671  14.731  0.00  0.00    +0.000 OA
ENDBRANCH  20  21
ENDBRANCH  19  20
ENDBRANCH  14  15
ENDBRANCH   1  14
TORSDOF 6
ENDMDL
MODEL 3
REMARK VINA RESULT:      -7.1      1.204      1.603
REMARK  Name = 
REMARK  8 active torsions:
REMARK  status: ('A' for Active; 'I' for Inactive)
REMARK    1  A    between atoms: C_1  and  C_2
REMARK    2  A    between atoms: C_5  and  N_6
REMARK    3  A    between atoms: C_7  and  C_9
REMARK    4  A    between atoms: C_9  and  S_10
REMARK    5  A    between atoms: S_10  and  C_11
REMARK    6  A    between atoms: N_15  and  C_16
REMARK    7  A    between atoms: C_16  and  C_17
REMARK    8  A    between atoms: C_22  and  C_23
REMARK                            x       y       z     vdW  Elec       q    Type
REMARK                         _______ _______ _______ _____ _____    ______ ____
ROOT
ATOM      1  C   UNL     1       3.126   6.082  18.335  0.00  0.00    +0.000 C 
ENDROOT
BRANCH   1   3
ATOM      2  N   UNL     1       2.092   7.997  19.439  0.00  0.00    +0.000 N 
ATOM      3  C   UNL     1       2.381   6.640  19.537  0.00  0.00    +0.000 C 
ATOM      4  O   UNL     1       2.086   5.897  20.473  0.00  0.00    +0.000 OA
ATOM      5  H   UNL     1       2.280   8.409  18.529  0.00  0.00    +0.000 HD
BRANCH   2  10
ATOM      6  C   UNL     1      -1.316  10.824  23.104  0.00  0.00    +0.000 C 
ATOM      7  C   UNL     1      -0.361  10.160  22.158  0.00  0.00    +0.000 A 
ATOM      8  C   UNL     1       0.640   9.317  22.627  0.00  0.00    +0.000 A 
ATOM      9  C   UNL     1       1.477   8.647  21.731  0.00  0.00    +0.000 A 
ATOM     10  C   UNL     1       1.339   8.789  20.345  0.00  0.00    +0.000 A 
ATOM     11  C   UNL     1       0.386   9.711  19.863  0.00  0.00    +0.000 A 
ATOM     12  C   UNL     1       0.200  10.080  18.414  0.00  0.00    +0.000 C 
ATOM     13  C   UNL     1      -0.463  10.372  20.781  0.00  0.00    +0.000 A 
ENDBRANCH   2  10
ENDBRANCH   1   3
BRANCH   1  14
ATOM     14  S   UNL     1       4.133   4.652  18.835  0.00  0.00    +0.000 S 
BRANCH  14  15
ATOM     15  C   UNL     1       5.714   5.354  18.796  0.00  0.00    +0.000 A 
ATOM     16  N   UNL     1       6.614   5.206  19.744  0.00  0.00    +0.000 NA
ATOM     17  C   UNL     1       7.712   5.898  19.305  0.00  0.00    +0.000 A 
ATOM     18  C   UNL     1       7.461   6.497  18.094  0.00  0.00    +0.000 A 
ATOM     19  N   UNL     1       6.175   6.136  17.768  0.00  0.00    +0.000 N 
BRANCH  19  20
ATOM     20  C   UNL     1       5.526   6.449  16.504  0.00  0.00    +0.000 C 
BRANCH  20  21
ATOM     21  C   UNL     1       5.897   5.516  15.409  0.00  0.00    +0.000 A 
ATOM     22  C   UNL     1       5.267   4.471  14.760  0.00  0.00    +0.000 A 
ATOM     23  C   UNL     1       6.212   3.934  13.850  0.00  0.00    +0.000 A 
ATOM     24  C   UNL     1       7.353   4.686  13.991  0.00  0.00    +0.000 A 
ATOM     25  O   UNL     1       7.172   5.648  14.931  0.00  0.00    +0.000 OA
ENDBRANCH  20  21
ENDBRANCH  19  20
ENDBRANCH  14  15
ENDBRANCH   1  14
TORSDOF 6
ENDMDL
MODEL 4
REMARK VINA RESULT:      -7.0      1.583      2.861
REMARK  Name = 
REMARK  8 active torsions:
REMARK  status: ('A' for Active; 'I' for Inactive)
REMARK    1  A    between atoms: C_1  and  C_2
REMARK    2  A    between atoms: C_5  and  N_6
REMARK    3  A    between atoms: C_7  and  C_9
REMARK    4  A    between atoms: C_9  and  S_10
REMARK    5  A    between atoms: S_10  and  C_11
REMARK    6  A    between atoms: N_15  and  C_16
REMARK    7  A    between atoms: C_16  and  C_17
REMARK    8  A    between atoms: C_22  and  C_23
REMARK                            x       y       z     vdW  Elec       q    Type
REMARK                         _______ _______ _______ _____ _____    ______ ____
ROOT
ATOM      1  C   UNL     1       3.265   3.864  19.897  0.00  0.00    +0.000 C 
ENDROOT
BRANCH   1   3
ATOM      2  N   UNL     1       2.712   6.232  20.092  0.00  0.00    +0.000 N 
ATOM      3  C   UNL     1       2.206   4.954  19.874  0.00  0.00    +0.000 C 
ATOM      4  O   UNL     1       1.029   4.661  19.669  0.00  0.00    +0.000 OA
ATOM      5  H   UNL     1       3.726   6.296  20.092  0.00  0.00    +0.000 HD
BRANCH   2  10
ATOM      6  C   UNL     1      -0.563  10.942  19.727  0.00  0.00    +0.000 C 
ATOM      7  C   UNL     1       0.363   9.771  19.861  0.00  0.00    +0.000 A 
ATOM      8  C   UNL     1       0.425   9.039  21.042  0.00  0.00    +0.000 A 
ATOM      9  C   UNL     1       1.237   7.905  21.130  0.00  0.00    +0.000 A 
ATOM     10  C   UNL     1       2.004   7.462  20.046  0.00  0.00    +0.000 A 
ATOM     11  C   UNL     1       2.017   8.249  18.874  0.00  0.00    +0.000 A 
ATOM     12  C   UNL     1       2.885   7.987  17.671  0.00  0.00    +0.000 C 
ATOM     13  C   UNL     1       1.180   9.386  18.796  0.00  0.00    +0.000 A 
ENDBRANCH   2  10
ENDBRANCH   1   3
BRANCH   1  14
ATOM     14  S   UNL     1       4.917   4.594  19.688  0.00  0.00    +0.000 S 
BRANCH  14  15
ATOM     15  C   UNL     1       5.169   4.321  17.999  0.00  0.00    +0.000 A 
ATOM     16  N   UNL     1       4.232   3.928  17.164  0.00  0.00    +0.000 NA
ATOM     17  C   UNL     1       4.849   3.859  15.942  0.00  0.00    +0.000 A 
ATOM     18  C   UNL     1       6.180   4.183  16.046  0.00  0.00    +0.000 A 
ATOM     19  N   UNL     1       6.378   4.487  17.372  0.00  0.00    +0.000 N 
BRANCH  19  20
ATOM     20  C   UNL     1       7.623   5.002  17.923  0.00  0.00    +0.000 C 
BRANCH  20  21
ATOM     21  C   UNL     1       7.694   6.486  17.921  0.00  0.00    +0.000 A 
ATOM     22  C   UNL     1       7.156   7.489  17.137  0.00  0.00    +0.000 A 
ATOM     23  C   UNL     1       7.686   8.709  17.626  0.00  0.00    +0.000 A 
ATOM     24  C   UNL     1       8.503   8.380  18.680  0.00  0.00    +0.000 A 
ATOM     25  O   UNL     1       8.513   7.036  18.868  0.00  0.00    +0.000 OA
ENDBRANCH  20  21
ENDBRANCH  19  20
ENDBRANCH  14  15
ENDBRANCH   1  14
TORSDOF 6
ENDMDL
MODEL 5
REMARK VINA RESULT:      -7.0      4.274      8.416
REMARK  Name = 
REMARK  8 active torsions:
REMARK  status: ('A' for Active; 'I' for Inactive)
REMARK    1  A    between atoms: C_1  and  C_2
REMARK    2  A    between atoms: C_5  and  N_6
REMARK    3  A    between atoms: C_7  and  C_9
REMARK    4  A    between atoms: C_9  and  S_10
REMARK    5  A    between atoms: S_10  and  C_11
REMARK    6  A    between atoms: N_15  and  C_16
REMARK    7  A    between atoms: C_16  and  C_17
REMARK    8  A    between atoms: C_22  and  C_23
REMARK                            x       y       z     vdW  Elec       q    Type
REMARK                         _______ _______ _______ _____ _____    ______ ____
ROOT
ATOM      1  C   UNL     1       1.363   9.378  22.022  0.00  0.00    +0.000 C 
ENDROOT
BRANCH   1   3
ATOM      2  N   UNL     1       2.019   7.444  20.686  0.00  0.00    +0.000 N 
ATOM      3  C   UNL     1       0.953   8.123  21.270  0.00  0.00    +0.000 C 
ATOM      4  O   UNL     1      -0.232   7.793  21.228  0.00  0.00    +0.000 OA
ATOM      5  H   UNL     1       2.939   7.783  20.955  0.00  0.00    +0.000 HD
BRANCH   2  10
ATOM      6  C   UNL     1       2.337   2.323  18.096  0.00  0.00    +0.000 C 
ATOM      7  C   UNL     1       2.162   3.668  18.734  0.00  0.00    +0.000 A 
ATOM      8  C   UNL     1       1.568   3.795  19.985  0.00  0.00    +0.000 A 
ATOM      9  C   UNL     1       1.477   5.046  20.601  0.00  0.00    +0.000 A 
ATOM     10  C   UNL     1       1.981   6.204  19.997  0.00  0.00    +0.000 A 
ATOM     11  C   UNL     1       2.504   6.099  18.690  0.00  0.00    +0.000 A 
ATOM     12  C   UNL     1       2.965   7.262  17.850  0.00  0.00    +0.000 C 
ATOM     13  C   UNL     1       2.601   4.825  18.085  0.00  0.00    +0.000 A 
ENDBRANCH   2  10
ENDBRANCH   1   3
BRANCH   1  14
ATOM     14  S   UNL     1       1.007  10.851  21.016  0.00  0.00    +0.000 S 
BRANCH  14  15
ATOM     15  C   UNL     1      -0.446  11.404  21.773  0.00  0.00    +0.000 A 
ATOM     16  N   UNL     1      -0.707  11.280  23.057  0.00  0.00    +0.000 NA
ATOM     17  C   UNL     1      -1.935  11.863  23.229  0.00  0.00    +0.000 A 
ATOM     18  C   UNL     1      -2.435  12.315  22.032  0.00  0.00    +0.000 A 
ATOM     19  N   UNL     1      -1.468  12.024  21.099  0.00  0.00    +0.000 N 
BRANCH  19  20
ATOM     20  C   UNL     1      -1.519  12.431  19.704  0.00  0.00    +0.000 C 
BRANCH  20  21
ATOM     21  C   UNL     1      -2.186  11.433  18.827  0.00  0.00    +0.000 A 
ATOM     22  C   UNL     1      -1.767  10.330  18.108  0.00  0.00    +0.000 A 
ATOM     23  C   UNL     1      -2.902   9.852  17.407  0.00  0.00    +0.000 A 
ATOM     24  C   UNL     1      -3.943  10.682  17.746  0.00  0.00    +0.000 A 
ATOM     25  O   UNL     1      -3.519  11.642  18.608  0.00  0.00    +0.000 OA
ENDBRANCH  20  21
ENDBRANCH  19  20
ENDBRANCH  14  15
ENDBRANCH   1  14
TORSDOF 6
ENDMDL
MODEL 6
REMARK VINA RESULT:      -7.0      2.635      5.029
REMARK  Name = 
REMARK  8 active torsions:
REMARK  status: ('A' for Active; 'I' for Inactive)
REMARK    1  A    between atoms: C_1  and  C_2
REMARK    2  A    between atoms: C_5  and  N_6
REMARK    3  A    between atoms: C_7  and  C_9
REMARK    4  A    between atoms: C_9  and  S_10
REMARK    5  A    between atoms: S_10  and  C_11
REMARK    6  A    between atoms: N_15  and  C_16
REMARK    7  A    between atoms: C_16  and  C_17
REMARK    8  A    between atoms: C_22  and  C_23
REMARK                            x       y       z     vdW  Elec       q    Type
REMARK                         _______ _______ _______ _____ _____    ______ ____
ROOT
ATOM      1  C   UNL     1       2.528   8.460  17.687  0.00  0.00    +0.000 C 
ENDROOT
BRANCH   1   3
ATOM      2  N   UNL     1       0.818   9.223  19.252  0.00  0.00    +0.000 N 
ATOM      3  C   UNL     1       1.799   9.619  18.348  0.00  0.00    +0.000 C 
ATOM      4  O   UNL     1       2.106  10.777  18.065  0.00  0.00    +0.000 OA
ATOM      5  H   UNL     1       0.811   8.230  19.466  0.00  0.00    +0.000 HD
BRANCH   2  10
ATOM      6  C   UNL     1      -2.017  12.953  22.583  0.00  0.00    +0.000 C 
ATOM      7  C   UNL     1      -1.354  11.917  21.726  0.00  0.00    +0.000 A 
ATOM      8  C   UNL     1      -1.611  11.846  20.361  0.00  0.00    +0.000 A 
ATOM      9  C   UNL     1      -0.932  10.925  19.560  0.00  0.00    +0.000 A 
ATOM     10  C   UNL     1       0.028  10.054  20.090  0.00  0.00    +0.000 A 
ATOM     11  C   UNL     1       0.230  10.056  21.486  0.00  0.00    +0.000 A 
ATOM     12  C   UNL     1       1.124   9.098  22.229  0.00  0.00    +0.000 C 
ATOM     13  C   UNL     1      -0.455  11.003  22.282  0.00  0.00    +0.000 A 
ENDBRANCH   2  10
ENDBRANCH   1   3
BRANCH   1  14
ATOM     14  S   UNL     1       2.517   7.010  18.786  0.00  0.00    +0.000 S 
BRANCH  14  15
ATOM     15  C   UNL     1       3.544   5.937  17.898  0.00  0.00    +0.000 A 
ATOM     16  N   UNL     1       4.765   6.234  17.508  0.00  0.00    +0.000 NA
ATOM     17  C   UNL     1       5.217   5.110  16.867  0.00  0.00    +0.000 A 
ATOM     18  C   UNL     1       4.248   4.137  16.843  0.00  0.00    +0.000 A 
ATOM     19  N   UNL     1       3.175   4.673  17.516  0.00  0.00    +0.000 N 
BRANCH  19  20
ATOM     20  C   UNL     1       1.957   3.946  17.838  0.00  0.00    +0.000 C 
BRANCH  20  21
ATOM     21  C   UNL     1       1.870   3.553  19.268  0.00  0.00    +0.000 A 
ATOM     22  C   UNL     1       0.941   3.728  20.275  0.00  0.00    +0.000 A 
ATOM     23  C   UNL     1       1.509   3.171  21.448  0.00  0.00    +0.000 A 
ATOM     24  C   UNL     1       2.741   2.683  21.086  0.00  0.00    +0.000 A 
ATOM     25  O   UNL     1       2.968   2.908  19.767  0.00  0.00    +0.000 OA
ENDBRANCH  20  21
ENDBRANCH  19  20
ENDBRANCH  14  15
ENDBRANCH   1  14
TORSDOF 6
ENDMDL
MODEL 7
REMARK VINA RESULT:      -6.9      3.872      8.106
REMARK  Name = 
REMARK  8 active torsions:
REMARK  status: ('A' for Active; 'I' for Inactive)
REMARK    1  A    between atoms: C_1  and  C_2
REMARK    2  A    between atoms: C_5  and  N_6
REMARK    3  A    between atoms: C_7  and  C_9
REMARK    4  A    between atoms: C_9  and  S_10
REMARK    5  A    between atoms: S_10  and  C_11
REMARK    6  A    between atoms: N_15  and  C_16
REMARK    7  A    between atoms: C_16  and  C_17
REMARK    8  A    between atoms: C_22  and  C_23
REMARK                            x       y       z     vdW  Elec       q    Type
REMARK                         _______ _______ _______ _____ _____    ______ ____
ROOT
ATOM      1  C   UNL     1       1.784   9.147  18.535  0.00  0.00    +0.000 C 
ENDROOT
BRANCH   1   3
ATOM      2  N   UNL     1       2.250   6.860  17.824  0.00  0.00    +0.000 N 
ATOM      3  C   UNL     1       2.090   7.708  18.915  0.00  0.00    +0.000 C 
ATOM      4  O   UNL     1       2.181   7.393  20.102  0.00  0.00    +0.000 OA
ATOM      5  H   UNL     1       2.289   7.329  16.922  0.00  0.00    +0.000 HD
BRANCH   2  10
ATOM      6  C   UNL     1       3.754   1.343  18.405  0.00  0.00    +0.000 C 
ATOM      7  C   UNL     1       3.361   2.768  18.154  0.00  0.00    +0.000 A 
ATOM      8  C   UNL     1       2.024   3.129  18.028  0.00  0.00    +0.000 A 
ATOM      9  C   UNL     1       1.667   4.471  17.869  0.00  0.00    +0.000 A 
ATOM     10  C   UNL     1       2.625   5.491  17.839  0.00  0.00    +0.000 A 
ATOM     11  C   UNL     1       3.987   5.125  17.875  0.00  0.00    +0.000 A 
ATOM     12  C   UNL     1       5.141   6.082  17.721  0.00  0.00    +0.000 C 
ATOM     13  C   UNL     1       4.333   3.766  18.050  0.00  0.00    +0.000 A 
ENDBRANCH   2  10
ENDBRANCH   1   3
BRANCH   1  14
ATOM     14  S   UNL     1       0.826   9.950  19.857  0.00  0.00    +0.000 S 
BRANCH  14  15
ATOM     15  C   UNL     1       0.679  11.548  19.211  0.00  0.00    +0.000 A 
ATOM     16  N   UNL     1       1.700  12.324  18.916  0.00  0.00    +0.000 NA
ATOM     17  C   UNL     1       1.142  13.474  18.420  0.00  0.00    +0.000 A 
ATOM     18  C   UNL     1      -0.230  13.403  18.447  0.00  0.00    +0.000 A 
ATOM     19  N   UNL     1      -0.522  12.157  18.951  0.00  0.00    +0.000 N 
BRANCH  19  20
ATOM     20  C   UNL     1      -1.862  11.600  19.047  0.00  0.00    +0.000 C 
BRANCH  20  21
ATOM     21  C   UNL     1      -2.331  10.981  17.780  0.00  0.00    +0.000 A 
ATOM     22  C   UNL     1      -1.933   9.902  17.014  0.00  0.00    +0.000 A 
ATOM     23  C   UNL     1      -2.762   9.898  15.864  0.00  0.00    +0.000 A 
ATOM     24  C   UNL     1      -3.618  10.963  16.002  0.00  0.00    +0.000 A 
ATOM     25  O   UNL     1      -3.367  11.624  17.161  0.00  0.00    +0.000 OA
ENDBRANCH  20  21
ENDBRANCH  19  20
ENDBRANCH  14  15
ENDBRANCH   1  14
TORSDOF 6
ENDMDL
MODEL 8
REMARK VINA RESULT:      -6.8      2.032      6.172
REMARK  Name = 
REMARK  8 active torsions:
REMARK  status: ('A' for Active; 'I' for Inactive)
REMARK    1  A    between atoms: C_1  and  C_2
REMARK    2  A    between atoms: C_5  and  N_6
REMARK    3  A    between atoms: C_7  and  C_9
REMARK    4  A    between atoms: C_9  and  S_10
REMARK    5  A    between atoms: S_10  and  C_11
REMARK    6  A    between atoms: N_15  and  C_16
REMARK    7  A    between atoms: C_16  and  C_17
REMARK    8  A    between atoms: C_22  and  C_23
REMARK                            x       y       z     vdW  Elec       q    Type
REMARK                         _______ _______ _______ _____ _____    ______ ____
ROOT
ATOM      1  C   UNL     1       4.056   2.752  17.517  0.00  0.00    +0.000 C 
ENDROOT
BRANCH   1   3
ATOM      2  N   UNL     1       5.289   4.796  18.025  0.00  0.00    +0.000 N 
ATOM      3  C   UNL     1       5.114   3.764  17.108  0.00  0.00    +0.000 C 
ATOM      4  O   UNL     1       5.727   3.617  16.051  0.00  0.00    +0.000 OA
ATOM      5  H   UNL     1       4.803   4.668  18.909  0.00  0.00    +0.000 HD
BRANCH   2  10
ATOM      6  C   UNL     1       8.895   9.268  18.205  0.00  0.00    +0.000 C 
ATOM      7  C   UNL     1       8.017   8.058  18.093  0.00  0.00    +0.000 A 
ATOM      8  C   UNL     1       8.226   6.945  18.900  0.00  0.00    +0.000 A 
ATOM      9  C   UNL     1       7.356   5.853  18.838  0.00  0.00    +0.000 A 
ATOM     10  C   UNL     1       6.250   5.840  17.980  0.00  0.00    +0.000 A 
ATOM     11  C   UNL     1       6.081   6.926  17.094  0.00  0.00    +0.000 A 
ATOM     12  C   UNL     1       5.026   7.008  16.022  0.00  0.00    +0.000 C 
ATOM     13  C   UNL     1       6.962   8.029  17.178  0.00  0.00    +0.000 A 
ENDBRANCH   2  10
ENDBRANCH   1   3
BRANCH   1  14
ATOM     14  S   UNL     1       2.412   3.529  17.502  0.00  0.00    +0.000 S 
BRANCH  14  15
ATOM     15  C   UNL     1       2.015   3.457  19.184  0.00  0.00    +0.000 A 
ATOM     16  N   UNL     1       1.306   2.496  19.737  0.00  0.00    +0.000 NA
ATOM     17  C   UNL     1       1.251   2.815  21.069  0.00  0.00    +0.000 A 
ATOM     18  C   UNL     1       1.908   3.997  21.317  0.00  0.00    +0.000 A 
ATOM     19  N   UNL     1       2.404   4.401  20.100  0.00  0.00    +0.000 N 
BRANCH  19  20
ATOM     20  C   UNL     1       3.274   5.551  19.905  0.00  0.00    +0.000 C 
BRANCH  20  21
ATOM     21  C   UNL     1       2.550   6.758  19.429  0.00  0.00    +0.000 A 
ATOM     22  C   UNL     1       2.359   7.361  18.201  0.00  0.00    +0.000 A 
ATOM     23  C   UNL     1       1.625   8.549  18.446  0.00  0.00    +0.000 A 
ATOM     24  C   UNL     1       1.405   8.593  19.801  0.00  0.00    +0.000 A 
ATOM     25  O   UNL     1       1.960   7.511  20.406  0.00  0.00    +0.000 OA
ENDBRANCH  20  21
ENDBRANCH  19  20
ENDBRANCH  14  15
ENDBRANCH   1  14
TORSDOF 6
ENDMDL
MODEL 9
REMARK VINA RESULT:      -6.8      4.376      7.937
REMARK  Name = 
REMARK  8 active torsions:
REMARK  status: ('A' for Active; 'I' for Inactive)
REMARK    1  A    between atoms: C_1  and  C_2
REMARK    2  A    between atoms: C_5  and  N_6
REMARK    3  A    between atoms: C_7  and  C_9
REMARK    4  A    between atoms: C_9  and  S_10
REMARK    5  A    between atoms: S_10  and  C_11
REMARK    6  A    between atoms: N_15  and  C_16
REMARK    7  A    between atoms: C_16  and  C_17
REMARK    8  A    between atoms: C_22  and  C_23
REMARK                            x       y       z     vdW  Elec       q    Type
REMARK                         _______ _______ _______ _____ _____    ______ ____
ROOT
ATOM      1  C   UNL     1       1.043   9.415  22.366  0.00  0.00    +0.000 C 
ENDROOT
BRANCH   1   3
ATOM      2  N   UNL     1       1.871   7.689  20.852  0.00  0.00    +0.000 N 
ATOM      3  C   UNL     1       0.751   8.197  21.504  0.00  0.00    +0.000 C 
ATOM      4  O   UNL     1      -0.394   7.751  21.441  0.00  0.00    +0.000 OA
ATOM      5  H   UNL     1       2.756   8.096  21.144  0.00  0.00    +0.000 HD
BRANCH   2  10
ATOM      6  C   UNL     1       2.687   2.915  17.756  0.00  0.00    +0.000 C 
ATOM      7  C   UNL     1       2.378   4.158  18.536  0.00  0.00    +0.000 A 
ATOM      8  C   UNL     1       1.911   4.084  19.844  0.00  0.00    +0.000 A 
ATOM      9  C   UNL     1       1.698   5.250  20.585  0.00  0.00    +0.000 A 
ATOM     10  C   UNL     1       1.949   6.519  20.051  0.00  0.00    +0.000 A 
ATOM     11  C   UNL     1       2.336   6.607  18.697  0.00  0.00    +0.000 A 
ATOM     12  C   UNL     1       2.518   7.894  17.935  0.00  0.00    +0.000 C 
ATOM     13  C   UNL     1       2.561   5.419  17.964  0.00  0.00    +0.000 A 
ENDBRANCH   2  10
ENDBRANCH   1   3
BRANCH   1  14
ATOM     14  S   UNL     1      -0.385  10.542  22.354  0.00  0.00    +0.000 S 
BRANCH  14  15
ATOM     15  C   UNL     1       0.055  11.591  21.051  0.00  0.00    +0.000 A 
ATOM     16  N   UNL     1       0.747  12.700  21.194  0.00  0.00    +0.000 NA
ATOM     17  C   UNL     1       0.886  13.200  19.925  0.00  0.00    +0.000 A 
ATOM     18  C   UNL     1       0.243  12.400  19.011  0.00  0.00    +0.000 A 
ATOM     19  N   UNL     1      -0.284  11.361  19.741  0.00  0.00    +0.000 N 
BRANCH  19  20
ATOM     20  C   UNL     1      -0.953  10.205  19.166  0.00  0.00    +0.000 C 
BRANCH  20  21
ATOM     21  C   UNL     1      -1.978  10.566  18.153  0.00  0.00    +0.000 A 
ATOM     22  C   UNL     1      -2.113  10.382  16.790  0.00  0.00    +0.000 A 
ATOM     23  C   UNL     1      -3.305  11.049  16.410  0.00  0.00    +0.000 A 
ATOM     24  C   UNL     1      -3.828  11.588  17.560  0.00  0.00    +0.000 A 
ATOM     25  O   UNL     1      -3.033  11.300  18.622  0.00  0.00    +0.000 OA
ENDBRANCH  20  21
ENDBRANCH  19  20
ENDBRANCH  14  15
ENDBRANCH   1  14
TORSDOF 6
ENDMDL
