MODEL 1
REMARK VINA RESULT:      -6.5      0.000      0.000
REMARK  Name = 
REMARK  7 active torsions:
REMARK  status: ('A' for Active; 'I' for Inactive)
REMARK    1  A    between atoms: C_1  and  O_2
REMARK    2  A    between atoms: O_2  and  C_3
REMARK    3  A    between atoms: C_3  and  C_5
REMARK    4  A    between atoms: C_5  and  N_6
REMARK    5  A    between atoms: N_6  and  C_7
REMARK    6  A    between atoms: N_6  and  C_8
REMARK    7  A    between atoms: C_8  and  C_9
REMARK                            x       y       z     vdW  Elec       q    Type
REMARK                         _______ _______ _______ _____ _____    ______ ____
ROOT
ATOM      1  C   UNL     1       5.378   5.490  17.375  0.00  0.00    +0.000 C 
ATOM      2  C   UNL     1       6.401   6.382  16.603  0.00  0.00    +0.000 C 
ATOM      3  C   UNL     1       7.229   7.300  17.511  0.00  0.00    +0.000 C 
ATOM      4  C   UNL     1       7.965   6.526  18.592  0.00  0.00    +0.000 C 
ATOM      5  C   UNL     1       7.016   5.639  19.380  0.00  0.00    +0.000 C 
ATOM      6  C   UNL     1       6.195   4.724  18.465  0.00  0.00    +0.000 C 
ENDROOT
BRANCH   1   7
ATOM      7  C   UNL     1       4.305   6.428  18.016  0.00  0.00    +0.000 C 
ATOM      8  O   UNL     1       3.845   7.427  17.472  0.00  0.00    +0.000 OA
BRANCH   7  10
ATOM      9  C   UNL     1       2.555   6.338  19.578  0.00  0.00    +0.000 C 
ATOM     10  O   UNL     1       3.889   5.967  19.229  0.00  0.00    +0.000 OA
ENDBRANCH   7  10
ENDBRANCH   1   7
BRANCH   1  11
ATOM     11  N   UNL     1       4.703   4.499  16.432  0.00  0.00    +0.000 NA
ATOM     12  C   UNL     1       5.388   4.413  15.129  0.00  0.00    +0.000 C 
BRANCH  11  13
ATOM     13  C   UNL     1       4.558   3.144  17.035  0.00  0.00    +0.000 C 
BRANCH  13  14
ATOM     14  C   UNL     1       3.310   2.994  17.854  0.00  0.00    +0.000 A 
ATOM     15  N   UNL     1       2.083   3.268  17.238  0.00  0.00    +0.000 NA
ATOM     16  N   UNL     1       1.061   3.098  18.062  0.00  0.00    +0.000 NA
ATOM     17  S   UNL     1       1.539   2.584  19.584  0.00  0.00    +0.000 S 
ATOM     18  C   UNL     1       3.186   2.582  19.164  0.00  0.00    +0.000 A 
ATOM     19 CL   UNL     1       4.382   2.111  20.289  0.00  0.00    +0.000 Cl
ENDBRANCH  13  14
ENDBRANCH  11  13
ENDBRANCH   1  11
TORSDOF 5
ENDMDL
MODEL 2
REMARK VINA RESULT:      -6.5      2.221      3.394
REMARK  Name = 
REMARK  7 active torsions:
REMARK  status: ('A' for Active; 'I' for Inactive)
REMARK    1  A    between atoms: C_1  and  O_2
REMARK    2  A    between atoms: O_2  and  C_3
REMARK    3  A    between atoms: C_3  and  C_5
REMARK    4  A    between atoms: C_5  and  N_6
REMARK    5  A    between atoms: N_6  and  C_7
REMARK    6  A    between atoms: N_6  and  C_8
REMARK    7  A    between atoms: C_8  and  C_9
REMARK                            x       y       z     vdW  Elec       q    Type
REMARK                         _______ _______ _______ _____ _____    ______ ____
ROOT
ATOM      1  C   UNL     1       4.595   5.439  17.657  0.00  0.00    +0.000 C 
ATOM      2  C   UNL     1       5.208   6.441  16.629  0.00  0.00    +0.000 C 
ATOM      3  C   UNL     1       6.318   5.836  15.762  0.00  0.00    +0.000 C 
ATOM      4  C   UNL     1       5.856   4.591  15.023  0.00  0.00    +0.000 C 
ATOM      5  C   UNL     1       5.250   3.576  15.977  0.00  0.00    +0.000 C 
ATOM      6  C   UNL     1       4.140   4.189  16.836  0.00  0.00    +0.000 C 
ENDROOT
BRANCH   1   7
ATOM      7  C   UNL     1       5.703   5.072  18.695  0.00  0.00    +0.000 C 
ATOM      8  O   UNL     1       5.799   3.981  19.249  0.00  0.00    +0.000 OA
BRANCH   7  10
ATOM      9  C   UNL     1       7.897   5.673  19.275  0.00  0.00    +0.000 C 
ATOM     10  O   UNL     1       6.593   6.089  18.866  0.00  0.00    +0.000 OA
ENDBRANCH   7  10
ENDBRANCH   1   7
BRANCH   1  11
ATOM     11  N   UNL     1       3.399   6.060  18.373  0.00  0.00    +0.000 NA
ATOM     12  C   UNL     1       3.072   7.401  17.854  0.00  0.00    +0.000 C 
BRANCH  11  13
ATOM     13  C   UNL     1       2.195   5.182  18.343  0.00  0.00    +0.000 C 
BRANCH  13  14
ATOM     14  C   UNL     1       2.030   4.364  19.589  0.00  0.00    +0.000 A 
ATOM     15  N   UNL     1       2.553   4.873  20.784  0.00  0.00    +0.000 NA
ATOM     16  N   UNL     1       2.343   4.062  21.808  0.00  0.00    +0.000 NA
ATOM     17  S   UNL     1       1.496   2.683  21.374  0.00  0.00    +0.000 S 
ATOM     18  C   UNL     1       1.391   3.152  19.744  0.00  0.00    +0.000 A 
ATOM     19 CL   UNL     1       0.582   2.179  18.597  0.00  0.00    +0.000 Cl
ENDBRANCH  13  14
ENDBRANCH  11  13
ENDBRANCH   1  11
TORSDOF 5
ENDMDL
MODEL 3
REMARK VINA RESULT:      -6.4      3.208      5.423
REMARK  Name = 
REMARK  7 active torsions:
REMARK  status: ('A' for Active; 'I' for Inactive)
REMARK    1  A    between atoms: C_1  and  O_2
REMARK    2  A    between atoms: O_2  and  C_3
REMARK    3  A    between atoms: C_3  and  C_5
REMARK    4  A    between atoms: C_5  and  N_6
REMARK    5  A    between atoms: N_6  and  C_7
REMARK    6  A    between atoms: N_6  and  C_8
REMARK    7  A    between atoms: C_8  and  C_9
REMARK                            x       y       z     vdW  Elec       q    Type
REMARK                         _______ _______ _______ _____ _____    ______ ____
ROOT
ATOM      1  C   UNL     1       3.003   4.217  19.024  0.00  0.00    +0.000 C 
ATOM      2  C   UNL     1       1.593   3.837  18.473  0.00  0.00    +0.000 C 
ATOM      3  C   UNL     1       0.873   2.767  19.302  0.00  0.00    +0.000 C 
ATOM      4  C   UNL     1       0.743   3.165  20.763  0.00  0.00    +0.000 C 
ATOM      5  C   UNL     1       2.089   3.544  21.355  0.00  0.00    +0.000 C 
ATOM      6  C   UNL     1       2.799   4.616  20.521  0.00  0.00    +0.000 C 
ENDROOT
BRANCH   1   7
ATOM      7  C   UNL     1       3.931   2.968  18.883  0.00  0.00    +0.000 C 
ATOM      8  O   UNL     1       3.942   2.219  17.911  0.00  0.00    +0.000 OA
BRANCH   7  10
ATOM      9  C   UNL     1       4.942   1.505  20.416  0.00  0.00    +0.000 C 
ATOM     10  O   UNL     1       4.777   2.843  19.945  0.00  0.00    +0.000 OA
ENDBRANCH   7  10
ENDBRANCH   1   7
BRANCH   1  11
ATOM     11  N   UNL     1       3.592   5.390  18.244  0.00  0.00    +0.000 NA
ATOM     12  C   UNL     1       2.732   6.586  18.300  0.00  0.00    +0.000 C 
BRANCH  11  13
ATOM     13  C   UNL     1       4.979   5.724  18.675  0.00  0.00    +0.000 C 
BRANCH  13  14
ATOM     14  C   UNL     1       6.017   5.360  17.656  0.00  0.00    +0.000 A 
ATOM     15  N   UNL     1       7.081   4.545  18.063  0.00  0.00    +0.000 NA
ATOM     16  N   UNL     1       7.926   4.296  17.076  0.00  0.00    +0.000 NA
ATOM     17  S   UNL     1       7.459   5.008  15.633  0.00  0.00    +0.000 S 
ATOM     18  C   UNL     1       6.067   5.698  16.320  0.00  0.00    +0.000 A 
ATOM     19 CL   UNL     1       4.988   6.630  15.379  0.00  0.00    +0.000 Cl
ENDBRANCH  13  14
ENDBRANCH  11  13
ENDBRANCH   1  11
TORSDOF 5
ENDMDL
MODEL 4
REMARK VINA RESULT:      -6.4      3.363      5.378
REMARK  Name = 
REMARK  7 active torsions:
REMARK  status: ('A' for Active; 'I' for Inactive)
REMARK    1  A    between atoms: C_1  and  O_2
REMARK    2  A    between atoms: O_2  and  C_3
REMARK    3  A    between atoms: C_3  and  C_5
REMARK    4  A    between atoms: C_5  and  N_6
REMARK    5  A    between atoms: N_6  and  C_7
REMARK    6  A    between atoms: N_6  and  C_8
REMARK    7  A    between atoms: C_8  and  C_9
REMARK                            x       y       z     vdW  Elec       q    Type
REMARK                         _______ _______ _______ _____ _____    ______ ____
ROOT
ATOM      1  C   UNL     1       3.887   4.192  17.573  0.00  0.00    +0.000 C 
ATOM      2  C   UNL     1       4.041   2.647  17.739  0.00  0.00    +0.000 C 
ATOM      3  C   UNL     1       3.246   2.069  18.915  0.00  0.00    +0.000 C 
ATOM      4  C   UNL     1       1.768   2.413  18.833  0.00  0.00    +0.000 C 
ATOM      5  C   UNL     1       1.556   3.908  18.672  0.00  0.00    +0.000 C 
ATOM      6  C   UNL     1       2.353   4.476  17.493  0.00  0.00    +0.000 C 
ENDROOT
BRANCH   1   7
ATOM      7  C   UNL     1       4.534   4.879  18.818  0.00  0.00    +0.000 C 
ATOM      8  O   UNL     1       3.989   5.750  19.489  0.00  0.00    +0.000 OA
BRANCH   7  10
ATOM      9  C   UNL     1       6.769   5.316  19.390  0.00  0.00    +0.000 C 
ATOM     10  O   UNL     1       5.755   4.349  19.111  0.00  0.00    +0.000 OA
ENDBRANCH   7  10
ENDBRANCH   1   7
BRANCH   1  11
ATOM     11  N   UNL     1       4.577   4.672  16.299  0.00  0.00    +0.000 NA
ATOM     12  C   UNL     1       4.951   6.096  16.369  0.00  0.00    +0.000 C 
BRANCH  11  13
ATOM     13  C   UNL     1       5.760   3.839  15.942  0.00  0.00    +0.000 C 
BRANCH  13  14
ATOM     14  C   UNL     1       6.530   4.377  14.773  0.00  0.00    +0.000 A 
ATOM     15  N   UNL     1       7.637   5.194  15.035  0.00  0.00    +0.000 NA
ATOM     16  N   UNL     1       8.230   5.603  13.925  0.00  0.00    +0.000 NA
ATOM     17  S   UNL     1       7.495   5.003  12.543  0.00  0.00    +0.000 S 
ATOM     18  C   UNL     1       6.319   4.156  13.429  0.00  0.00    +0.000 A 
ATOM     19 CL   UNL     1       5.133   3.212  12.641  0.00  0.00    +0.000 Cl
ENDBRANCH  13  14
ENDBRANCH  11  13
ENDBRANCH   1  11
TORSDOF 5
ENDMDL
MODEL 5
REMARK VINA RESULT:      -6.4      2.086      2.915
REMARK  Name = 
REMARK  7 active torsions:
REMARK  status: ('A' for Active; 'I' for Inactive)
REMARK    1  A    between atoms: C_1  and  O_2
REMARK    2  A    between atoms: O_2  and  C_3
REMARK    3  A    between atoms: C_3  and  C_5
REMARK    4  A    between atoms: C_5  and  N_6
REMARK    5  A    between atoms: N_6  and  C_7
REMARK    6  A    between atoms: N_6  and  C_8
REMARK    7  A    between atoms: C_8  and  C_9
REMARK                            x       y       z     vdW  Elec       q    Type
REMARK                         _______ _______ _______ _____ _____    ______ ____
ROOT
ATOM      1  C   UNL     1       4.875   5.354  17.678  0.00  0.00    +0.000 C 
ATOM      2  C   UNL     1       5.879   6.471  17.249  0.00  0.00    +0.000 C 
ATOM      3  C   UNL     1       7.181   5.932  16.644  0.00  0.00    +0.000 C 
ATOM      4  C   UNL     1       6.927   5.013  15.461  0.00  0.00    +0.000 C 
ATOM      5  C   UNL     1       5.956   3.902  15.822  0.00  0.00    +0.000 C 
ATOM      6  C   UNL     1       4.657   4.451  16.423  0.00  0.00    +0.000 C 
ENDROOT
BRANCH   1   7
ATOM      7  C   UNL     1       5.517   4.554  18.858  0.00  0.00    +0.000 C 
ATOM      8  O   UNL     1       6.190   5.059  19.751  0.00  0.00    +0.000 OA
BRANCH   7  10
ATOM      9  C   UNL     1       4.629   2.722  20.026  0.00  0.00    +0.000 C 
ATOM     10  O   UNL     1       5.185   3.234  18.813  0.00  0.00    +0.000 OA
ENDBRANCH   7  10
ENDBRANCH   1   7
BRANCH   1  11
ATOM     11  N   UNL     1       3.549   5.962  18.125  0.00  0.00    +0.000 NA
ATOM     12  C   UNL     1       3.458   7.399  17.811  0.00  0.00    +0.000 C 
BRANCH  11  13
ATOM     13  C   UNL     1       2.372   5.232  17.574  0.00  0.00    +0.000 C 
BRANCH  13  14
ATOM     14  C   UNL     1       1.784   4.245  18.538  0.00  0.00    +0.000 A 
ATOM     15  N   UNL     1       1.518   2.951  18.074  0.00  0.00    +0.000 NA
ATOM     16  N   UNL     1       1.005   2.177  19.016  0.00  0.00    +0.000 NA
ATOM     17  S   UNL     1       0.849   2.968  20.485  0.00  0.00    +0.000 S 
ATOM     18  C   UNL     1       1.482   4.421  19.871  0.00  0.00    +0.000 A 
ATOM     19 CL   UNL     1       1.666   5.794  20.871  0.00  0.00    +0.000 Cl
ENDBRANCH  13  14
ENDBRANCH  11  13
ENDBRANCH   1  11
TORSDOF 5
ENDMDL
MODEL 6
REMARK VINA RESULT:      -6.4      3.038      5.164
REMARK  Name = 
REMARK  7 active torsions:
REMARK  status: ('A' for Active; 'I' for Inactive)
REMARK    1  A    between atoms: C_1  and  O_2
REMARK    2  A    between atoms: O_2  and  C_3
REMARK    3  A    between atoms: C_3  and  C_5
REMARK    4  A    between atoms: C_5  and  N_6
REMARK    5  A    between atoms: N_6  and  C_7
REMARK    6  A    between atoms: N_6  and  C_8
REMARK    7  A    between atoms: C_8  and  C_9
REMARK                            x       y       z     vdW  Elec       q    Type
REMARK                         _______ _______ _______ _____ _____    ______ ____
ROOT
ATOM      1  C   UNL     1       2.980   4.605  18.879  0.00  0.00    +0.000 C 
ATOM      2  C   UNL     1       1.623   4.020  18.375  0.00  0.00    +0.000 C 
ATOM      3  C   UNL     1       1.038   2.938  19.290  0.00  0.00    +0.000 C 
ATOM      4  C   UNL     1       0.867   3.425  20.719  0.00  0.00    +0.000 C 
ATOM      5  C   UNL     1       2.160   4.004  21.264  0.00  0.00    +0.000 C 
ATOM      6  C   UNL     1       2.736   5.086  20.345  0.00  0.00    +0.000 C 
ENDROOT
BRANCH   1   7
ATOM      7  C   UNL     1       4.049   3.466  18.819  0.00  0.00    +0.000 C 
ATOM      8  O   UNL     1       4.948   3.317  19.642  0.00  0.00    +0.000 OA
BRANCH   7  10
ATOM      9  C   UNL     1       3.901   1.231  18.117  0.00  0.00    +0.000 C 
ATOM     10  O   UNL     1       3.826   2.617  17.778  0.00  0.00    +0.000 OA
ENDBRANCH   7  10
ENDBRANCH   1   7
BRANCH   1  11
ATOM     11  N   UNL     1       3.422   5.777  18.008  0.00  0.00    +0.000 NA
ATOM     12  C   UNL     1       2.667   7.008  18.302  0.00  0.00    +0.000 C 
BRANCH  11  13
ATOM     13  C   UNL     1       4.888   6.031  18.094  0.00  0.00    +0.000 C 
BRANCH  13  14
ATOM     14  C   UNL     1       5.625   5.669  16.839  0.00  0.00    +0.000 A 
ATOM     15  N   UNL     1       5.057   6.038  15.614  0.00  0.00    +0.000 NA
ATOM     16  N   UNL     1       5.801   5.664  14.585  0.00  0.00    +0.000 NA
ATOM     17  S   UNL     1       7.207   4.885  15.057  0.00  0.00    +0.000 S 
ATOM     18  C   UNL     1       6.839   5.029  16.709  0.00  0.00    +0.000 A 
ATOM     19 CL   UNL     1       7.905   4.434  17.904  0.00  0.00    +0.000 Cl
ENDBRANCH  13  14
ENDBRANCH  11  13
ENDBRANCH   1  11
TORSDOF 5
ENDMDL
MODEL 7
REMARK VINA RESULT:      -6.3      3.174      5.362
REMARK  Name = 
REMARK  7 active torsions:
REMARK  status: ('A' for Active; 'I' for Inactive)
REMARK    1  A    between atoms: C_1  and  O_2
REMARK    2  A    between atoms: O_2  and  C_3
REMARK    3  A    between atoms: C_3  and  C_5
REMARK    4  A    between atoms: C_5  and  N_6
REMARK    5  A    between atoms: N_6  and  C_7
REMARK    6  A    between atoms: N_6  and  C_8
REMARK    7  A    between atoms: C_8  and  C_9
REMARK                            x       y       z     vdW  Elec       q    Type
REMARK                         _______ _______ _______ _____ _____    ______ ____
ROOT
ATOM      1  C   UNL     1       2.900   4.347  19.069  0.00  0.00    +0.000 C 
ATOM      2  C   UNL     1       1.395   4.628  19.378  0.00  0.00    +0.000 C 
ATOM      3  C   UNL     1       0.678   3.463  20.071  0.00  0.00    +0.000 C 
ATOM      4  C   UNL     1       1.376   3.040  21.353  0.00  0.00    +0.000 C 
ATOM      5  C   UNL     1       2.848   2.751  21.111  0.00  0.00    +0.000 C 
ATOM      6  C   UNL     1       3.556   3.922  20.422  0.00  0.00    +0.000 C 
ENDROOT
BRANCH   1   7
ATOM      7  C   UNL     1       2.970   3.200  18.010  0.00  0.00    +0.000 C 
ATOM      8  O   UNL     1       2.147   3.033  17.115  0.00  0.00    +0.000 OA
BRANCH   7  10
ATOM      9  C   UNL     1       3.854   1.036  18.225  0.00  0.00    +0.000 C 
ATOM     10  O   UNL     1       4.093   2.443  18.159  0.00  0.00    +0.000 OA
ENDBRANCH   7  10
ENDBRANCH   1   7
BRANCH   1  11
ATOM     11  N   UNL     1       3.583   5.598  18.524  0.00  0.00    +0.000 NA
ATOM     12  C   UNL     1       2.837   6.828  18.846  0.00  0.00    +0.000 C 
BRANCH  11  13
ATOM     13  C   UNL     1       5.000   5.716  18.972  0.00  0.00    +0.000 C 
BRANCH  13  14
ATOM     14  C   UNL     1       5.989   5.360  17.902  0.00  0.00    +0.000 A 
ATOM     15  N   UNL     1       7.044   4.505  18.240  0.00  0.00    +0.000 NA
ATOM     16  N   UNL     1       7.845   4.268  17.213  0.00  0.00    +0.000 NA
ATOM     17  S   UNL     1       7.343   5.042  15.814  0.00  0.00    +0.000 S 
ATOM     18  C   UNL     1       5.998   5.743  16.578  0.00  0.00    +0.000 A 
ATOM     19 CL   UNL     1       4.909   6.735  15.711  0.00  0.00    +0.000 Cl
ENDBRANCH  13  14
ENDBRANCH  11  13
ENDBRANCH   1  11
TORSDOF 5
ENDMDL
MODEL 8
REMARK VINA RESULT:      -6.3      2.399      3.523
REMARK  Name = 
REMARK  7 active torsions:
REMARK  status: ('A' for Active; 'I' for Inactive)
REMARK    1  A    between atoms: C_1  and  O_2
REMARK    2  A    between atoms: O_2  and  C_3
REMARK    3  A    between atoms: C_3  and  C_5
REMARK    4  A    between atoms: C_5  and  N_6
REMARK    5  A    between atoms: N_6  and  C_7
REMARK    6  A    between atoms: N_6  and  C_8
REMARK    7  A    between atoms: C_8  and  C_9
REMARK                            x       y       z     vdW  Elec       q    Type
REMARK                         _______ _______ _______ _____ _____    ______ ____
ROOT
ATOM      1  C   UNL     1       5.791   4.665  17.690  0.00  0.00    +0.000 C 
ATOM      2  C   UNL     1       5.129   5.980  17.170  0.00  0.00    +0.000 C 
ATOM      3  C   UNL     1       5.505   6.334  15.727  0.00  0.00    +0.000 C 
ATOM      4  C   UNL     1       5.190   5.206  14.759  0.00  0.00    +0.000 C 
ATOM      5  C   UNL     1       5.813   3.897  15.213  0.00  0.00    +0.000 C 
ATOM      6  C   UNL     1       5.428   3.551  16.656  0.00  0.00    +0.000 C 
ENDROOT
BRANCH   1   7
ATOM      7  C   UNL     1       7.334   4.897  17.767  0.00  0.00    +0.000 C 
ATOM      8  O   UNL     1       8.171   4.165  17.248  0.00  0.00    +0.000 OA
BRANCH   7  10
ATOM      9  C   UNL     1       8.173   5.859  19.737  0.00  0.00    +0.000 C 
ATOM     10  O   UNL     1       7.640   6.050  18.425  0.00  0.00    +0.000 OA
ENDBRANCH   7  10
ENDBRANCH   1   7
BRANCH   1  11
ATOM     11  N   UNL     1       5.253   4.296  19.069  0.00  0.00    +0.000 NA
ATOM     12  C   UNL     1       4.377   5.342  19.626  0.00  0.00    +0.000 C 
BRANCH  11  13
ATOM     13  C   UNL     1       4.560   2.976  19.078  0.00  0.00    +0.000 C 
BRANCH  13  14
ATOM     14  C   UNL     1       3.188   3.034  19.683  0.00  0.00    +0.000 A 
ATOM     15  N   UNL     1       3.041   2.634  21.016  0.00  0.00    +0.000 NA
ATOM     16  N   UNL     1       1.788   2.732  21.432  0.00  0.00    +0.000 NA
ATOM     17  S   UNL     1       0.761   3.326  20.248  0.00  0.00    +0.000 S 
ATOM     18  C   UNL     1       2.012   3.466  19.107  0.00  0.00    +0.000 A 
ATOM     19 CL   UNL     1       1.711   4.072  17.538  0.00  0.00    +0.000 Cl
ENDBRANCH  13  14
ENDBRANCH  11  13
ENDBRANCH   1  11
TORSDOF 5
ENDMDL
MODEL 9
REMARK VINA RESULT:      -6.3      2.077      3.125
REMARK  Name = 
REMARK  7 active torsions:
REMARK  status: ('A' for Active; 'I' for Inactive)
REMARK    1  A    between atoms: C_1  and  O_2
REMARK    2  A    between atoms: O_2  and  C_3
REMARK    3  A    between atoms: C_3  and  C_5
REMARK    4  A    between atoms: C_5  and  N_6
REMARK    5  A    between atoms: N_6  and  C_7
REMARK    6  A    between atoms: N_6  and  C_8
REMARK    7  A    between atoms: C_8  and  C_9
REMARK                            x       y       z     vdW  Elec       q    Type
REMARK                         _______ _______ _______ _____ _____    ______ ____
ROOT
ATOM      1  C   UNL     1       4.892   5.408  17.594  0.00  0.00    +0.000 C 
ATOM      2  C   UNL     1       5.691   6.524  16.851  0.00  0.00    +0.000 C 
ATOM      3  C   UNL     1       6.957   6.017  16.151  0.00  0.00    +0.000 C 
ATOM      4  C   UNL     1       6.661   4.889  15.177  0.00  0.00    +0.000 C 
ATOM      5  C   UNL     1       5.884   3.769  15.847  0.00  0.00    +0.000 C 
ATOM      6  C   UNL     1       4.620   4.286  16.542  0.00  0.00    +0.000 C 
ENDROOT
BRANCH   1   7
ATOM      7  C   UNL     1       5.773   4.886  18.775  0.00  0.00    +0.000 C 
ATOM      8  O   UNL     1       5.786   3.724  19.168  0.00  0.00    +0.000 OA
BRANCH   7  10
ATOM      9  C   UNL     1       7.903   5.438  19.592  0.00  0.00    +0.000 C 
ATOM     10  O   UNL     1       6.577   5.865  19.277  0.00  0.00    +0.000 OA
ENDBRANCH   7  10
ENDBRANCH   1   7
BRANCH   1  11
ATOM     11  N   UNL     1       3.573   5.953  18.133  0.00  0.00    +0.000 NA
ATOM     12  C   UNL     1       3.311   7.331  17.680  0.00  0.00    +0.000 C 
BRANCH  11  13
ATOM     13  C   UNL     1       2.416   5.070  17.812  0.00  0.00    +0.000 C 
BRANCH  13  14
ATOM     14  C   UNL     1       2.039   4.157  18.941  0.00  0.00    +0.000 A 
ATOM     15  N   UNL     1       2.100   2.776  18.717  0.00  0.00    +0.000 NA
ATOM     16  N   UNL     1       1.747   2.080  19.785  0.00  0.00    +0.000 NA
ATOM     17  S   UNL     1       1.356   3.056  21.090  0.00  0.00    +0.000 S 
ATOM     18  C   UNL     1       1.655   4.487  20.223  0.00  0.00    +0.000 A 
ATOM     19 CL   UNL     1       1.476   6.018  20.960  0.00  0.00    +0.000 Cl
ENDBRANCH  13  14
ENDBRANCH  11  13
ENDBRANCH   1  11
TORSDOF 5
ENDMDL
