MODEL 1
REMARK VINA RESULT:      -6.8      0.000      0.000
REMARK  Name = 
REMARK  12 active torsions:
REMARK  status: ('A' for Active; 'I' for Inactive)
REMARK    1  A    between atoms: C_1  and  C_2
REMARK    2  A    between atoms: C_2  and  C_3
REMARK    3  A    between atoms: C_3  and  C_4
REMARK    4  A    between atoms: N_7  and  C_8
REMARK    5  A    between atoms: C_8  and  C_9
REMARK    6  A    between atoms: C_9  and  N_10
REMARK    7  A    between atoms: N_10  and  C_11
REMARK    8  A    between atoms: N_10  and  C_12
REMARK    9  A    between atoms: C_17  and  C_18
REMARK   10  A    between atoms: C_24  and  C_25
REMARK   11  A    between atoms: C_28  and  O_29
REMARK   12  A    between atoms: O_29  and  C_30
REMARK                            x       y       z     vdW  Elec       q    Type
REMARK                         _______ _______ _______ _____ _____    ______ ____
ROOT
ATOM      1  C   UNL     1       0.083  11.381  21.156  0.00  0.00    +0.000 C 
ATOM      2  C   UNL     1      -0.896  12.273  21.887  0.00  0.00    +0.000 C 
ATOM      3  O   UNL     1      -0.558  12.516  23.043  0.00  0.00    +0.000 OA
ATOM      4  N   UNL     1      -1.782  13.131  21.274  0.00  0.00    +0.000 N 
ATOM      5  C   UNL     1      -2.737  12.703  20.272  0.00  0.00    +0.000 A 
ATOM      6  C   UNL     1      -4.072  13.152  20.426  0.00  0.00    +0.000 A 
ATOM      7  C   UNL     1      -5.084  12.793  19.561  0.00  0.00    +0.000 A 
ATOM      8  C   UNL     1      -4.820  11.975  18.491  0.00  0.00    +0.000 A 
ATOM      9  C   UNL     1      -3.532  11.466  18.271  0.00  0.00    +0.000 A 
ATOM     10  C   UNL     1      -2.451  11.835  19.170  0.00  0.00    +0.000 A 
ATOM     11  C   UNL     1      -1.050  11.327  18.899  0.00  0.00    +0.000 C 
ATOM     12  C   UNL     1      -0.434  10.442  20.012  0.00  0.00    +0.000 C 
ENDROOT
BRANCH  12  13
ATOM     13  C   UNL     1       0.692   9.484  19.480  0.00  0.00    +0.000 A 
ATOM     14  C   UNL     1       1.196   9.594  18.154  0.00  0.00    +0.000 A 
ATOM     15  C   UNL     1       2.098   8.671  17.629  0.00  0.00    +0.000 A 
ATOM     16  C   UNL     1       2.597   7.640  18.410  0.00  0.00    +0.000 A 
ATOM     17  C   UNL     1       2.195   7.550  19.751  0.00  0.00    +0.000 A 
ATOM     18  C   UNL     1       1.265   8.452  20.275  0.00  0.00    +0.000 A 
BRANCH  16  19
ATOM     19  O   UNL     1       3.465   6.769  17.837  0.00  0.00    +0.000 OA
ATOM     20  C   UNL     1       3.600   5.439  18.162  0.00  0.00    +0.000 C 
ENDBRANCH  16  19
ENDBRANCH  12  13
BRANCH   9  21
ATOM     21  C   UNL     1      -3.346  10.566  17.046  0.00  0.00    +0.000 C 
ATOM     22  F   UNL     1      -4.469  10.539  16.234  0.00  0.00    +0.000 F 
ATOM     23  F   UNL     1      -2.296  11.029  16.267  0.00  0.00    +0.000 F 
ATOM     24  F   UNL     1      -3.096   9.267  17.449  0.00  0.00    +0.000 F 
ENDBRANCH   9  21
BRANCH   1  25
ATOM     25  C   UNL     1       1.214  12.415  20.770  0.00  0.00    +0.000 C 
BRANCH  25  27
ATOM     26  C   UNL     1       2.447  13.037  18.655  0.00  0.00    +0.000 C 
ATOM     27  C   UNL     1       1.146  13.157  19.435  0.00  0.00    +0.000 C 
ENDBRANCH  25  27
ENDBRANCH   1  25
BRANCH   4  28
ATOM     28  C   UNL     1      -1.887  14.489  21.848  0.00  0.00    +0.000 C 
BRANCH  28  29
ATOM     29  C   UNL     1      -1.320  15.525  20.833  0.00  0.00    +0.000 C 
BRANCH  29  30
ATOM     30  N   UNL     1      -2.326  16.535  20.404  0.00  0.00    +0.000 NA
ATOM     31  C   UNL     1      -2.809  17.352  21.533  0.00  0.00    +0.000 C 
ATOM     32  C   UNL     1      -1.739  17.438  19.393  0.00  0.00    +0.000 C 
ENDBRANCH  29  30
ENDBRANCH  28  29
ENDBRANCH   4  28
TORSDOF 8
ENDMDL
MODEL 2
REMARK VINA RESULT:      -6.8      4.892     10.217
REMARK  Name = 
REMARK  12 active torsions:
REMARK  status: ('A' for Active; 'I' for Inactive)
REMARK    1  A    between atoms: C_1  and  C_2
REMARK    2  A    between atoms: C_2  and  C_3
REMARK    3  A    between atoms: C_3  and  C_4
REMARK    4  A    between atoms: N_7  and  C_8
REMARK    5  A    between atoms: C_8  and  C_9
REMARK    6  A    between atoms: C_9  and  N_10
REMARK    7  A    between atoms: N_10  and  C_11
REMARK    8  A    between atoms: N_10  and  C_12
REMARK    9  A    between atoms: C_17  and  C_18
REMARK   10  A    between atoms: C_24  and  C_25
REMARK   11  A    between atoms: C_28  and  O_29
REMARK   12  A    between atoms: O_29  and  C_30
REMARK                            x       y       z     vdW  Elec       q    Type
REMARK                         _______ _______ _______ _____ _____    ______ ____
ROOT
ATOM      1  C   UNL     1       3.898   7.072  17.304  0.00  0.00    +0.000 C 
ATOM      2  C   UNL     1       4.505   5.953  16.488  0.00  0.00    +0.000 C 
ATOM      3  O   UNL     1       4.982   6.335  15.423  0.00  0.00    +0.000 OA
ATOM      4  N   UNL     1       4.950   4.757  17.008  0.00  0.00    +0.000 N 
ATOM      5  C   UNL     1       4.117   3.883  17.809  0.00  0.00    +0.000 A 
ATOM      6  C   UNL     1       4.124   2.506  17.472  0.00  0.00    +0.000 A 
ATOM      7  C   UNL     1       3.355   1.572  18.133  0.00  0.00    +0.000 A 
ATOM      8  C   UNL     1       2.544   1.956  19.172  0.00  0.00    +0.000 A 
ATOM      9  C   UNL     1       2.457   3.300  19.562  0.00  0.00    +0.000 A 
ATOM     10  C   UNL     1       3.263   4.299  18.879  0.00  0.00    +0.000 A 
ATOM     11  C   UNL     1       3.207   5.743  19.337  0.00  0.00    +0.000 C 
ATOM     12  C   UNL     1       2.711   6.761  18.280  0.00  0.00    +0.000 C 
ENDROOT
BRANCH  12  13
ATOM     13  C   UNL     1       2.113   8.064  18.919  0.00  0.00    +0.000 A 
ATOM     14  C   UNL     1       1.734   8.115  20.290  0.00  0.00    +0.000 A 
ATOM     15  C   UNL     1       1.084   9.220  20.835  0.00  0.00    +0.000 A 
ATOM     16  C   UNL     1       0.841  10.352  20.072  0.00  0.00    +0.000 A 
ATOM     17  C   UNL     1       1.280  10.378  18.740  0.00  0.00    +0.000 A 
ATOM     18  C   UNL     1       1.903   9.261  18.176  0.00  0.00    +0.000 A 
BRANCH  16  19
ATOM     19  O   UNL     1       0.195  11.390  20.660  0.00  0.00    +0.000 OA
ATOM     20  C   UNL     1      -1.125  11.726  20.469  0.00  0.00    +0.000 C 
ENDBRANCH  16  19
ENDBRANCH  12  13
BRANCH   9  21
ATOM     21  C   UNL     1       1.525   3.620  20.735  0.00  0.00    +0.000 C 
ATOM     22  F   UNL     1       2.192   4.222  21.790  0.00  0.00    +0.000 F 
ATOM     23  F   UNL     1       0.532   4.499  20.330  0.00  0.00    +0.000 F 
ATOM     24  F   UNL     1       0.957   2.455  21.215  0.00  0.00    +0.000 F 
ENDBRANCH   9  21
BRANCH   1  25
ATOM     25  C   UNL     1       5.188   7.727  17.941  0.00  0.00    +0.000 C 
BRANCH  25  27
ATOM     26  C   UNL     1       7.684   7.341  17.973  0.00  0.00    +0.000 C 
ATOM     27  C   UNL     1       6.489   7.783  17.141  0.00  0.00    +0.000 C 
ENDBRANCH  25  27
ENDBRANCH   1  25
BRANCH   4  28
ATOM     28  C   UNL     1       6.259   4.274  16.522  0.00  0.00    +0.000 C 
BRANCH  28  29
ATOM     29  C   UNL     1       6.056   3.461  15.210  0.00  0.00    +0.000 C 
BRANCH  29  30
ATOM     30  N   UNL     1       6.248   4.278  13.980  0.00  0.00    +0.000 NA
ATOM     31  C   UNL     1       7.570   4.931  13.947  0.00  0.00    +0.000 C 
ATOM     32  C   UNL     1       6.119   3.426  12.780  0.00  0.00    +0.000 C 
ENDBRANCH  29  30
ENDBRANCH  28  29
ENDBRANCH   4  28
TORSDOF 8
ENDMDL
MODEL 3
REMARK VINA RESULT:      -6.7      0.358      1.154
REMARK  Name = 
REMARK  12 active torsions:
REMARK  status: ('A' for Active; 'I' for Inactive)
REMARK    1  A    between atoms: C_1  and  C_2
REMARK    2  A    between atoms: C_2  and  C_3
REMARK    3  A    between atoms: C_3  and  C_4
REMARK    4  A    between atoms: N_7  and  C_8
REMARK    5  A    between atoms: C_8  and  C_9
REMARK    6  A    between atoms: C_9  and  N_10
REMARK    7  A    between atoms: N_10  and  C_11
REMARK    8  A    between atoms: N_10  and  C_12
REMARK    9  A    between atoms: C_17  and  C_18
REMARK   10  A    between atoms: C_24  and  C_25
REMARK   11  A    between atoms: C_28  and  O_29
REMARK   12  A    between atoms: O_29  and  C_30
REMARK                            x       y       z     vdW  Elec       q    Type
REMARK                         _______ _______ _______ _____ _____    ______ ____
ROOT
ATOM      1  C   UNL     1       0.074  11.309  21.095  0.00  0.00    +0.000 C 
ATOM      2  C   UNL     1      -0.856  12.238  21.844  0.00  0.00    +0.000 C 
ATOM      3  O   UNL     1      -0.481  12.476  22.989  0.00  0.00    +0.000 OA
ATOM      4  N   UNL     1      -1.728  13.122  21.247  0.00  0.00    +0.000 N 
ATOM      5  C   UNL     1      -2.721  12.720  20.272  0.00  0.00    +0.000 A 
ATOM      6  C   UNL     1      -4.036  13.215  20.456  0.00  0.00    +0.000 A 
ATOM      7  C   UNL     1      -5.081  12.885  19.620  0.00  0.00    +0.000 A 
ATOM      8  C   UNL     1      -4.873  12.052  18.549  0.00  0.00    +0.000 A 
ATOM      9  C   UNL     1      -3.608  11.499  18.300  0.00  0.00    +0.000 A 
ATOM     10  C   UNL     1      -2.493  11.836  19.169  0.00  0.00    +0.000 A 
ATOM     11  C   UNL     1      -1.117  11.279  18.867  0.00  0.00    +0.000 C 
ATOM     12  C   UNL     1      -0.503  10.380  19.971  0.00  0.00    +0.000 C 
ENDROOT
BRANCH  12  13
ATOM     13  C   UNL     1       0.575   9.382  19.418  0.00  0.00    +0.000 A 
ATOM     14  C   UNL     1       1.143   8.369  20.240  0.00  0.00    +0.000 A 
ATOM     15  C   UNL     1       2.191   7.563  19.801  0.00  0.00    +0.000 A 
ATOM     16  C   UNL     1       2.680   7.673  18.508  0.00  0.00    +0.000 A 
ATOM     17  C   UNL     1       2.087   8.597  17.636  0.00  0.00    +0.000 A 
ATOM     18  C   UNL     1       1.058   9.432  18.079  0.00  0.00    +0.000 A 
BRANCH  16  19
ATOM     19  O   UNL     1       3.709   6.866  18.145  0.00  0.00    +0.000 OA
ATOM     20  C   UNL     1       4.063   5.689  18.763  0.00  0.00    +0.000 C 
ENDBRANCH  16  19
ENDBRANCH  12  13
BRANCH   9  21
ATOM     21  C   UNL     1      -3.483  10.585  17.077  0.00  0.00    +0.000 C 
ATOM     22  F   UNL     1      -2.416  10.932  16.265  0.00  0.00    +0.000 F 
ATOM     23  F   UNL     1      -3.275   9.274  17.479  0.00  0.00    +0.000 F 
ATOM     24  F   UNL     1      -4.630  10.666  16.310  0.00  0.00    +0.000 F 
ENDBRANCH   9  21
BRANCH   1  25
ATOM     25  C   UNL     1       1.229  12.301  20.673  0.00  0.00    +0.000 C 
BRANCH  25  27
ATOM     26  C   UNL     1       2.420  12.775  18.496  0.00  0.00    +0.000 C 
ATOM     27  C   UNL     1       1.165  13.017  19.324  0.00  0.00    +0.000 C 
ENDBRANCH  25  27
ENDBRANCH   1  25
BRANCH   4  28
ATOM     28  C   UNL     1      -1.772  14.486  21.814  0.00  0.00    +0.000 C 
BRANCH  28  29
ATOM     29  C   UNL     1      -1.072  15.475  20.836  0.00  0.00    +0.000 C 
BRANCH  29  30
ATOM     30  N   UNL     1      -1.940  16.618  20.439  0.00  0.00    +0.000 NA
ATOM     31  C   UNL     1      -3.171  16.688  21.249  0.00  0.00    +0.000 C 
ATOM     32  C   UNL     1      -1.206  17.891  20.595  0.00  0.00    +0.000 C 
ENDBRANCH  29  30
ENDBRANCH  28  29
ENDBRANCH   4  28
TORSDOF 8
ENDMDL
MODEL 4
REMARK VINA RESULT:      -6.7      0.813      1.239
REMARK  Name = 
REMARK  12 active torsions:
REMARK  status: ('A' for Active; 'I' for Inactive)
REMARK    1  A    between atoms: C_1  and  C_2
REMARK    2  A    between atoms: C_2  and  C_3
REMARK    3  A    between atoms: C_3  and  C_4
REMARK    4  A    between atoms: N_7  and  C_8
REMARK    5  A    between atoms: C_8  and  C_9
REMARK    6  A    between atoms: C_9  and  N_10
REMARK    7  A    between atoms: N_10  and  C_11
REMARK    8  A    between atoms: N_10  and  C_12
REMARK    9  A    between atoms: C_17  and  C_18
REMARK   10  A    between atoms: C_24  and  C_25
REMARK   11  A    between atoms: C_28  and  O_29
REMARK   12  A    between atoms: O_29  and  C_30
REMARK                            x       y       z     vdW  Elec       q    Type
REMARK                         _______ _______ _______ _____ _____    ______ ____
ROOT
ATOM      1  C   UNL     1       0.261  11.534  21.110  0.00  0.00    +0.000 C 
ATOM      2  C   UNL     1      -0.662  12.500  21.820  0.00  0.00    +0.000 C 
ATOM      3  O   UNL     1      -0.250  12.835  22.928  0.00  0.00    +0.000 OA
ATOM      4  N   UNL     1      -1.576  13.316  21.191  0.00  0.00    +0.000 N 
ATOM      5  C   UNL     1      -2.596  12.818  20.290  0.00  0.00    +0.000 A 
ATOM      6  C   UNL     1      -3.915  13.299  20.487  0.00  0.00    +0.000 A 
ATOM      7  C   UNL     1      -4.982  12.882  19.720  0.00  0.00    +0.000 A 
ATOM      8  C   UNL     1      -4.794  11.973  18.710  0.00  0.00    +0.000 A 
ATOM      9  C   UNL     1      -3.527  11.427  18.456  0.00  0.00    +0.000 A 
ATOM     10  C   UNL     1      -2.388  11.856  19.252  0.00  0.00    +0.000 A 
ATOM     11  C   UNL     1      -1.011  11.304  18.940  0.00  0.00    +0.000 C 
ATOM     12  C   UNL     1      -0.336  10.508  20.085  0.00  0.00    +0.000 C 
ENDROOT
BRANCH  12  13
ATOM     13  C   UNL     1       0.745   9.492  19.569  0.00  0.00    +0.000 A 
ATOM     14  C   UNL     1       1.235   9.541  18.234  0.00  0.00    +0.000 A 
ATOM     15  C   UNL     1       2.093   8.569  17.727  0.00  0.00    +0.000 A 
ATOM     16  C   UNL     1       2.563   7.543  18.534  0.00  0.00    +0.000 A 
ATOM     17  C   UNL     1       2.176   7.510  19.882  0.00  0.00    +0.000 A 
ATOM     18  C   UNL     1       1.289   8.463  20.389  0.00  0.00    +0.000 A 
BRANCH  16  19
ATOM     19  O   UNL     1       3.389   6.622  17.978  0.00  0.00    +0.000 OA
ATOM     20  C   UNL     1       4.239   5.786  18.665  0.00  0.00    +0.000 C 
ENDBRANCH  16  19
ENDBRANCH  12  13
BRANCH   9  21
ATOM     21  C   UNL     1      -3.426  10.423  17.304  0.00  0.00    +0.000 C 
ATOM     22  F   UNL     1      -3.392   9.111  17.748  0.00  0.00    +0.000 F 
ATOM     23  F   UNL     1      -4.529  10.538  16.471  0.00  0.00    +0.000 F 
ATOM     24  F   UNL     1      -2.267  10.647  16.584  0.00  0.00    +0.000 F 
ENDBRANCH   9  21
BRANCH   1  25
ATOM     25  C   UNL     1       1.376  12.514  20.567  0.00  0.00    +0.000 C 
BRANCH  25  27
ATOM     26  C   UNL     1       2.503  12.962  18.351  0.00  0.00    +0.000 C 
ATOM     27  C   UNL     1       1.236  13.133  19.177  0.00  0.00    +0.000 C 
ENDBRANCH  25  27
ENDBRANCH   1  25
BRANCH   4  28
ATOM     28  C   UNL     1      -1.632  14.719  21.651  0.00  0.00    +0.000 C 
BRANCH  28  29
ATOM     29  C   UNL     1      -1.222  15.663  20.483  0.00  0.00    +0.000 C 
BRANCH  29  30
ATOM     30  N   UNL     1       0.174  16.167  20.600  0.00  0.00    +0.000 NA
ATOM     31  C   UNL     1       0.633  16.825  19.362  0.00  0.00    +0.000 C 
ATOM     32  C   UNL     1       0.272  17.139  21.708  0.00  0.00    +0.000 C 
ENDBRANCH  29  30
ENDBRANCH  28  29
ENDBRANCH   4  28
TORSDOF 8
ENDMDL
MODEL 5
REMARK VINA RESULT:      -6.6      0.922      1.054
REMARK  Name = 
REMARK  12 active torsions:
REMARK  status: ('A' for Active; 'I' for Inactive)
REMARK    1  A    between atoms: C_1  and  C_2
REMARK    2  A    between atoms: C_2  and  C_3
REMARK    3  A    between atoms: C_3  and  C_4
REMARK    4  A    between atoms: N_7  and  C_8
REMARK    5  A    between atoms: C_8  and  C_9
REMARK    6  A    between atoms: C_9  and  N_10
REMARK    7  A    between atoms: N_10  and  C_11
REMARK    8  A    between atoms: N_10  and  C_12
REMARK    9  A    between atoms: C_17  and  C_18
REMARK   10  A    between atoms: C_24  and  C_25
REMARK   11  A    between atoms: C_28  and  O_29
REMARK   12  A    between atoms: O_29  and  C_30
REMARK                            x       y       z     vdW  Elec       q    Type
REMARK                         _______ _______ _______ _____ _____    ______ ____
ROOT
ATOM      1  C   UNL     1       0.208  11.011  21.054  0.00  0.00    +0.000 C 
ATOM      2  C   UNL     1      -0.823  11.866  21.756  0.00  0.00    +0.000 C 
ATOM      3  O   UNL     1      -0.568  12.055  22.943  0.00  0.00    +0.000 OA
ATOM      4  N   UNL     1      -1.668  12.752  21.124  0.00  0.00    +0.000 N 
ATOM      5  C   UNL     1      -2.548  12.371  20.038  0.00  0.00    +0.000 A 
ATOM      6  C   UNL     1      -3.893  12.812  20.120  0.00  0.00    +0.000 A 
ATOM      7  C   UNL     1      -4.841  12.493  19.170  0.00  0.00    +0.000 A 
ATOM      8  C   UNL     1      -4.500  11.727  18.084  0.00  0.00    +0.000 A 
ATOM      9  C   UNL     1      -3.198  11.229  17.931  0.00  0.00    +0.000 A 
ATOM     10  C   UNL     1      -2.183  11.556  18.919  0.00  0.00    +0.000 A 
ATOM     11  C   UNL     1      -0.764  11.062  18.724  0.00  0.00    +0.000 C 
ATOM     12  C   UNL     1      -0.224  10.126  19.834  0.00  0.00    +0.000 C 
ENDROOT
BRANCH  12  13
ATOM     13  C   UNL     1       0.939   9.195  19.338  0.00  0.00    +0.000 A 
ATOM     14  C   UNL     1       1.535   9.367  18.057  0.00  0.00    +0.000 A 
ATOM     15  C   UNL     1       2.474   8.471  17.554  0.00  0.00    +0.000 A 
ATOM     16  C   UNL     1       2.921   7.403  18.318  0.00  0.00    +0.000 A 
ATOM     17  C   UNL     1       2.426   7.249  19.621  0.00  0.00    +0.000 A 
ATOM     18  C   UNL     1       1.459   8.125  20.121  0.00  0.00    +0.000 A 
BRANCH  16  19
ATOM     19  O   UNL     1       3.830   6.561  17.767  0.00  0.00    +0.000 OA
ATOM     20  C   UNL     1       3.660   5.209  17.578  0.00  0.00    +0.000 C 
ENDBRANCH  16  19
ENDBRANCH  12  13
BRANCH   9  21
ATOM     21  C   UNL     1      -2.923  10.388  16.681  0.00  0.00    +0.000 C 
ATOM     22  F   UNL     1      -4.072   9.799  16.177  0.00  0.00    +0.000 F 
ATOM     23  F   UNL     1      -2.402  11.185  15.673  0.00  0.00    +0.000 F 
ATOM     24  F   UNL     1      -2.036   9.371  16.983  0.00  0.00    +0.000 F 
ENDBRANCH   9  21
BRANCH   1  25
ATOM     25  C   UNL     1       1.360  12.062  20.797  0.00  0.00    +0.000 C 
BRANCH  25  27
ATOM     26  C   UNL     1       2.694  13.550  19.252  0.00  0.00    +0.000 C 
ATOM     27  C   UNL     1       1.334  12.928  19.537  0.00  0.00    +0.000 C 
ENDBRANCH  25  27
ENDBRANCH   1  25
BRANCH   4  28
ATOM     28  C   UNL     1      -1.817  14.082  21.752  0.00  0.00    +0.000 C 
BRANCH  28  29
ATOM     29  C   UNL     1      -1.342  15.180  20.757  0.00  0.00    +0.000 C 
BRANCH  29  30
ATOM     30  N   UNL     1      -0.322  16.095  21.339  0.00  0.00    +0.000 NA
ATOM     31  C   UNL     1       0.574  15.401  22.282  0.00  0.00    +0.000 C 
ATOM     32  C   UNL     1       0.502  16.687  20.264  0.00  0.00    +0.000 C 
ENDBRANCH  29  30
ENDBRANCH  28  29
ENDBRANCH   4  28
TORSDOF 8
ENDMDL
MODEL 6
REMARK VINA RESULT:      -6.6      1.135      1.744
REMARK  Name = 
REMARK  12 active torsions:
REMARK  status: ('A' for Active; 'I' for Inactive)
REMARK    1  A    between atoms: C_1  and  C_2
REMARK    2  A    between atoms: C_2  and  C_3
REMARK    3  A    between atoms: C_3  and  C_4
REMARK    4  A    between atoms: N_7  and  C_8
REMARK    5  A    between atoms: C_8  and  C_9
REMARK    6  A    between atoms: C_9  and  N_10
REMARK    7  A    between atoms: N_10  and  C_11
REMARK    8  A    between atoms: N_10  and  C_12
REMARK    9  A    between atoms: C_17  and  C_18
REMARK   10  A    between atoms: C_24  and  C_25
REMARK   11  A    between atoms: C_28  and  O_29
REMARK   12  A    between atoms: O_29  and  C_30
REMARK                            x       y       z     vdW  Elec       q    Type
REMARK                         _______ _______ _______ _____ _____    ______ ____
ROOT
ATOM      1  C   UNL     1       0.098  11.308  21.159  0.00  0.00    +0.000 C 
ATOM      2  C   UNL     1      -0.886  12.186  21.901  0.00  0.00    +0.000 C 
ATOM      3  O   UNL     1      -0.557  12.403  23.064  0.00  0.00    +0.000 OA
ATOM      4  N   UNL     1      -1.765  13.059  21.299  0.00  0.00    +0.000 N 
ATOM      5  C   UNL     1      -2.712  12.653  20.280  0.00  0.00    +0.000 A 
ATOM      6  C   UNL     1      -4.048  13.102  20.432  0.00  0.00    +0.000 A 
ATOM      7  C   UNL     1      -5.053  12.763  19.552  0.00  0.00    +0.000 A 
ATOM      8  C   UNL     1      -4.782  11.968  18.467  0.00  0.00    +0.000 A 
ATOM      9  C   UNL     1      -3.493  11.461  18.246  0.00  0.00    +0.000 A 
ATOM     10  C   UNL     1      -2.419  11.809  19.162  0.00  0.00    +0.000 A 
ATOM     11  C   UNL     1      -1.016  11.303  18.892  0.00  0.00    +0.000 C 
ATOM     12  C   UNL     1      -0.411  10.394  19.991  0.00  0.00    +0.000 C 
ENDROOT
BRANCH  12  13
ATOM     13  C   UNL     1       0.716   9.445  19.448  0.00  0.00    +0.000 A 
ATOM     14  C   UNL     1       1.208   9.560  18.118  0.00  0.00    +0.000 A 
ATOM     15  C   UNL     1       2.113   8.644  17.584  0.00  0.00    +0.000 A 
ATOM     16  C   UNL     1       2.626   7.616  18.360  0.00  0.00    +0.000 A 
ATOM     17  C   UNL     1       2.237   7.521  19.704  0.00  0.00    +0.000 A 
ATOM     18  C   UNL     1       1.304   8.416  20.237  0.00  0.00    +0.000 A 
BRANCH  16  19
ATOM     19  O   UNL     1       3.495   6.752  17.778  0.00  0.00    +0.000 OA
ATOM     20  C   UNL     1       3.600   5.409  18.057  0.00  0.00    +0.000 C 
ENDBRANCH  16  19
ENDBRANCH  12  13
BRANCH   9  21
ATOM     21  C   UNL     1      -3.299  10.587  17.004  0.00  0.00    +0.000 C 
ATOM     22  F   UNL     1      -4.433  10.538  16.209  0.00  0.00    +0.000 F 
ATOM     23  F   UNL     1      -2.275  11.094  16.218  0.00  0.00    +0.000 F 
ATOM     24  F   UNL     1      -3.003   9.290  17.383  0.00  0.00    +0.000 F 
ENDBRANCH   9  21
BRANCH   1  25
ATOM     25  C   UNL     1       1.234  12.347  20.804  0.00  0.00    +0.000 C 
BRANCH  25  27
ATOM     26  C   UNL     1       2.331  13.019  18.630  0.00  0.00    +0.000 C 
ATOM     27  C   UNL     1       1.122  13.197  19.538  0.00  0.00    +0.000 C 
ENDBRANCH  25  27
ENDBRANCH   1  25
BRANCH   4  28
ATOM     28  C   UNL     1      -1.872  14.405  21.900  0.00  0.00    +0.000 C 
BRANCH  28  29
ATOM     29  C   UNL     1      -3.187  14.499  22.727  0.00  0.00    +0.000 C 
BRANCH  29  30
ATOM     30  N   UNL     1      -3.028  14.038  24.134  0.00  0.00    +0.000 NA
ATOM     31  C   UNL     1      -3.244  15.128  25.103  0.00  0.00    +0.000 C 
ATOM     32  C   UNL     1      -3.992  12.956  24.426  0.00  0.00    +0.000 C 
ENDBRANCH  29  30
ENDBRANCH  28  29
ENDBRANCH   4  28
TORSDOF 8
ENDMDL
MODEL 7
REMARK VINA RESULT:      -6.6      5.209     10.168
REMARK  Name = 
REMARK  12 active torsions:
REMARK  status: ('A' for Active; 'I' for Inactive)
REMARK    1  A    between atoms: C_1  and  C_2
REMARK    2  A    between atoms: C_2  and  C_3
REMARK    3  A    between atoms: C_3  and  C_4
REMARK    4  A    between atoms: N_7  and  C_8
REMARK    5  A    between atoms: C_8  and  C_9
REMARK    6  A    between atoms: C_9  and  N_10
REMARK    7  A    between atoms: N_10  and  C_11
REMARK    8  A    between atoms: N_10  and  C_12
REMARK    9  A    between atoms: C_17  and  C_18
REMARK   10  A    between atoms: C_24  and  C_25
REMARK   11  A    between atoms: C_28  and  O_29
REMARK   12  A    between atoms: O_29  and  C_30
REMARK                            x       y       z     vdW  Elec       q    Type
REMARK                         _______ _______ _______ _____ _____    ______ ____
ROOT
ATOM      1  C   UNL     1       3.862   7.080  17.305  0.00  0.00    +0.000 C 
ATOM      2  C   UNL     1       4.487   5.962  16.499  0.00  0.00    +0.000 C 
ATOM      3  O   UNL     1       4.960   6.343  15.431  0.00  0.00    +0.000 OA
ATOM      4  N   UNL     1       4.947   4.777  17.029  0.00  0.00    +0.000 N 
ATOM      5  C   UNL     1       4.126   3.898  17.836  0.00  0.00    +0.000 A 
ATOM      6  C   UNL     1       4.153   2.519  17.510  0.00  0.00    +0.000 A 
ATOM      7  C   UNL     1       3.396   1.579  18.178  0.00  0.00    +0.000 A 
ATOM      8  C   UNL     1       2.578   1.960  19.212  0.00  0.00    +0.000 A 
ATOM      9  C   UNL     1       2.471   3.306  19.591  0.00  0.00    +0.000 A 
ATOM     10  C   UNL     1       3.264   4.311  18.901  0.00  0.00    +0.000 A 
ATOM     11  C   UNL     1       3.186   5.757  19.347  0.00  0.00    +0.000 C 
ATOM     12  C   UNL     1       2.678   6.759  18.280  0.00  0.00    +0.000 C 
ENDROOT
BRANCH  12  13
ATOM     13  C   UNL     1       2.060   8.060  18.908  0.00  0.00    +0.000 A 
ATOM     14  C   UNL     1       1.869   9.240  18.136  0.00  0.00    +0.000 A 
ATOM     15  C   UNL     1       1.445  10.436  18.709  0.00  0.00    +0.000 A 
ATOM     16  C   UNL     1       1.123  10.505  20.057  0.00  0.00    +0.000 A 
ATOM     17  C   UNL     1       1.211   9.342  20.834  0.00  0.00    +0.000 A 
ATOM     18  C   UNL     1       1.667   8.146  20.274  0.00  0.00    +0.000 A 
BRANCH  16  19
ATOM     19  O   UNL     1       0.726  11.702  20.556  0.00  0.00    +0.000 OA
ATOM     20  C   UNL     1       1.346  12.910  20.336  0.00  0.00    +0.000 C 
ENDBRANCH  16  19
ENDBRANCH  12  13
BRANCH   9  21
ATOM     21  C   UNL     1       1.533   3.622  20.759  0.00  0.00    +0.000 C 
ATOM     22  F   UNL     1       0.545   4.531  20.413  0.00  0.00    +0.000 F 
ATOM     23  F   UNL     1       0.889   2.468  21.182  0.00  0.00    +0.000 F 
ATOM     24  F   UNL     1       2.251   4.171  21.805  0.00  0.00    +0.000 F 
ENDBRANCH   9  21
BRANCH   1  25
ATOM     25  C   UNL     1       5.141   7.758  17.938  0.00  0.00    +0.000 C 
BRANCH  25  27
ATOM     26  C   UNL     1       7.641   7.394  17.944  0.00  0.00    +0.000 C 
ATOM     27  C   UNL     1       6.436   7.847  17.131  0.00  0.00    +0.000 C 
ENDBRANCH  25  27
ENDBRANCH   1  25
BRANCH   4  28
ATOM     28  C   UNL     1       6.265   4.309  16.550  0.00  0.00    +0.000 C 
BRANCH  28  29
ATOM     29  C   UNL     1       6.075   3.478  15.247  0.00  0.00    +0.000 C 
BRANCH  29  30
ATOM     30  N   UNL     1       6.257   4.283  14.008  0.00  0.00    +0.000 NA
ATOM     31  C   UNL     1       7.568   4.956  13.970  0.00  0.00    +0.000 C 
ATOM     32  C   UNL     1       6.144   3.415  12.817  0.00  0.00    +0.000 C 
ENDBRANCH  29  30
ENDBRANCH  28  29
ENDBRANCH   4  28
TORSDOF 8
ENDMDL
MODEL 8
REMARK VINA RESULT:      -6.6      1.133      1.641
REMARK  Name = 
REMARK  12 active torsions:
REMARK  status: ('A' for Active; 'I' for Inactive)
REMARK    1  A    between atoms: C_1  and  C_2
REMARK    2  A    between atoms: C_2  and  C_3
REMARK    3  A    between atoms: C_3  and  C_4
REMARK    4  A    between atoms: N_7  and  C_8
REMARK    5  A    between atoms: C_8  and  C_9
REMARK    6  A    between atoms: C_9  and  N_10
REMARK    7  A    between atoms: N_10  and  C_11
REMARK    8  A    between atoms: N_10  and  C_12
REMARK    9  A    between atoms: C_17  and  C_18
REMARK   10  A    between atoms: C_24  and  C_25
REMARK   11  A    between atoms: C_28  and  O_29
REMARK   12  A    between atoms: O_29  and  C_30
REMARK                            x       y       z     vdW  Elec       q    Type
REMARK                         _______ _______ _______ _____ _____    ______ ____
ROOT
ATOM      1  C   UNL     1       0.099  11.306  21.170  0.00  0.00    +0.000 C 
ATOM      2  C   UNL     1      -0.882  12.199  21.897  0.00  0.00    +0.000 C 
ATOM      3  O   UNL     1      -0.554  12.431  23.058  0.00  0.00    +0.000 OA
ATOM      4  N   UNL     1      -1.757  13.067  21.281  0.00  0.00    +0.000 N 
ATOM      5  C   UNL     1      -2.703  12.651  20.267  0.00  0.00    +0.000 A 
ATOM      6  C   UNL     1      -4.038  13.108  20.410  0.00  0.00    +0.000 A 
ATOM      7  C   UNL     1      -5.043  12.761  19.533  0.00  0.00    +0.000 A 
ATOM      8  C   UNL     1      -4.774  11.949  18.460  0.00  0.00    +0.000 A 
ATOM      9  C   UNL     1      -3.487  11.433  18.249  0.00  0.00    +0.000 A 
ATOM     10  C   UNL     1      -2.413  11.789  19.162  0.00  0.00    +0.000 A 
ATOM     11  C   UNL     1      -1.011  11.273  18.902  0.00  0.00    +0.000 C 
ATOM     12  C   UNL     1      -0.413  10.377  20.015  0.00  0.00    +0.000 C 
ENDROOT
BRANCH  12  13
ATOM     13  C   UNL     1       0.712   9.416  19.488  0.00  0.00    +0.000 A 
ATOM     14  C   UNL     1       1.205   9.508  18.156  0.00  0.00    +0.000 A 
ATOM     15  C   UNL     1       2.106   8.581  17.637  0.00  0.00    +0.000 A 
ATOM     16  C   UNL     1       2.616   7.563  18.429  0.00  0.00    +0.000 A 
ATOM     17  C   UNL     1       2.224   7.491  19.774  0.00  0.00    +0.000 A 
ATOM     18  C   UNL     1       1.295   8.397  20.292  0.00  0.00    +0.000 A 
BRANCH  16  19
ATOM     19  O   UNL     1       3.482   6.686  17.862  0.00  0.00    +0.000 OA
ATOM     20  C   UNL     1       4.104   5.642  18.505  0.00  0.00    +0.000 C 
ENDBRANCH  16  19
ENDBRANCH  12  13
BRANCH   9  21
ATOM     21  C   UNL     1      -3.294  10.540  17.020  0.00  0.00    +0.000 C 
ATOM     22  F   UNL     1      -2.235  10.954  16.227  0.00  0.00    +0.000 F 
ATOM     23  F   UNL     1      -3.019   9.239  17.413  0.00  0.00    +0.000 F 
ATOM     24  F   UNL     1      -4.432  10.565  16.236  0.00  0.00    +0.000 F 
ENDBRANCH   9  21
BRANCH   1  25
ATOM     25  C   UNL     1       1.240  12.335  20.802  0.00  0.00    +0.000 C 
BRANCH  25  27
ATOM     26  C   UNL     1       2.350  12.973  18.624  0.00  0.00    +0.000 C 
ATOM     27  C   UNL     1       1.136  13.165  19.523  0.00  0.00    +0.000 C 
ENDBRANCH  25  27
ENDBRANCH   1  25
BRANCH   4  28
ATOM     28  C   UNL     1      -1.858  14.422  21.863  0.00  0.00    +0.000 C 
BRANCH  28  29
ATOM     29  C   UNL     1      -2.755  14.372  23.135  0.00  0.00    +0.000 C 
BRANCH  29  30
ATOM     30  N   UNL     1      -2.426  15.435  24.124  0.00  0.00    +0.000 NA
ATOM     31  C   UNL     1      -2.809  15.056  25.497  0.00  0.00    +0.000 C 
ATOM     32  C   UNL     1      -0.976  15.716  24.105  0.00  0.00    +0.000 C 
ENDBRANCH  29  30
ENDBRANCH  28  29
ENDBRANCH   4  28
TORSDOF 8
ENDMDL
MODEL 9
REMARK VINA RESULT:      -6.6      1.018      1.647
REMARK  Name = 
REMARK  12 active torsions:
REMARK  status: ('A' for Active; 'I' for Inactive)
REMARK    1  A    between atoms: C_1  and  C_2
REMARK    2  A    between atoms: C_2  and  C_3
REMARK    3  A    between atoms: C_3  and  C_4
REMARK    4  A    between atoms: N_7  and  C_8
REMARK    5  A    between atoms: C_8  and  C_9
REMARK    6  A    between atoms: C_9  and  N_10
REMARK    7  A    between atoms: N_10  and  C_11
REMARK    8  A    between atoms: N_10  and  C_12
REMARK    9  A    between atoms: C_17  and  C_18
REMARK   10  A    between atoms: C_24  and  C_25
REMARK   11  A    between atoms: C_28  and  O_29
REMARK   12  A    between atoms: O_29  and  C_30
REMARK                            x       y       z     vdW  Elec       q    Type
REMARK                         _______ _______ _______ _____ _____    ______ ____
ROOT
ATOM      1  C   UNL     1       0.066  11.175  21.139  0.00  0.00    +0.000 C 
ATOM      2  C   UNL     1      -0.878  12.092  21.885  0.00  0.00    +0.000 C 
ATOM      3  O   UNL     1      -0.533  12.297  23.047  0.00  0.00    +0.000 OA
ATOM      4  N   UNL     1      -1.725  12.998  21.288  0.00  0.00    +0.000 N 
ATOM      5  C   UNL     1      -2.694  12.630  20.275  0.00  0.00    +0.000 A 
ATOM      6  C   UNL     1      -4.010  13.131  20.435  0.00  0.00    +0.000 A 
ATOM      7  C   UNL     1      -5.034  12.832  19.562  0.00  0.00    +0.000 A 
ATOM      8  C   UNL     1      -4.801  12.025  18.476  0.00  0.00    +0.000 A 
ATOM      9  C   UNL     1      -3.535  11.467  18.249  0.00  0.00    +0.000 A 
ATOM     10  C   UNL     1      -2.442  11.773  19.157  0.00  0.00    +0.000 A 
ATOM     11  C   UNL     1      -1.062  11.212  18.879  0.00  0.00    +0.000 C 
ATOM     12  C   UNL     1      -0.487  10.280  19.976  0.00  0.00    +0.000 C 
ENDROOT
BRANCH  12  13
ATOM     13  C   UNL     1       0.599   9.287  19.427  0.00  0.00    +0.000 A 
ATOM     14  C   UNL     1       1.151   8.262  20.245  0.00  0.00    +0.000 A 
ATOM     15  C   UNL     1       2.205   7.460  19.813  0.00  0.00    +0.000 A 
ATOM     16  C   UNL     1       2.716   7.586  18.530  0.00  0.00    +0.000 A 
ATOM     17  C   UNL     1       2.139   8.523  17.660  0.00  0.00    +0.000 A 
ATOM     18  C   UNL     1       1.104   9.354  18.097  0.00  0.00    +0.000 A 
BRANCH  16  19
ATOM     19  O   UNL     1       3.749   6.783  18.173  0.00  0.00    +0.000 OA
ATOM     20  C   UNL     1       4.481   6.883  17.013  0.00  0.00    +0.000 C 
ENDBRANCH  16  19
ENDBRANCH  12  13
BRANCH   9  21
ATOM     21  C   UNL     1      -3.383  10.584  17.006  0.00  0.00    +0.000 C 
ATOM     22  F   UNL     1      -2.325  10.980  16.203  0.00  0.00    +0.000 F 
ATOM     23  F   UNL     1      -3.137   9.271  17.379  0.00  0.00    +0.000 F 
ATOM     24  F   UNL     1      -4.531  10.649  16.239  0.00  0.00    +0.000 F 
ENDBRANCH   9  21
BRANCH   1  25
ATOM     25  C   UNL     1       1.240  12.167  20.775  0.00  0.00    +0.000 C 
BRANCH  25  27
ATOM     26  C   UNL     1       2.605  13.552  19.163  0.00  0.00    +0.000 C 
ATOM     27  C   UNL     1       1.298  12.805  19.387  0.00  0.00    +0.000 C 
ENDBRANCH  25  27
ENDBRANCH   1  25
BRANCH   4  28
ATOM     28  C   UNL     1      -1.775  14.348  21.888  0.00  0.00    +0.000 C 
BRANCH  28  29
ATOM     29  C   UNL     1      -0.723  15.262  21.193  0.00  0.00    +0.000 C 
BRANCH  29  30
ATOM     30  N   UNL     1       0.091  16.053  22.156  0.00  0.00    +0.000 NA
ATOM     31  C   UNL     1      -0.400  15.920  23.540  0.00  0.00    +0.000 C 
ATOM     32  C   UNL     1       1.499  15.609  22.116  0.00  0.00    +0.000 C 
ENDBRANCH  29  30
ENDBRANCH  28  29
ENDBRANCH   4  28
TORSDOF 8
ENDMDL
