MODEL 1
REMARK VINA RESULT:      -7.4      0.000      0.000
REMARK  Name = 
REMARK  7 active torsions:
REMARK  status: ('A' for Active; 'I' for Inactive)
REMARK    1  A    between atoms: N_1  and  S_2
REMARK    2  A    between atoms: S_2  and  C_5
REMARK    3  A    between atoms: C_8  and  C_9
REMARK    4  A    between atoms: C_9  and  N_10
REMARK    5  A    between atoms: N_10  and  S_11
REMARK    6  A    between atoms: S_11  and  C_14
REMARK    7  A    between atoms: C_14  and  C_15
REMARK                            x       y       z     vdW  Elec       q    Type
REMARK                         _______ _______ _______ _____ _____    ______ ____
ROOT
ATOM      1  C   UNL     1       3.610   7.295  17.189  0.00  0.00    +0.000 C 
ENDROOT
BRANCH   1   5
ATOM      2  C   UNL     1       1.059   8.718  20.352  0.00  0.00    +0.000 A 
ATOM      3  C   UNL     1       1.733   7.508  20.514  0.00  0.00    +0.000 A 
ATOM      4  C   UNL     1       2.552   7.037  19.483  0.00  0.00    +0.000 A 
ATOM      5  C   UNL     1       2.693   7.769  18.290  0.00  0.00    +0.000 A 
ATOM      6  C   UNL     1       2.005   8.982  18.147  0.00  0.00    +0.000 A 
ATOM      7  C   UNL     1       1.188   9.456  19.170  0.00  0.00    +0.000 A 
BRANCH   2   8
ATOM      8  S   UNL     1      -0.032   9.317  21.609  0.00  0.00    +0.000 S 
ATOM      9  O   UNL     1      -0.850   8.224  22.087  0.00  0.00    +0.000 OA
ATOM     10  O   UNL     1      -0.603  10.573  21.190  0.00  0.00    +0.000 OA
BRANCH   8  11
ATOM     11  N   UNL     1       1.033   9.687  22.853  0.00  0.00    +0.000 NA
ATOM     12  H   UNL     1       1.285   8.827  23.344  0.00  0.00    +0.000 HD
ATOM     13  H   UNL     1       0.626  10.396  23.462  0.00  0.00    +0.000 HD
ENDBRANCH   8  11
ENDBRANCH   2   8
ENDBRANCH   1   5
BRANCH   1  14
ATOM     14  N   UNL     1       4.618   6.341  17.669  0.00  0.00    +0.000 NA
ATOM     15  H   UNL     1       4.235   5.611  18.276  0.00  0.00    +0.000 HD
BRANCH  14  16
ATOM     16  S   UNL     1       5.582   5.620  16.475  0.00  0.00    +0.000 S 
ATOM     17  O   UNL     1       5.345   6.395  15.278  0.00  0.00    +0.000 OA
ATOM     18  O   UNL     1       6.906   5.490  17.044  0.00  0.00    +0.000 OA
BRANCH  16  19
ATOM     19  C   UNL     1       4.811   4.003  16.317  0.00  0.00    +0.000 C 
BRANCH  19  20
ATOM     20  C   UNL     1       3.900   3.746  17.487  0.00  0.00    +0.000 A 
ATOM     21  C   UNL     1       4.426   3.497  18.764  0.00  0.00    +0.000 A 
ATOM     22  C   UNL     1       3.575   3.303  19.855  0.00  0.00    +0.000 A 
ATOM     23  C   UNL     1       2.194   3.352  19.672  0.00  0.00    +0.000 A 
ATOM     24 CL   UNL     1       1.146   3.125  21.016  0.00  0.00    +0.000 Cl
ATOM     25  C   UNL     1       1.660   3.585  18.408  0.00  0.00    +0.000 A 
ATOM     26  C   UNL     1       2.509   3.780  17.317  0.00  0.00    +0.000 A 
ENDBRANCH  19  20
ENDBRANCH  16  19
ENDBRANCH  14  16
ENDBRANCH   1  14
TORSDOF 7
ENDMDL
MODEL 2
REMARK VINA RESULT:      -7.4      0.340      1.467
REMARK  Name = 
REMARK  7 active torsions:
REMARK  status: ('A' for Active; 'I' for Inactive)
REMARK    1  A    between atoms: N_1  and  S_2
REMARK    2  A    between atoms: S_2  and  C_5
REMARK    3  A    between atoms: C_8  and  C_9
REMARK    4  A    between atoms: C_9  and  N_10
REMARK    5  A    between atoms: N_10  and  S_11
REMARK    6  A    between atoms: S_11  and  C_14
REMARK    7  A    between atoms: C_14  and  C_15
REMARK                            x       y       z     vdW  Elec       q    Type
REMARK                         _______ _______ _______ _____ _____    ______ ____
ROOT
ATOM      1  C   UNL     1       3.969   7.107  17.146  0.00  0.00    +0.000 C 
ENDROOT
BRANCH   1   5
ATOM      2  C   UNL     1       1.165   8.612  20.045  0.00  0.00    +0.000 A 
ATOM      3  C   UNL     1       1.380   9.331  18.870  0.00  0.00    +0.000 A 
ATOM      4  C   UNL     1       2.300   8.852  17.932  0.00  0.00    +0.000 A 
ATOM      5  C   UNL     1       3.009   7.660  18.170  0.00  0.00    +0.000 A 
ATOM      6  C   UNL     1       2.778   6.953  19.358  0.00  0.00    +0.000 A 
ATOM      7  C   UNL     1       1.864   7.426  20.295  0.00  0.00    +0.000 A 
BRANCH   2   8
ATOM      8  S   UNL     1       0.053   9.218  21.280  0.00  0.00    +0.000 S 
ATOM      9  O   UNL     1      -0.707   8.111  21.819  0.00  0.00    +0.000 OA
ATOM     10  O   UNL     1      -0.581  10.422  20.805  0.00  0.00    +0.000 OA
BRANCH   8  11
ATOM     11  N   UNL     1       1.105   9.701  22.496  0.00  0.00    +0.000 NA
ATOM     12  H   UNL     1       1.588  10.551  22.202  0.00  0.00    +0.000 HD
ATOM     13  H   UNL     1       1.738   8.938  22.735  0.00  0.00    +0.000 HD
ENDBRANCH   8  11
ENDBRANCH   2   8
ENDBRANCH   1   5
BRANCH   1  14
ATOM     14  N   UNL     1       4.929   6.160  17.729  0.00  0.00    +0.000 NA
ATOM     15  H   UNL     1       4.507   5.511  18.399  0.00  0.00    +0.000 HD
BRANCH  14  16
ATOM     16  S   UNL     1       5.869   5.284  16.623  0.00  0.00    +0.000 S 
ATOM     17  O   UNL     1       5.841   6.060  15.405  0.00  0.00    +0.000 OA
ATOM     18  O   UNL     1       7.111   4.978  17.298  0.00  0.00    +0.000 OA
BRANCH  16  19
ATOM     19  C   UNL     1       4.888   3.792  16.419  0.00  0.00    +0.000 C 
BRANCH  19  20
ATOM     20  C   UNL     1       3.937   3.632  17.575  0.00  0.00    +0.000 A 
ATOM     21  C   UNL     1       2.550   3.732  17.382  0.00  0.00    +0.000 A 
ATOM     22  C   UNL     1       1.672   3.539  18.451  0.00  0.00    +0.000 A 
ATOM     23  C   UNL     1       2.176   3.251  19.718  0.00  0.00    +0.000 A 
ATOM     24 CL   UNL     1       1.094   3.001  21.032  0.00  0.00    +0.000 Cl
ATOM     25  C   UNL     1       3.550   3.161  19.925  0.00  0.00    +0.000 A 
ATOM     26  C   UNL     1       4.429   3.354  18.857  0.00  0.00    +0.000 A 
ENDBRANCH  19  20
ENDBRANCH  16  19
ENDBRANCH  14  16
ENDBRANCH   1  14
TORSDOF 7
ENDMDL
MODEL 3
REMARK VINA RESULT:      -7.3      0.291      1.052
REMARK  Name = 
REMARK  7 active torsions:
REMARK  status: ('A' for Active; 'I' for Inactive)
REMARK    1  A    between atoms: N_1  and  S_2
REMARK    2  A    between atoms: S_2  and  C_5
REMARK    3  A    between atoms: C_8  and  C_9
REMARK    4  A    between atoms: C_9  and  N_10
REMARK    5  A    between atoms: N_10  and  S_11
REMARK    6  A    between atoms: S_11  and  C_14
REMARK    7  A    between atoms: C_14  and  C_15
REMARK                            x       y       z     vdW  Elec       q    Type
REMARK                         _______ _______ _______ _____ _____    ______ ____
ROOT
ATOM      1  C   UNL     1       3.903   7.148  17.125  0.00  0.00    +0.000 C 
ENDROOT
BRANCH   1   5
ATOM      2  C   UNL     1       1.126   8.652  20.051  0.00  0.00    +0.000 A 
ATOM      3  C   UNL     1       1.316   9.361  18.865  0.00  0.00    +0.000 A 
ATOM      4  C   UNL     1       2.227   8.882  17.919  0.00  0.00    +0.000 A 
ATOM      5  C   UNL     1       2.952   7.701  18.158  0.00  0.00    +0.000 A 
ATOM      6  C   UNL     1       2.747   7.003  19.357  0.00  0.00    +0.000 A 
ATOM      7  C   UNL     1       1.841   7.476  20.302  0.00  0.00    +0.000 A 
BRANCH   2   8
ATOM      8  S   UNL     1       0.027   9.258  21.296  0.00  0.00    +0.000 S 
ATOM      9  O   UNL     1      -0.745   8.156  21.826  0.00  0.00    +0.000 OA
ATOM     10  O   UNL     1      -0.595  10.475  20.836  0.00  0.00    +0.000 OA
BRANCH   8  11
ATOM     11  N   UNL     1       1.089   9.716  22.513  0.00  0.00    +0.000 NA
ATOM     12  H   UNL     1       1.295  10.712  22.420  0.00  0.00    +0.000 HD
ATOM     13  H   UNL     1       1.920   9.126  22.492  0.00  0.00    +0.000 HD
ENDBRANCH   8  11
ENDBRANCH   2   8
ENDBRANCH   1   5
BRANCH   1  14
ATOM     14  N   UNL     1       4.841   6.169  17.692  0.00  0.00    +0.000 NA
ATOM     15  H   UNL     1       4.399   5.499  18.326  0.00  0.00    +0.000 HD
BRANCH  14  16
ATOM     16  S   UNL     1       5.798   5.328  16.573  0.00  0.00    +0.000 S 
ATOM     17  O   UNL     1       5.743   6.114  15.362  0.00  0.00    +0.000 OA
ATOM     18  O   UNL     1       7.051   5.048  17.239  0.00  0.00    +0.000 OA
BRANCH  16  19
ATOM     19  C   UNL     1       4.854   3.813  16.360  0.00  0.00    +0.000 C 
BRANCH  19  20
ATOM     20  C   UNL     1       3.927   3.609  17.528  0.00  0.00    +0.000 A 
ATOM     21  C   UNL     1       4.433   3.301  18.800  0.00  0.00    +0.000 A 
ATOM     22  C   UNL     1       3.571   3.158  19.890  0.00  0.00    +0.000 A 
ATOM     23  C   UNL     1       2.198   3.317  19.710  0.00  0.00    +0.000 A 
ATOM     24 CL   UNL     1       1.136   3.153  21.053  0.00  0.00    +0.000 Cl
ATOM     25  C   UNL     1       1.682   3.611  18.451  0.00  0.00    +0.000 A 
ATOM     26  C   UNL     1       2.543   3.755  17.361  0.00  0.00    +0.000 A 
ENDBRANCH  19  20
ENDBRANCH  16  19
ENDBRANCH  14  16
ENDBRANCH   1  14
TORSDOF 7
ENDMDL
MODEL 4
REMARK VINA RESULT:      -7.3      0.730      1.245
REMARK  Name = 
REMARK  7 active torsions:
REMARK  status: ('A' for Active; 'I' for Inactive)
REMARK    1  A    between atoms: N_1  and  S_2
REMARK    2  A    between atoms: S_2  and  C_5
REMARK    3  A    between atoms: C_8  and  C_9
REMARK    4  A    between atoms: C_9  and  N_10
REMARK    5  A    between atoms: N_10  and  S_11
REMARK    6  A    between atoms: S_11  and  C_14
REMARK    7  A    between atoms: C_14  and  C_15
REMARK                            x       y       z     vdW  Elec       q    Type
REMARK                         _______ _______ _______ _____ _____    ______ ____
ROOT
ATOM      1  C   UNL     1       3.891   7.169  16.965  0.00  0.00    +0.000 C 
ENDROOT
BRANCH   1   5
ATOM      2  C   UNL     1       1.209   8.593  20.017  0.00  0.00    +0.000 A 
ATOM      3  C   UNL     1       1.834   7.358  20.183  0.00  0.00    +0.000 A 
ATOM      4  C   UNL     1       2.696   6.887  19.188  0.00  0.00    +0.000 A 
ATOM      5  C   UNL     1       2.928   7.644  18.025  0.00  0.00    +0.000 A 
ATOM      6  C   UNL     1       2.288   8.883  17.878  0.00  0.00    +0.000 A 
ATOM      7  C   UNL     1       1.429   9.356  18.866  0.00  0.00    +0.000 A 
BRANCH   2   8
ATOM      8  S   UNL     1       0.068   9.194  21.227  0.00  0.00    +0.000 S 
ATOM      9  O   UNL     1      -0.678   8.081  21.771  0.00  0.00    +0.000 OA
ATOM     10  O   UNL     1      -0.584  10.378  20.725  0.00  0.00    +0.000 OA
BRANCH   8  11
ATOM     11  N   UNL     1       1.092   9.716  22.450  0.00  0.00    +0.000 NA
ATOM     12  H   UNL     1       1.290   8.935  23.077  0.00  0.00    +0.000 HD
ATOM     13  H   UNL     1       0.688  10.523  22.925  0.00  0.00    +0.000 HD
ENDBRANCH   8  11
ENDBRANCH   2   8
ENDBRANCH   1   5
BRANCH   1  14
ATOM     14  N   UNL     1       5.165   6.704  17.530  0.00  0.00    +0.000 NA
ATOM     15  H   UNL     1       5.053   6.115  18.360  0.00  0.00    +0.000 HD
BRANCH  14  16
ATOM     16  S   UNL     1       6.220   5.941  16.445  0.00  0.00    +0.000 S 
ATOM     17  O   UNL     1       5.539   5.968  15.171  0.00  0.00    +0.000 OA
ATOM     18  O   UNL     1       7.512   6.566  16.627  0.00  0.00    +0.000 OA
BRANCH  16  19
ATOM     19  C   UNL     1       6.245   4.261  17.087  0.00  0.00    +0.000 C 
BRANCH  19  20
ATOM     20  C   UNL     1       4.920   3.926  17.718  0.00  0.00    +0.000 A 
ATOM     21  C   UNL     1       3.779   3.725  16.925  0.00  0.00    +0.000 A 
ATOM     22  C   UNL     1       2.563   3.371  17.512  0.00  0.00    +0.000 A 
ATOM     23  C   UNL     1       2.480   3.220  18.895  0.00  0.00    +0.000 A 
ATOM     24 CL   UNL     1       0.986   2.771  19.619  0.00  0.00    +0.000 Cl
ATOM     25  C   UNL     1       3.602   3.428  19.694  0.00  0.00    +0.000 A 
ATOM     26  C   UNL     1       4.818   3.783  19.108  0.00  0.00    +0.000 A 
ENDBRANCH  19  20
ENDBRANCH  16  19
ENDBRANCH  14  16
ENDBRANCH   1  14
TORSDOF 7
ENDMDL
MODEL 5
REMARK VINA RESULT:      -7.1      3.347      4.101
REMARK  Name = 
REMARK  7 active torsions:
REMARK  status: ('A' for Active; 'I' for Inactive)
REMARK    1  A    between atoms: N_1  and  S_2
REMARK    2  A    between atoms: S_2  and  C_5
REMARK    3  A    between atoms: C_8  and  C_9
REMARK    4  A    between atoms: C_9  and  N_10
REMARK    5  A    between atoms: N_10  and  S_11
REMARK    6  A    between atoms: S_11  and  C_14
REMARK    7  A    between atoms: C_14  and  C_15
REMARK                            x       y       z     vdW  Elec       q    Type
REMARK                         _______ _______ _______ _____ _____    ______ ____
ROOT
ATOM      1  C   UNL     1       2.800   4.962  19.802  0.00  0.00    +0.000 C 
ENDROOT
BRANCH   1   5
ATOM      2  C   UNL     1       1.493   9.027  19.252  0.00  0.00    +0.000 A 
ATOM      3  C   UNL     1       1.351   8.430  20.504  0.00  0.00    +0.000 A 
ATOM      4  C   UNL     1       1.762   7.106  20.682  0.00  0.00    +0.000 A 
ATOM      5  C   UNL     1       2.309   6.376  19.611  0.00  0.00    +0.000 A 
ATOM      6  C   UNL     1       2.443   6.995  18.360  0.00  0.00    +0.000 A 
ATOM      7  C   UNL     1       2.035   8.313  18.177  0.00  0.00    +0.000 A 
BRANCH   2   8
ATOM      8  S   UNL     1       0.930  10.680  18.973  0.00  0.00    +0.000 S 
ATOM      9  O   UNL     1       1.149  11.464  20.169  0.00  0.00    +0.000 OA
ATOM     10  O   UNL     1      -0.347  10.645  18.305  0.00  0.00    +0.000 OA
BRANCH   8  11
ATOM     11  N   UNL     1       2.030  11.241  17.835  0.00  0.00    +0.000 NA
ATOM     12  H   UNL     1       2.329  10.462  17.247  0.00  0.00    +0.000 HD
ATOM     13  H   UNL     1       2.802  11.718  18.300  0.00  0.00    +0.000 HD
ENDBRANCH   8  11
ENDBRANCH   2   8
ENDBRANCH   1   5
BRANCH   1  14
ATOM     14  N   UNL     1       2.792   4.191  18.551  0.00  0.00    +0.000 NA
ATOM     15  H   UNL     1       2.817   4.775  17.711  0.00  0.00    +0.000 HD
BRANCH  14  16
ATOM     16  S   UNL     1       3.973   2.981  18.421  0.00  0.00    +0.000 S 
ATOM     17  O   UNL     1       4.826   3.159  19.573  0.00  0.00    +0.000 OA
ATOM     18  O   UNL     1       3.261   1.743  18.188  0.00  0.00    +0.000 OA
BRANCH  16  19
ATOM     19  C   UNL     1       4.845   3.487  16.933  0.00  0.00    +0.000 C 
BRANCH  19  20
ATOM     20  C   UNL     1       5.640   4.738  17.196  0.00  0.00    +0.000 A 
ATOM     21  C   UNL     1       6.822   4.690  17.953  0.00  0.00    +0.000 A 
ATOM     22  C   UNL     1       7.579   5.847  18.156  0.00  0.00    +0.000 A 
ATOM     23  C   UNL     1       7.155   7.056  17.609  0.00  0.00    +0.000 A 
ATOM     24 CL   UNL     1       8.093   8.478  17.848  0.00  0.00    +0.000 Cl
ATOM     25  C   UNL     1       5.979   7.119  16.866  0.00  0.00    +0.000 A 
ATOM     26  C   UNL     1       5.221   5.964  16.662  0.00  0.00    +0.000 A 
ENDBRANCH  19  20
ENDBRANCH  16  19
ENDBRANCH  14  16
ENDBRANCH   1  14
TORSDOF 7
ENDMDL
MODEL 6
REMARK VINA RESULT:      -7.1      1.030      1.836
REMARK  Name = 
REMARK  7 active torsions:
REMARK  status: ('A' for Active; 'I' for Inactive)
REMARK    1  A    between atoms: N_1  and  S_2
REMARK    2  A    between atoms: S_2  and  C_5
REMARK    3  A    between atoms: C_8  and  C_9
REMARK    4  A    between atoms: C_9  and  N_10
REMARK    5  A    between atoms: N_10  and  S_11
REMARK    6  A    between atoms: S_11  and  C_14
REMARK    7  A    between atoms: C_14  and  C_15
REMARK                            x       y       z     vdW  Elec       q    Type
REMARK                         _______ _______ _______ _____ _____    ______ ____
ROOT
ATOM      1  C   UNL     1       3.803   7.186  17.048  0.00  0.00    +0.000 C 
ENDROOT
BRANCH   1   5
ATOM      2  C   UNL     1       1.205   8.662  20.147  0.00  0.00    +0.000 A 
ATOM      3  C   UNL     1       1.387   9.422  18.992  0.00  0.00    +0.000 A 
ATOM      4  C   UNL     1       2.240   8.952  17.989  0.00  0.00    +0.000 A 
ATOM      5  C   UNL     1       2.916   7.728  18.142  0.00  0.00    +0.000 A 
ATOM      6  C   UNL     1       2.720   6.979  19.311  0.00  0.00    +0.000 A 
ATOM      7  C   UNL     1       1.871   7.443  20.312  0.00  0.00    +0.000 A 
BRANCH   2   8
ATOM      8  S   UNL     1       0.180   9.252  21.461  0.00  0.00    +0.000 S 
ATOM      9  O   UNL     1       1.006   9.906  22.452  0.00  0.00    +0.000 OA
ATOM     10  O   UNL     1      -0.778   8.235  21.816  0.00  0.00    +0.000 OA
BRANCH   8  11
ATOM     11  N   UNL     1      -0.699  10.468  20.706  0.00  0.00    +0.000 NA
ATOM     12  H   UNL     1      -1.695  10.314  20.874  0.00  0.00    +0.000 HD
ATOM     13  H   UNL     1      -0.457  10.511  19.717  0.00  0.00    +0.000 HD
ENDBRANCH   8  11
ENDBRANCH   2   8
ENDBRANCH   1   5
BRANCH   1  14
ATOM     14  N   UNL     1       5.143   6.829  17.535  0.00  0.00    +0.000 NA
ATOM     15  H   UNL     1       5.137   6.381  18.455  0.00  0.00    +0.000 HD
BRANCH  14  16
ATOM     16  S   UNL     1       6.095   5.912  16.475  0.00  0.00    +0.000 S 
ATOM     17  O   UNL     1       5.310   5.790  15.268  0.00  0.00    +0.000 OA
ATOM     18  O   UNL     1       7.405   6.527  16.468  0.00  0.00    +0.000 OA
BRANCH  16  19
ATOM     19  C   UNL     1       6.156   4.328  17.324  0.00  0.00    +0.000 C 
BRANCH  19  20
ATOM     20  C   UNL     1       4.799   3.981  17.874  0.00  0.00    +0.000 A 
ATOM     21  C   UNL     1       3.727   3.699  17.013  0.00  0.00    +0.000 A 
ATOM     22  C   UNL     1       2.481   3.334  17.529  0.00  0.00    +0.000 A 
ATOM     23  C   UNL     1       2.301   3.253  18.908  0.00  0.00    +0.000 A 
ATOM     24 CL   UNL     1       0.771   2.791  19.545  0.00  0.00    +0.000 Cl
ATOM     25  C   UNL     1       3.353   3.541  19.774  0.00  0.00    +0.000 A 
ATOM     26  C   UNL     1       4.599   3.906  19.259  0.00  0.00    +0.000 A 
ENDBRANCH  19  20
ENDBRANCH  16  19
ENDBRANCH  14  16
ENDBRANCH   1  14
TORSDOF 7
ENDMDL
MODEL 7
REMARK VINA RESULT:      -7.0      0.835      1.473
REMARK  Name = 
REMARK  7 active torsions:
REMARK  status: ('A' for Active; 'I' for Inactive)
REMARK    1  A    between atoms: N_1  and  S_2
REMARK    2  A    between atoms: S_2  and  C_5
REMARK    3  A    between atoms: C_8  and  C_9
REMARK    4  A    between atoms: C_9  and  N_10
REMARK    5  A    between atoms: N_10  and  S_11
REMARK    6  A    between atoms: S_11  and  C_14
REMARK    7  A    between atoms: C_14  and  C_15
REMARK                            x       y       z     vdW  Elec       q    Type
REMARK                         _______ _______ _______ _____ _____    ______ ____
ROOT
ATOM      1  C   UNL     1       3.666   7.235  17.061  0.00  0.00    +0.000 C 
ENDROOT
BRANCH   1   5
ATOM      2  C   UNL     1       1.084   9.012  20.013  0.00  0.00    +0.000 A 
ATOM      3  C   UNL     1       1.311   9.686  18.813  0.00  0.00    +0.000 A 
ATOM      4  C   UNL     1       2.160   9.118  17.858  0.00  0.00    +0.000 A 
ATOM      5  C   UNL     1       2.785   7.882  18.102  0.00  0.00    +0.000 A 
ATOM      6  C   UNL     1       2.544   7.221  19.315  0.00  0.00    +0.000 A 
ATOM      7  C   UNL     1       1.701   7.783  20.269  0.00  0.00    +0.000 A 
BRANCH   2   8
ATOM      8  S   UNL     1       0.065   9.727  21.268  0.00  0.00    +0.000 S 
ATOM      9  O   UNL     1       0.816  10.747  21.966  0.00  0.00    +0.000 OA
ATOM     10  O   UNL     1      -0.638   8.681  21.969  0.00  0.00    +0.000 OA
BRANCH   8  11
ATOM     11  N   UNL     1      -1.096  10.535  20.363  0.00  0.00    +0.000 NA
ATOM     12  H   UNL     1      -0.858  10.462  19.373  0.00  0.00    +0.000 HD
ATOM     13  H   UNL     1      -1.186  11.497  20.688  0.00  0.00    +0.000 HD
ENDBRANCH   8  11
ENDBRANCH   2   8
ENDBRANCH   1   5
BRANCH   1  14
ATOM     14  N   UNL     1       4.664   6.333  17.651  0.00  0.00    +0.000 NA
ATOM     15  H   UNL     1       4.273   5.684  18.339  0.00  0.00    +0.000 HD
BRANCH  14  16
ATOM     16  S   UNL     1       5.620   5.467  16.551  0.00  0.00    +0.000 S 
ATOM     17  O   UNL     1       5.595   6.244  15.333  0.00  0.00    +0.000 OA
ATOM     18  O   UNL     1       6.859   5.169  17.235  0.00  0.00    +0.000 OA
BRANCH  16  19
ATOM     19  C   UNL     1       4.652   3.967  16.336  0.00  0.00    +0.000 C 
BRANCH  19  20
ATOM     20  C   UNL     1       3.798   3.721  17.550  0.00  0.00    +0.000 A 
ATOM     21  C   UNL     1       4.377   3.328  18.767  0.00  0.00    +0.000 A 
ATOM     22  C   UNL     1       3.584   3.145  19.902  0.00  0.00    +0.000 A 
ATOM     23  C   UNL     1       2.208   3.349  19.825  0.00  0.00    +0.000 A 
ATOM     24 CL   UNL     1       1.232   3.136  21.225  0.00  0.00    +0.000 Cl
ATOM     25  C   UNL     1       1.619   3.728  18.621  0.00  0.00    +0.000 A 
ATOM     26  C   UNL     1       2.411   3.911  17.486  0.00  0.00    +0.000 A 
ENDBRANCH  19  20
ENDBRANCH  16  19
ENDBRANCH  14  16
ENDBRANCH   1  14
TORSDOF 7
ENDMDL
MODEL 8
REMARK VINA RESULT:      -7.0      3.334      4.211
REMARK  Name = 
REMARK  7 active torsions:
REMARK  status: ('A' for Active; 'I' for Inactive)
REMARK    1  A    between atoms: N_1  and  S_2
REMARK    2  A    between atoms: S_2  and  C_5
REMARK    3  A    between atoms: C_8  and  C_9
REMARK    4  A    between atoms: C_9  and  N_10
REMARK    5  A    between atoms: N_10  and  S_11
REMARK    6  A    between atoms: S_11  and  C_14
REMARK    7  A    between atoms: C_14  and  C_15
REMARK                            x       y       z     vdW  Elec       q    Type
REMARK                         _______ _______ _______ _____ _____    ______ ____
ROOT
ATOM      1  C   UNL     1       2.831   4.935  19.949  0.00  0.00    +0.000 C 
ENDROOT
BRANCH   1   5
ATOM      2  C   UNL     1       1.518   8.976  19.253  0.00  0.00    +0.000 A 
ATOM      3  C   UNL     1       1.323   8.404  20.510  0.00  0.00    +0.000 A 
ATOM      4  C   UNL     1       1.737   7.088  20.735  0.00  0.00    +0.000 A 
ATOM      5  C   UNL     1       2.337   6.341  19.706  0.00  0.00    +0.000 A 
ATOM      6  C   UNL     1       2.523   6.934  18.449  0.00  0.00    +0.000 A 
ATOM      7  C   UNL     1       2.113   8.245  18.220  0.00  0.00    +0.000 A 
BRANCH   2   8
ATOM      8  S   UNL     1       0.955  10.618  18.914  0.00  0.00    +0.000 S 
ATOM      9  O   UNL     1       1.274  11.471  20.037  0.00  0.00    +0.000 OA
ATOM     10  O   UNL     1      -0.371  10.563  18.349  0.00  0.00    +0.000 OA
BRANCH   8  11
ATOM     11  N   UNL     1       1.970  11.089  17.663  0.00  0.00    +0.000 NA
ATOM     12  H   UNL     1       2.845  11.438  18.056  0.00  0.00    +0.000 HD
ATOM     13  H   UNL     1       1.497  11.764  17.064  0.00  0.00    +0.000 HD
ENDBRANCH   8  11
ENDBRANCH   2   8
ENDBRANCH   1   5
BRANCH   1  14
ATOM     14  N   UNL     1       2.713   4.085  18.756  0.00  0.00    +0.000 NA
ATOM     15  H   UNL     1       2.558   4.611  17.892  0.00  0.00    +0.000 HD
BRANCH  14  16
ATOM     16  S   UNL     1       3.972   2.975  18.513  0.00  0.00    +0.000 S 
ATOM     17  O   UNL     1       4.928   3.252  19.560  0.00  0.00    +0.000 OA
ATOM     18  O   UNL     1       3.348   1.676  18.380  0.00  0.00    +0.000 OA
BRANCH  16  19
ATOM     19  C   UNL     1       4.628   3.516  16.929  0.00  0.00    +0.000 C 
BRANCH  19  20
ATOM     20  C   UNL     1       5.495   4.732  17.114  0.00  0.00    +0.000 A 
ATOM     21  C   UNL     1       5.083   5.986  16.634  0.00  0.00    +0.000 A 
ATOM     22  C   UNL     1       5.871   7.119  16.847  0.00  0.00    +0.000 A 
ATOM     23  C   UNL     1       7.076   7.003  17.537  0.00  0.00    +0.000 A 
ATOM     24 CL   UNL     1       8.041   8.400  17.812  0.00  0.00    +0.000 Cl
ATOM     25  C   UNL     1       7.502   5.764  18.008  0.00  0.00    +0.000 A 
ATOM     26  C   UNL     1       6.715   4.631  17.796  0.00  0.00    +0.000 A 
ENDBRANCH  19  20
ENDBRANCH  16  19
ENDBRANCH  14  16
ENDBRANCH   1  14
TORSDOF 7
ENDMDL
MODEL 9
REMARK VINA RESULT:      -7.0      0.905      1.514
REMARK  Name = 
REMARK  7 active torsions:
REMARK  status: ('A' for Active; 'I' for Inactive)
REMARK    1  A    between atoms: N_1  and  S_2
REMARK    2  A    between atoms: S_2  and  C_5
REMARK    3  A    between atoms: C_8  and  C_9
REMARK    4  A    between atoms: C_9  and  N_10
REMARK    5  A    between atoms: N_10  and  S_11
REMARK    6  A    between atoms: S_11  and  C_14
REMARK    7  A    between atoms: C_14  and  C_15
REMARK                            x       y       z     vdW  Elec       q    Type
REMARK                         _______ _______ _______ _____ _____    ______ ____
ROOT
ATOM      1  C   UNL     1       3.451   7.274  17.183  0.00  0.00    +0.000 C 
ENDROOT
BRANCH   1   5
ATOM      2  C   UNL     1       1.044   9.249  20.156  0.00  0.00    +0.000 A 
ATOM      3  C   UNL     1       1.618   8.014  20.456  0.00  0.00    +0.000 A 
ATOM      4  C   UNL     1       2.390   7.364  19.488  0.00  0.00    +0.000 A 
ATOM      5  C   UNL     1       2.583   7.942  18.220  0.00  0.00    +0.000 A 
ATOM      6  C   UNL     1       1.996   9.184  17.939  0.00  0.00    +0.000 A 
ATOM      7  C   UNL     1       1.227   9.835  18.899  0.00  0.00    +0.000 A 
BRANCH   2   8
ATOM      8  S   UNL     1       0.014  10.072  21.334  0.00  0.00    +0.000 S 
ATOM      9  O   UNL     1       0.747  11.174  21.918  0.00  0.00    +0.000 OA
ATOM     10  O   UNL     1      -0.667   9.092  22.143  0.00  0.00    +0.000 OA
BRANCH   8  11
ATOM     11  N   UNL     1      -1.164  10.759  20.355  0.00  0.00    +0.000 NA
ATOM     12  H   UNL     1      -1.841  11.251  20.941  0.00  0.00    +0.000 HD
ATOM     13  H   UNL     1      -1.586  10.045  19.761  0.00  0.00    +0.000 HD
ENDBRANCH   8  11
ENDBRANCH   2   8
ENDBRANCH   1   5
BRANCH   1  14
ATOM     14  N   UNL     1       4.502   6.439  17.782  0.00  0.00    +0.000 NA
ATOM     15  H   UNL     1       4.153   5.793  18.495  0.00  0.00    +0.000 HD
BRANCH  14  16
ATOM     16  S   UNL     1       5.480   5.587  16.691  0.00  0.00    +0.000 S 
ATOM     17  O   UNL     1       5.464   6.368  15.476  0.00  0.00    +0.000 OA
ATOM     18  O   UNL     1       6.713   5.298  17.391  0.00  0.00    +0.000 OA
BRANCH  16  19
ATOM     19  C   UNL     1       4.530   4.078  16.458  0.00  0.00    +0.000 C 
BRANCH  19  20
ATOM     20  C   UNL     1       3.703   3.790  17.682  0.00  0.00    +0.000 A 
ATOM     21  C   UNL     1       2.310   3.956  17.662  0.00  0.00    +0.000 A 
ATOM     22  C   UNL     1       1.543   3.645  18.787  0.00  0.00    +0.000 A 
ATOM     23  C   UNL     1       2.168   3.170  19.940  0.00  0.00    +0.000 A 
ATOM     24 CL   UNL     1       1.224   2.775  21.322  0.00  0.00    +0.000 Cl
ATOM     25  C   UNL     1       3.550   3.013  19.977  0.00  0.00    +0.000 A 
ATOM     26  C   UNL     1       4.318   3.324  18.852  0.00  0.00    +0.000 A 
ENDBRANCH  19  20
ENDBRANCH  16  19
ENDBRANCH  14  16
ENDBRANCH   1  14
TORSDOF 7
ENDMDL
