MODEL 1
REMARK VINA RESULT:      -8.1      0.000      0.000
REMARK  Name = 
REMARK  7 active torsions:
REMARK  status: ('A' for Active; 'I' for Inactive)
REMARK    1  A    between atoms: C_1  and  C_2
REMARK    2  A    between atoms: C_2  and  C_3
REMARK    3  A    between atoms: C_4  and  C_5
REMARK    4  A    between atoms: N_7  and  C1*_8
REMARK    5  A    between atoms: C3*_10  and  O3*_11
REMARK    6  A    between atoms: C4*_12  and  C5*_13
REMARK    7  A    between atoms: C5*_13  and  O5*_14
REMARK                            x       y       z     vdW  Elec       q    Type
REMARK                         _______ _______ _______ _____ _____    ______ ____
ROOT
ATOM      1  C   UNL     1       5.889   4.444  14.532  0.00  0.00    +0.000 A 
ATOM      2  C   UNL     1       5.207   4.251  15.670  0.00  0.00    +0.000 A 
ATOM      3  N   UNL     1       5.583   4.794  16.883  0.00  0.00    +0.000 N 
ATOM      4  C   UNL     1       6.782   5.487  17.005  0.00  0.00    +0.000 A 
ATOM      5  O   UNL     1       7.140   6.067  18.028  0.00  0.00    +0.000 OA
ATOM      6  N   UNL     1       7.571   5.509  15.879  0.00  0.00    +0.000 N 
ATOM      7  C   UNL     1       7.170   5.179  14.601  0.00  0.00    +0.000 A 
ATOM      8  O   UNL     1       7.822   5.479  13.618  0.00  0.00    +0.000 OA
ATOM      9  H   UNL     1       8.436   6.019  15.955  0.00  0.00    +0.000 HD
ENDROOT
BRANCH   3  10
ATOM     10  C1* UNL     1       4.679   4.733  18.032  0.00  0.00    +0.000 C 
ATOM     11  C2* UNL     1       3.197   4.857  17.678  0.00  0.00    +0.000 C 
ATOM     12  C3* UNL     1       2.527   4.081  18.789  0.00  0.00    +0.000 C 
ATOM     13  C4* UNL     1       3.538   2.984  19.118  0.00  0.00    +0.000 C 
ATOM     14  O4* UNL     1       4.839   3.479  18.725  0.00  0.00    +0.000 OA
BRANCH  12  15
ATOM     15  O3* UNL     1       2.302   4.937  19.909  0.00  0.00    +0.000 OA
ATOM     16  H3* UNL     1       1.702   5.660  19.656  0.00  0.00    +0.000 HD
ENDBRANCH  12  15
BRANCH  13  17
ATOM     17  C5* UNL     1       3.263   1.689  18.348  0.00  0.00    +0.000 C 
BRANCH  17  18
ATOM     18  O5* UNL     1       4.325   0.749  18.512  0.00  0.00    +0.000 OA
ATOM     19  H5* UNL     1       4.454   0.610  19.468  0.00  0.00    +0.000 HD
ENDBRANCH  17  18
ENDBRANCH  13  17
ENDBRANCH   3  10
BRANCH   1  21
ATOM     20  C   UNL     1       4.740   3.417  12.166  0.00  0.00    +0.000 C 
ATOM     21  C   UNL     1       5.271   3.891  13.258  0.00  0.00    +0.000 C 
BRANCH  20  23
ATOM     22  C   UNL     1       3.308   3.946  10.233  0.00  0.00    +0.000 C 
ATOM     23  C   UNL     1       4.137   2.887  10.938  0.00  0.00    +0.000 C 
ENDBRANCH  20  23
ENDBRANCH   1  21
TORSDOF 6
ENDMDL
MODEL 2
REMARK VINA RESULT:      -7.9      1.034      1.356
REMARK  Name = 
REMARK  7 active torsions:
REMARK  status: ('A' for Active; 'I' for Inactive)
REMARK    1  A    between atoms: C_1  and  C_2
REMARK    2  A    between atoms: C_2  and  C_3
REMARK    3  A    between atoms: C_4  and  C_5
REMARK    4  A    between atoms: N_7  and  C1*_8
REMARK    5  A    between atoms: C3*_10  and  O3*_11
REMARK    6  A    between atoms: C4*_12  and  C5*_13
REMARK    7  A    between atoms: C5*_13  and  O5*_14
REMARK                            x       y       z     vdW  Elec       q    Type
REMARK                         _______ _______ _______ _____ _____    ______ ____
ROOT
ATOM      1  C   UNL     1       5.911   4.406  14.134  0.00  0.00    +0.000 A 
ATOM      2  C   UNL     1       5.367   4.259  15.351  0.00  0.00    +0.000 A 
ATOM      3  N   UNL     1       5.918   4.791  16.499  0.00  0.00    +0.000 N 
ATOM      4  C   UNL     1       7.156   5.422  16.462  0.00  0.00    +0.000 A 
ATOM      5  O   UNL     1       7.668   5.990  17.424  0.00  0.00    +0.000 OA
ATOM      6  N   UNL     1       7.799   5.393  15.247  0.00  0.00    +0.000 N 
ATOM      7  C   UNL     1       7.226   5.074  14.033  0.00  0.00    +0.000 A 
ATOM      8  O   UNL     1       7.764   5.332  12.973  0.00  0.00    +0.000 OA
ATOM      9  H   UNL     1       8.691   5.858  15.208  0.00  0.00    +0.000 HD
ENDROOT
BRANCH   3  10
ATOM     10  C1* UNL     1       5.162   4.787  17.753  0.00  0.00    +0.000 C 
ATOM     11  C2* UNL     1       4.037   5.820  17.816  0.00  0.00    +0.000 C 
ATOM     12  C3* UNL     1       3.047   5.171  18.756  0.00  0.00    +0.000 C 
ATOM     13  C4* UNL     1       3.217   3.678  18.479  0.00  0.00    +0.000 C 
ATOM     14  O4* UNL     1       4.555   3.496  17.963  0.00  0.00    +0.000 OA
BRANCH  12  15
ATOM     15  O3* UNL     1       3.380   5.493  20.107  0.00  0.00    +0.000 OA
ATOM     16  H3* UNL     1       2.656   5.226  20.699  0.00  0.00    +0.000 HD
ENDBRANCH  12  15
BRANCH  13  17
ATOM     17  C5* UNL     1       2.223   3.164  17.434  0.00  0.00    +0.000 C 
BRANCH  17  18
ATOM     18  O5* UNL     1       1.078   4.010  17.341  0.00  0.00    +0.000 OA
ATOM     19  H5* UNL     1       0.731   4.140  18.243  0.00  0.00    +0.000 HD
ENDBRANCH  17  18
ENDBRANCH  13  17
ENDBRANCH   3  10
BRANCH   1  21
ATOM     20  C   UNL     1       4.425   3.423  11.944  0.00  0.00    +0.000 C 
ATOM     21  C   UNL     1       5.112   3.877  12.955  0.00  0.00    +0.000 C 
BRANCH  20  23
ATOM     22  C   UNL     1       3.141   4.053   9.939  0.00  0.00    +0.000 C 
ATOM     23  C   UNL     1       3.647   2.915  10.807  0.00  0.00    +0.000 C 
ENDBRANCH  20  23
ENDBRANCH   1  21
TORSDOF 6
ENDMDL
MODEL 3
REMARK VINA RESULT:      -7.5      3.325      7.086
REMARK  Name = 
REMARK  7 active torsions:
REMARK  status: ('A' for Active; 'I' for Inactive)
REMARK    1  A    between atoms: C_1  and  C_2
REMARK    2  A    between atoms: C_2  and  C_3
REMARK    3  A    between atoms: C_4  and  C_5
REMARK    4  A    between atoms: N_7  and  C1*_8
REMARK    5  A    between atoms: C3*_10  and  O3*_11
REMARK    6  A    between atoms: C4*_12  and  C5*_13
REMARK    7  A    between atoms: C5*_13  and  O5*_14
REMARK                            x       y       z     vdW  Elec       q    Type
REMARK                         _______ _______ _______ _____ _____    ______ ____
ROOT
ATOM      1  C   UNL     1       2.455   5.354  19.794  0.00  0.00    +0.000 A 
ATOM      2  C   UNL     1       3.638   5.397  19.166  0.00  0.00    +0.000 A 
ATOM      3  N   UNL     1       4.164   4.332  18.462  0.00  0.00    +0.000 N 
ATOM      4  C   UNL     1       3.529   3.096  18.471  0.00  0.00    +0.000 A 
ATOM      5  O   UNL     1       3.892   2.130  17.803  0.00  0.00    +0.000 OA
ATOM      6  N   UNL     1       2.421   3.006  19.281  0.00  0.00    +0.000 N 
ATOM      7  C   UNL     1       1.730   4.065  19.832  0.00  0.00    +0.000 A 
ATOM      8  O   UNL     1       0.615   3.939  20.302  0.00  0.00    +0.000 OA
ATOM      9  H   UNL     1       1.947   2.117  19.285  0.00  0.00    +0.000 HD
ENDROOT
BRANCH   3  10
ATOM     10  C1* UNL     1       5.345   4.516  17.616  0.00  0.00    +0.000 C 
ATOM     11  C2* UNL     1       5.494   5.922  17.036  0.00  0.00    +0.000 C 
ATOM     12  C3* UNL     1       6.992   6.053  16.873  0.00  0.00    +0.000 C 
ATOM     13  C4* UNL     1       7.551   5.225  18.029  0.00  0.00    +0.000 C 
ATOM     14  O4* UNL     1       6.543   4.246  18.371  0.00  0.00    +0.000 OA
BRANCH  12  15
ATOM     15  O3* UNL     1       7.388   5.521  15.609  0.00  0.00    +0.000 OA
ATOM     16  H3* UNL     1       7.904   6.184  15.118  0.00  0.00    +0.000 HD
ENDBRANCH  12  15
BRANCH  13  17
ATOM     17  C5* UNL     1       7.836   6.076  19.270  0.00  0.00    +0.000 C 
BRANCH  17  18
ATOM     18  O5* UNL     1       7.915   5.273  20.447  0.00  0.00    +0.000 OA
ATOM     19  H5* UNL     1       8.221   4.386  20.181  0.00  0.00    +0.000 HD
ENDBRANCH  17  18
ENDBRANCH  13  17
ENDBRANCH   3  10
BRANCH   1  21
ATOM     20  C   UNL     1       1.526   7.764  20.936  0.00  0.00    +0.000 C 
ATOM     21  C   UNL     1       1.954   6.651  20.409  0.00  0.00    +0.000 C 
BRANCH  20  23
ATOM     22  C   UNL     1      -0.348   8.857  22.100  0.00  0.00    +0.000 C 
ATOM     23  C   UNL     1       1.048   9.020  21.525  0.00  0.00    +0.000 C 
ENDBRANCH  20  23
ENDBRANCH   1  21
TORSDOF 6
ENDMDL
MODEL 4
REMARK VINA RESULT:      -7.4      1.015      1.230
REMARK  Name = 
REMARK  7 active torsions:
REMARK  status: ('A' for Active; 'I' for Inactive)
REMARK    1  A    between atoms: C_1  and  C_2
REMARK    2  A    between atoms: C_2  and  C_3
REMARK    3  A    between atoms: C_4  and  C_5
REMARK    4  A    between atoms: N_7  and  C1*_8
REMARK    5  A    between atoms: C3*_10  and  O3*_11
REMARK    6  A    between atoms: C4*_12  and  C5*_13
REMARK    7  A    between atoms: C5*_13  and  O5*_14
REMARK                            x       y       z     vdW  Elec       q    Type
REMARK                         _______ _______ _______ _____ _____    ______ ____
ROOT
ATOM      1  C   UNL     1       6.184   4.474  14.793  0.00  0.00    +0.000 A 
ATOM      2  C   UNL     1       5.348   4.326  15.830  0.00  0.00    +0.000 A 
ATOM      3  N   UNL     1       5.447   5.061  16.995  0.00  0.00    +0.000 N 
ATOM      4  C   UNL     1       6.515   5.927  17.197  0.00  0.00    +0.000 A 
ATOM      5  O   UNL     1       6.623   6.672  18.168  0.00  0.00    +0.000 OA
ATOM      6  N   UNL     1       7.474   5.923  16.211  0.00  0.00    +0.000 N 
ATOM      7  C   UNL     1       7.337   5.387  14.948  0.00  0.00    +0.000 A 
ATOM      8  O   UNL     1       8.103   5.655  14.042  0.00  0.00    +0.000 OA
ATOM      9  H   UNL     1       8.246   6.557  16.343  0.00  0.00    +0.000 HD
ENDROOT
BRANCH   3  10
ATOM     10  C1* UNL     1       4.376   5.013  17.992  0.00  0.00    +0.000 C 
ATOM     11  C2* UNL     1       3.065   4.412  17.484  0.00  0.00    +0.000 C 
ATOM     12  C3* UNL     1       2.460   3.831  18.741  0.00  0.00    +0.000 C 
ATOM     13  C4* UNL     1       3.677   3.399  19.557  0.00  0.00    +0.000 C 
ATOM     14  O4* UNL     1       4.786   4.220  19.125  0.00  0.00    +0.000 OA
BRANCH  12  15
ATOM     15  O3* UNL     1       1.703   4.833  19.421  0.00  0.00    +0.000 OA
ATOM     16  H3* UNL     1       1.575   4.576  20.351  0.00  0.00    +0.000 HD
ENDBRANCH  12  15
BRANCH  13  17
ATOM     17  C5* UNL     1       4.045   1.931  19.322  0.00  0.00    +0.000 C 
BRANCH  17  18
ATOM     18  O5* UNL     1       5.205   1.558  20.065  0.00  0.00    +0.000 OA
ATOM     19  H5* UNL     1       5.949   1.486  19.438  0.00  0.00    +0.000 HD
ENDBRANCH  17  18
ENDBRANCH  13  17
ENDBRANCH   3  10
BRANCH   1  21
ATOM     20  C   UNL     1       5.583   3.014  12.452  0.00  0.00    +0.000 C 
ATOM     21  C   UNL     1       5.861   3.689  13.532  0.00  0.00    +0.000 C 
BRANCH  20  23
ATOM     22  C   UNL     1       6.242   1.100  11.049  0.00  0.00    +0.000 C 
ATOM     23  C   UNL     1       5.269   2.250  11.238  0.00  0.00    +0.000 C 
ENDBRANCH  20  23
ENDBRANCH   1  21
TORSDOF 6
ENDMDL
MODEL 5
REMARK VINA RESULT:      -7.4      1.589      1.845
REMARK  Name = 
REMARK  7 active torsions:
REMARK  status: ('A' for Active; 'I' for Inactive)
REMARK    1  A    between atoms: C_1  and  C_2
REMARK    2  A    between atoms: C_2  and  C_3
REMARK    3  A    between atoms: C_4  and  C_5
REMARK    4  A    between atoms: N_7  and  C1*_8
REMARK    5  A    between atoms: C3*_10  and  O3*_11
REMARK    6  A    between atoms: C4*_12  and  C5*_13
REMARK    7  A    between atoms: C5*_13  and  O5*_14
REMARK                            x       y       z     vdW  Elec       q    Type
REMARK                         _______ _______ _______ _____ _____    ______ ____
ROOT
ATOM      1  C   UNL     1       6.055   4.463  15.970  0.00  0.00    +0.000 A 
ATOM      2  C   UNL     1       5.362   3.944  16.994  0.00  0.00    +0.000 A 
ATOM      3  N   UNL     1       5.589   4.282  18.314  0.00  0.00    +0.000 N 
ATOM      4  C   UNL     1       6.653   5.107  18.659  0.00  0.00    +0.000 A 
ATOM      5  O   UNL     1       6.865   5.515  19.798  0.00  0.00    +0.000 OA
ATOM      6  N   UNL     1       7.478   5.474  17.622  0.00  0.00    +0.000 N 
ATOM      7  C   UNL     1       7.195   5.353  16.277  0.00  0.00    +0.000 A 
ATOM      8  O   UNL     1       7.833   5.939  15.424  0.00  0.00    +0.000 OA
ATOM      9  H   UNL     1       8.245   6.082  17.861  0.00  0.00    +0.000 HD
ENDROOT
BRANCH   3  10
ATOM     10  C1* UNL     1       4.655   3.855  19.357  0.00  0.00    +0.000 C 
ATOM     11  C2* UNL     1       3.460   4.788  19.556  0.00  0.00    +0.000 C 
ATOM     12  C3* UNL     1       2.391   3.848  20.064  0.00  0.00    +0.000 C 
ATOM     13  C4* UNL     1       2.710   2.530  19.360  0.00  0.00    +0.000 C 
ATOM     14  O4* UNL     1       4.121   2.553  19.043  0.00  0.00    +0.000 OA
BRANCH  12  15
ATOM     15  O3* UNL     1       2.492   3.721  21.483  0.00  0.00    +0.000 OA
ATOM     16  H3* UNL     1       2.656   4.594  21.881  0.00  0.00    +0.000 HD
ENDBRANCH  12  15
BRANCH  13  17
ATOM     17  C5* UNL     1       1.926   2.361  18.056  0.00  0.00    +0.000 C 
BRANCH  17  18
ATOM     18  O5* UNL     1       0.648   1.770  18.288  0.00  0.00    +0.000 OA
ATOM     19  H5* UNL     1       0.039   2.098  17.600  0.00  0.00    +0.000 HD
ENDBRANCH  17  18
ENDBRANCH  13  17
ENDBRANCH   3  10
BRANCH   1  21
ATOM     20  C   UNL     1       5.196   3.776  13.369  0.00  0.00    +0.000 C 
ATOM     21  C   UNL     1       5.593   4.093  14.570  0.00  0.00    +0.000 C 
BRANCH  20  23
ATOM     22  C   UNL     1       5.497   2.214  11.490  0.00  0.00    +0.000 C 
ATOM     23  C   UNL     1       4.744   3.421  12.019  0.00  0.00    +0.000 C 
ENDBRANCH  20  23
ENDBRANCH   1  21
TORSDOF 6
ENDMDL
MODEL 6
REMARK VINA RESULT:      -7.4      1.039      1.205
REMARK  Name = 
REMARK  7 active torsions:
REMARK  status: ('A' for Active; 'I' for Inactive)
REMARK    1  A    between atoms: C_1  and  C_2
REMARK    2  A    between atoms: C_2  and  C_3
REMARK    3  A    between atoms: C_4  and  C_5
REMARK    4  A    between atoms: N_7  and  C1*_8
REMARK    5  A    between atoms: C3*_10  and  O3*_11
REMARK    6  A    between atoms: C4*_12  and  C5*_13
REMARK    7  A    between atoms: C5*_13  and  O5*_14
REMARK                            x       y       z     vdW  Elec       q    Type
REMARK                         _______ _______ _______ _____ _____    ______ ____
ROOT
ATOM      1  C   UNL     1       6.041   4.499  15.588  0.00  0.00    +0.000 A 
ATOM      2  C   UNL     1       5.307   4.164  16.659  0.00  0.00    +0.000 A 
ATOM      3  N   UNL     1       5.572   4.621  17.935  0.00  0.00    +0.000 N 
ATOM      4  C   UNL     1       6.711   5.375  18.193  0.00  0.00    +0.000 A 
ATOM      5  O   UNL     1       6.966   5.884  19.282  0.00  0.00    +0.000 OA
ATOM      6  N   UNL     1       7.562   5.545  17.127  0.00  0.00    +0.000 N 
ATOM      7  C   UNL     1       7.263   5.305  15.802  0.00  0.00    +0.000 A 
ATOM      8  O   UNL     1       7.950   5.731  14.893  0.00  0.00    +0.000 OA
ATOM      9  H   UNL     1       8.384   6.100  17.302  0.00  0.00    +0.000 HD
ENDROOT
BRANCH   3  10
ATOM     10  C1* UNL     1       4.606   4.403  19.013  0.00  0.00    +0.000 C 
ATOM     11  C2* UNL     1       3.165   4.765  18.655  0.00  0.00    +0.000 C 
ATOM     12  C3* UNL     1       2.363   3.836  19.538  0.00  0.00    +0.000 C 
ATOM     13  C4* UNL     1       3.241   2.589  19.635  0.00  0.00    +0.000 C 
ATOM     14  O4* UNL     1       4.603   3.014  19.403  0.00  0.00    +0.000 OA
BRANCH  12  15
ATOM     15  O3* UNL     1       2.166   4.438  20.818  0.00  0.00    +0.000 OA
ATOM     16  H3* UNL     1       2.994   4.850  21.120  0.00  0.00    +0.000 HD
ENDBRANCH  12  15
BRANCH  13  17
ATOM     17  C5* UNL     1       2.878   1.539  18.581  0.00  0.00    +0.000 C 
BRANCH  17  18
ATOM     18  O5* UNL     1       4.000   0.719  18.255  0.00  0.00    +0.000 OA
ATOM     19  H5* UNL     1       4.546   0.630  19.057  0.00  0.00    +0.000 HD
ENDBRANCH  17  18
ENDBRANCH  13  17
ENDBRANCH   3  10
BRANCH   1  21
ATOM     20  C   UNL     1       5.111   3.616  13.073  0.00  0.00    +0.000 C 
ATOM     21  C   UNL     1       5.540   4.024  14.234  0.00  0.00    +0.000 C 
BRANCH  20  23
ATOM     22  C   UNL     1       5.453   1.981  11.263  0.00  0.00    +0.000 C 
ATOM     23  C   UNL     1       4.633   3.158  11.763  0.00  0.00    +0.000 C 
ENDBRANCH  20  23
ENDBRANCH   1  21
TORSDOF 6
ENDMDL
MODEL 7
REMARK VINA RESULT:      -7.1      1.709      2.790
REMARK  Name = 
REMARK  7 active torsions:
REMARK  status: ('A' for Active; 'I' for Inactive)
REMARK    1  A    between atoms: C_1  and  C_2
REMARK    2  A    between atoms: C_2  and  C_3
REMARK    3  A    between atoms: C_4  and  C_5
REMARK    4  A    between atoms: N_7  and  C1*_8
REMARK    5  A    between atoms: C3*_10  and  O3*_11
REMARK    6  A    between atoms: C4*_12  and  C5*_13
REMARK    7  A    between atoms: C5*_13  and  O5*_14
REMARK                            x       y       z     vdW  Elec       q    Type
REMARK                         _______ _______ _______ _____ _____    ______ ____
ROOT
ATOM      1  C   UNL     1       5.691   4.364  15.978  0.00  0.00    +0.000 A 
ATOM      2  C   UNL     1       4.743   3.791  16.732  0.00  0.00    +0.000 A 
ATOM      3  N   UNL     1       4.513   4.130  18.051  0.00  0.00    +0.000 N 
ATOM      4  C   UNL     1       5.354   5.020  18.708  0.00  0.00    +0.000 A 
ATOM      5  O   UNL     1       5.164   5.430  19.851  0.00  0.00    +0.000 OA
ATOM      6  N   UNL     1       6.442   5.451  17.985  0.00  0.00    +0.000 N 
ATOM      7  C   UNL     1       6.613   5.324  16.623  0.00  0.00    +0.000 A 
ATOM      8  O   UNL     1       7.450   5.960  16.011  0.00  0.00    +0.000 OA
ATOM      9  H   UNL     1       7.050   6.105  18.450  0.00  0.00    +0.000 HD
ENDROOT
BRANCH   3  10
ATOM     10  C1* UNL     1       3.325   3.633  18.746  0.00  0.00    +0.000 C 
ATOM     11  C2* UNL     1       3.568   3.218  20.197  0.00  0.00    +0.000 C 
ATOM     12  C3* UNL     1       2.219   3.456  20.837  0.00  0.00    +0.000 C 
ATOM     13  C4* UNL     1       1.663   4.651  20.065  0.00  0.00    +0.000 C 
ATOM     14  O4* UNL     1       2.301   4.647  18.767  0.00  0.00    +0.000 OA
BRANCH  12  15
ATOM     15  O3* UNL     1       1.397   2.299  20.675  0.00  0.00    +0.000 OA
ATOM     16  H3* UNL     1       1.711   1.587  21.258  0.00  0.00    +0.000 HD
ENDBRANCH  12  15
BRANCH  13  17
ATOM     17  C5* UNL     1       1.975   5.984  20.752  0.00  0.00    +0.000 C 
BRANCH  17  18
ATOM     18  O5* UNL     1       2.589   6.904  19.850  0.00  0.00    +0.000 OA
ATOM     19  H5* UNL     1       2.285   7.800  20.086  0.00  0.00    +0.000 HD
ENDBRANCH  17  18
ENDBRANCH  13  17
ENDBRANCH   3  10
BRANCH   1  21
ATOM     20  C   UNL     1       5.759   3.648  13.247  0.00  0.00    +0.000 C 
ATOM     21  C   UNL     1       5.727   3.979  14.508  0.00  0.00    +0.000 C 
BRANCH  20  23
ATOM     22  C   UNL     1       4.396   3.140  11.260  0.00  0.00    +0.000 C 
ATOM     23  C   UNL     1       5.797   3.270  11.829  0.00  0.00    +0.000 C 
ENDBRANCH  20  23
ENDBRANCH   1  21
TORSDOF 6
ENDMDL
MODEL 8
REMARK VINA RESULT:      -7.0      2.075      3.058
REMARK  Name = 
REMARK  7 active torsions:
REMARK  status: ('A' for Active; 'I' for Inactive)
REMARK    1  A    between atoms: C_1  and  C_2
REMARK    2  A    between atoms: C_2  and  C_3
REMARK    3  A    between atoms: C_4  and  C_5
REMARK    4  A    between atoms: N_7  and  C1*_8
REMARK    5  A    between atoms: C3*_10  and  O3*_11
REMARK    6  A    between atoms: C4*_12  and  C5*_13
REMARK    7  A    between atoms: C5*_13  and  O5*_14
REMARK                            x       y       z     vdW  Elec       q    Type
REMARK                         _______ _______ _______ _____ _____    ______ ____
ROOT
ATOM      1  C   UNL     1       5.925   3.941  15.960  0.00  0.00    +0.000 A 
ATOM      2  C   UNL     1       4.693   3.538  16.302  0.00  0.00    +0.000 A 
ATOM      3  N   UNL     1       4.194   3.625  17.587  0.00  0.00    +0.000 N 
ATOM      4  C   UNL     1       5.009   4.036  18.635  0.00  0.00    +0.000 A 
ATOM      5  O   UNL     1       4.613   4.216  19.784  0.00  0.00    +0.000 OA
ATOM      6  N   UNL     1       6.327   4.256  18.308  0.00  0.00    +0.000 N 
ATOM      7  C   UNL     1       6.836   4.393  17.034  0.00  0.00    +0.000 A 
ATOM      8  O   UNL     1       7.940   4.857  16.822  0.00  0.00    +0.000 OA
ATOM      9  H   UNL     1       6.922   4.565  19.060  0.00  0.00    +0.000 HD
ENDROOT
BRANCH   3  10
ATOM     10  C1* UNL     1       2.774   3.380  17.846  0.00  0.00    +0.000 C 
ATOM     11  C2* UNL     1       2.495   2.179  18.750  0.00  0.00    +0.000 C 
ATOM     12  C3* UNL     1       1.191   2.562  19.412  0.00  0.00    +0.000 C 
ATOM     13  C4* UNL     1       1.280   4.083  19.523  0.00  0.00    +0.000 C 
ATOM     14  O4* UNL     1       2.181   4.529  18.484  0.00  0.00    +0.000 OA
BRANCH  12  15
ATOM     15  O3* UNL     1       0.095   2.161  18.588  0.00  0.00    +0.000 OA
ATOM     16  H3* UNL     1      -0.683   2.712  18.784  0.00  0.00    +0.000 HD
ENDBRANCH  12  15
BRANCH  13  17
ATOM     17  C5* UNL     1       1.842   4.536  20.874  0.00  0.00    +0.000 C 
BRANCH  17  18
ATOM     18  O5* UNL     1       2.448   5.825  20.782  0.00  0.00    +0.000 OA
ATOM     19  H5* UNL     1       2.089   6.265  19.989  0.00  0.00    +0.000 HD
ENDBRANCH  17  18
ENDBRANCH  13  17
ENDBRANCH   3  10
BRANCH   1  21
ATOM     20  C   UNL     1       6.574   3.876  13.213  0.00  0.00    +0.000 C 
ATOM     21  C   UNL     1       6.275   3.906  14.482  0.00  0.00    +0.000 C 
BRANCH  20  23
ATOM     22  C   UNL     1       7.042   2.421  11.282  0.00  0.00    +0.000 C 
ATOM     23  C   UNL     1       6.909   3.848  11.784  0.00  0.00    +0.000 C 
ENDBRANCH  20  23
ENDBRANCH   1  21
TORSDOF 6
ENDMDL
MODEL 9
REMARK VINA RESULT:      -7.0      1.933      2.707
REMARK  Name = 
REMARK  7 active torsions:
REMARK  status: ('A' for Active; 'I' for Inactive)
REMARK    1  A    between atoms: C_1  and  C_2
REMARK    2  A    between atoms: C_2  and  C_3
REMARK    3  A    between atoms: C_4  and  C_5
REMARK    4  A    between atoms: N_7  and  C1*_8
REMARK    5  A    between atoms: C3*_10  and  O3*_11
REMARK    6  A    between atoms: C4*_12  and  C5*_13
REMARK    7  A    between atoms: C5*_13  and  O5*_14
REMARK                            x       y       z     vdW  Elec       q    Type
REMARK                         _______ _______ _______ _____ _____    ______ ____
ROOT
ATOM      1  C   UNL     1       5.606   4.545  15.875  0.00  0.00    +0.000 A 
ATOM      2  C   UNL     1       4.491   4.005  16.388  0.00  0.00    +0.000 A 
ATOM      3  N   UNL     1       3.956   4.381  17.605  0.00  0.00    +0.000 N 
ATOM      4  C   UNL     1       4.631   5.275  18.428  0.00  0.00    +0.000 A 
ATOM      5  O   UNL     1       4.178   5.716  19.481  0.00  0.00    +0.000 OA
ATOM      6  N   UNL     1       5.870   5.670  17.982  0.00  0.00    +0.000 N 
ATOM      7  C   UNL     1       6.363   5.507  16.704  0.00  0.00    +0.000 A 
ATOM      8  O   UNL     1       7.337   6.115  16.301  0.00  0.00    +0.000 OA
ATOM      9  H   UNL     1       6.361   6.327  18.566  0.00  0.00    +0.000 HD
ENDROOT
BRANCH   3  10
ATOM     10  C1* UNL     1       2.625   3.919  18.001  0.00  0.00    +0.000 C 
ATOM     11  C2* UNL     1       2.469   2.398  18.042  0.00  0.00    +0.000 C 
ATOM     12  C3* UNL     1       1.399   2.206  19.093  0.00  0.00    +0.000 C 
ATOM     13  C4* UNL     1       1.641   3.360  20.064  0.00  0.00    +0.000 C 
ATOM     14  O4* UNL     1       2.301   4.408  19.318  0.00  0.00    +0.000 OA
BRANCH  12  15
ATOM     15  O3* UNL     1       0.108   2.293  18.488  0.00  0.00    +0.000 OA
ATOM     16  H3* UNL     1      -0.225   3.205  18.551  0.00  0.00    +0.000 HD
ENDBRANCH  12  15
BRANCH  13  17
ATOM     17  C5* UNL     1       2.546   2.957  21.232  0.00  0.00    +0.000 C 
BRANCH  17  18
ATOM     18  O5* UNL     1       1.785   2.485  22.344  0.00  0.00    +0.000 OA
ATOM     19  H5* UNL     1       2.097   2.955  23.139  0.00  0.00    +0.000 HD
ENDBRANCH  17  18
ENDBRANCH  13  17
ENDBRANCH   3  10
BRANCH   1  21
ATOM     20  C   UNL     1       6.316   3.759  13.257  0.00  0.00    +0.000 C 
ATOM     21  C   UNL     1       5.989   4.122  14.466  0.00  0.00    +0.000 C 
BRANCH  20  23
ATOM     22  C   UNL     1       5.901   2.120  11.467  0.00  0.00    +0.000 C 
ATOM     23  C   UNL     1       6.679   3.351  11.895  0.00  0.00    +0.000 C 
ENDBRANCH  20  23
ENDBRANCH   1  21
TORSDOF 6
ENDMDL
