MODEL 1
REMARK VINA RESULT:      -8.9      0.000      0.000
REMARK  Name = 
REMARK  5 active torsions:
REMARK  status: ('A' for Active; 'I' for Inactive)
REMARK    1  A    between atoms: C_1  and  C_17
REMARK    2  A    between atoms: C_2  and  C_3
REMARK    3  A    between atoms: N_6  and  C_7
REMARK    4  A    between atoms: C_7  and  C_8
REMARK    5  A    between atoms: C_8  and  C_9
REMARK                            x       y       z     vdW  Elec       q    Type
REMARK                         _______ _______ _______ _____ _____    ______ ____
ROOT
ATOM      1  C   UNL     1       7.617   7.093  18.106  0.00  0.00    +0.000 A 
ATOM      2  C   UNL     1       6.600   7.326  17.184  0.00  0.00    +0.000 A 
ATOM      3  C   UNL     1       5.664   6.334  16.923  0.00  0.00    +0.000 A 
ATOM      4  N   UNL     1       5.729   5.130  17.541  0.00  0.00    +0.000 N 
ATOM      5  C   UNL     1       6.769   4.854  18.365  0.00  0.00    +0.000 A 
ATOM      6  C   UNL     1       7.715   5.823  18.671  0.00  0.00    +0.000 A 
ENDROOT
BRANCH   1   8
ATOM      7  C   UNL     1       8.450   9.425  18.237  0.00  0.00    +0.000 C 
ATOM      8  C   UNL     1       8.587   8.117  18.510  0.00  0.00    +0.000 C 
BRANCH   7   9
ATOM      9  C   UNL     1       9.341  10.478  18.747  0.00  0.00    +0.000 A 
ATOM     10  C   UNL     1       9.562  10.697  20.112  0.00  0.00    +0.000 A 
ATOM     11  C   UNL     1      10.408  11.725  20.538  0.00  0.00    +0.000 A 
ATOM     12  C   UNL     1      11.055  12.530  19.604  0.00  0.00    +0.000 A 
ATOM     13  C   UNL     1      10.866  12.304  18.243  0.00  0.00    +0.000 A 
ATOM     14  C   UNL     1      10.017  11.282  17.817  0.00  0.00    +0.000 A 
ENDBRANCH   7   9
ENDBRANCH   1   8
BRANCH   4  15
ATOM     15  C   UNL     1       4.656   4.131  17.252  0.00  0.00    +0.000 C 
BRANCH  15  16
ATOM     16  C   UNL     1       3.249   4.722  17.305  0.00  0.00    +0.000 C 
BRANCH  16  17
ATOM     17  C   UNL     1       2.518   4.285  18.546  0.00  0.00    +0.000 A 
ATOM     18  C   UNL     1       1.561   3.262  18.479  0.00  0.00    +0.000 A 
ATOM     19  C   UNL     1       0.875   2.865  19.626  0.00  0.00    +0.000 A 
ATOM     20  C   UNL     1       1.136   3.487  20.845  0.00  0.00    +0.000 A 
ATOM     21  C   UNL     1       2.085   4.504  20.920  0.00  0.00    +0.000 A 
ATOM     22  C   UNL     1       2.775   4.904  19.775  0.00  0.00    +0.000 A 
ENDBRANCH  16  17
ENDBRANCH  15  16
ENDBRANCH   4  15
TORSDOF 5
ENDMDL
MODEL 2
REMARK VINA RESULT:      -8.6      0.852      1.478
REMARK  Name = 
REMARK  5 active torsions:
REMARK  status: ('A' for Active; 'I' for Inactive)
REMARK    1  A    between atoms: C_1  and  C_17
REMARK    2  A    between atoms: C_2  and  C_3
REMARK    3  A    between atoms: N_6  and  C_7
REMARK    4  A    between atoms: C_7  and  C_8
REMARK    5  A    between atoms: C_8  and  C_9
REMARK                            x       y       z     vdW  Elec       q    Type
REMARK                         _______ _______ _______ _____ _____    ______ ____
ROOT
ATOM      1  C   UNL     1       7.566   7.599  17.854  0.00  0.00    +0.000 A 
ATOM      2  C   UNL     1       6.401   7.444  17.107  0.00  0.00    +0.000 A 
ATOM      3  C   UNL     1       5.671   6.266  17.204  0.00  0.00    +0.000 A 
ATOM      4  N   UNL     1       6.079   5.253  18.006  0.00  0.00    +0.000 N 
ATOM      5  C   UNL     1       7.260   5.351  18.662  0.00  0.00    +0.000 A 
ATOM      6  C   UNL     1       8.011   6.518  18.611  0.00  0.00    +0.000 A 
ENDROOT
BRANCH   1   8
ATOM      7  C   UNL     1       8.743   9.449  19.014  0.00  0.00    +0.000 C 
ATOM      8  C   UNL     1       8.342   8.844  17.883  0.00  0.00    +0.000 C 
BRANCH   7   9
ATOM      9  C   UNL     1       9.632  10.620  19.059  0.00  0.00    +0.000 A 
ATOM     10  C   UNL     1      10.073  11.288  17.911  0.00  0.00    +0.000 A 
ATOM     11  C   UNL     1      10.931  12.387  18.016  0.00  0.00    +0.000 A 
ATOM     12  C   UNL     1      11.341  12.837  19.269  0.00  0.00    +0.000 A 
ATOM     13  C   UNL     1      10.887  12.197  20.419  0.00  0.00    +0.000 A 
ATOM     14  C   UNL     1      10.034  11.097  20.314  0.00  0.00    +0.000 A 
ENDBRANCH   7   9
ENDBRANCH   1   8
BRANCH   4  15
ATOM     15  C   UNL     1       5.214   4.039  18.102  0.00  0.00    +0.000 C 
BRANCH  15  16
ATOM     16  C   UNL     1       3.731   4.332  17.881  0.00  0.00    +0.000 C 
BRANCH  16  17
ATOM     17  C   UNL     1       2.902   3.872  19.050  0.00  0.00    +0.000 A 
ATOM     18  C   UNL     1       3.494   3.144  20.092  0.00  0.00    +0.000 A 
ATOM     19  C   UNL     1       2.724   2.706  21.169  0.00  0.00    +0.000 A 
ATOM     20  C   UNL     1       1.361   2.989  21.213  0.00  0.00    +0.000 A 
ATOM     21  C   UNL     1       0.765   3.711  20.181  0.00  0.00    +0.000 A 
ATOM     22  C   UNL     1       1.531   4.152  19.102  0.00  0.00    +0.000 A 
ENDBRANCH  16  17
ENDBRANCH  15  16
ENDBRANCH   4  15
TORSDOF 5
ENDMDL
MODEL 3
REMARK VINA RESULT:      -8.6      0.515      1.151
REMARK  Name = 
REMARK  5 active torsions:
REMARK  status: ('A' for Active; 'I' for Inactive)
REMARK    1  A    between atoms: C_1  and  C_17
REMARK    2  A    between atoms: C_2  and  C_3
REMARK    3  A    between atoms: N_6  and  C_7
REMARK    4  A    between atoms: C_7  and  C_8
REMARK    5  A    between atoms: C_8  and  C_9
REMARK                            x       y       z     vdW  Elec       q    Type
REMARK                         _______ _______ _______ _____ _____    ______ ____
ROOT
ATOM      1  C   UNL     1       7.625   7.213  18.092  0.00  0.00    +0.000 A 
ATOM      2  C   UNL     1       6.632   7.314  17.122  0.00  0.00    +0.000 A 
ATOM      3  C   UNL     1       5.775   6.244  16.895  0.00  0.00    +0.000 A 
ATOM      4  N   UNL     1       5.896   5.090  17.596  0.00  0.00    +0.000 N 
ATOM      5  C   UNL     1       6.918   4.942  18.473  0.00  0.00    +0.000 A 
ATOM      6  C   UNL     1       7.784   5.993  18.745  0.00  0.00    +0.000 A 
ENDROOT
BRANCH   1   8
ATOM      7  C   UNL     1       8.322   9.592  18.049  0.00  0.00    +0.000 C 
ATOM      8  C   UNL     1       8.507   8.327  18.459  0.00  0.00    +0.000 C 
BRANCH   7   9
ATOM      9  C   UNL     1       9.117  10.740  18.514  0.00  0.00    +0.000 A 
ATOM     10  C   UNL     1      10.014  10.664  19.585  0.00  0.00    +0.000 A 
ATOM     11  C   UNL     1      10.731  11.793  19.992  0.00  0.00    +0.000 A 
ATOM     12  C   UNL     1      10.570  13.003  19.320  0.00  0.00    +0.000 A 
ATOM     13  C   UNL     1       9.701  13.084  18.236  0.00  0.00    +0.000 A 
ATOM     14  C   UNL     1       8.982  11.958  17.832  0.00  0.00    +0.000 A 
ENDBRANCH   7   9
ENDBRANCH   1   8
BRANCH   4  15
ATOM     15  C   UNL     1       4.905   4.003  17.339  0.00  0.00    +0.000 C 
BRANCH  15  16
ATOM     16  C   UNL     1       3.473   4.512  17.185  0.00  0.00    +0.000 C 
BRANCH  16  17
ATOM     17  C   UNL     1       2.659   4.237  18.420  0.00  0.00    +0.000 A 
ATOM     18  C   UNL     1       2.924   4.931  19.610  0.00  0.00    +0.000 A 
ATOM     19  C   UNL     1       2.179   4.668  20.758  0.00  0.00    +0.000 A 
ATOM     20  C   UNL     1       1.168   3.709  20.730  0.00  0.00    +0.000 A 
ATOM     21  C   UNL     1       0.900   3.014  19.553  0.00  0.00    +0.000 A 
ATOM     22  C   UNL     1       1.642   3.275  18.401  0.00  0.00    +0.000 A 
ENDBRANCH  16  17
ENDBRANCH  15  16
ENDBRANCH   4  15
TORSDOF 5
ENDMDL
MODEL 4
REMARK VINA RESULT:      -8.6      0.880      1.116
REMARK  Name = 
REMARK  5 active torsions:
REMARK  status: ('A' for Active; 'I' for Inactive)
REMARK    1  A    between atoms: C_1  and  C_17
REMARK    2  A    between atoms: C_2  and  C_3
REMARK    3  A    between atoms: N_6  and  C_7
REMARK    4  A    between atoms: C_7  and  C_8
REMARK    5  A    between atoms: C_8  and  C_9
REMARK                            x       y       z     vdW  Elec       q    Type
REMARK                         _______ _______ _______ _____ _____    ______ ____
ROOT
ATOM      1  C   UNL     1       7.320   6.963  17.953  0.00  0.00    +0.000 A 
ATOM      2  C   UNL     1       6.192   7.322  17.219  0.00  0.00    +0.000 A 
ATOM      3  C   UNL     1       5.253   6.357  16.878  0.00  0.00    +0.000 A 
ATOM      4  N   UNL     1       5.420   5.061  17.237  0.00  0.00    +0.000 N 
ATOM      5  C   UNL     1       6.559   4.680  17.865  0.00  0.00    +0.000 A 
ATOM      6  C   UNL     1       7.513   5.615  18.243  0.00  0.00    +0.000 A 
ENDROOT
BRANCH   1   8
ATOM      7  C   UNL     1       8.318   9.230  18.080  0.00  0.00    +0.000 C 
ATOM      8  C   UNL     1       8.309   7.935  18.434  0.00  0.00    +0.000 C 
BRANCH   7   9
ATOM      9  C   UNL     1       9.218  10.242  18.655  0.00  0.00    +0.000 A 
ATOM     10  C   UNL     1       9.319  10.481  20.030  0.00  0.00    +0.000 A 
ATOM     11  C   UNL     1      10.181  11.468  20.517  0.00  0.00    +0.000 A 
ATOM     12  C   UNL     1      10.961  12.212  19.635  0.00  0.00    +0.000 A 
ATOM     13  C   UNL     1      10.889  11.964  18.267  0.00  0.00    +0.000 A 
ATOM     14  C   UNL     1      10.026  10.982  17.780  0.00  0.00    +0.000 A 
ENDBRANCH   7   9
ENDBRANCH   1   8
BRANCH   4  15
ATOM     15  C   UNL     1       4.343   4.088  16.885  0.00  0.00    +0.000 C 
BRANCH  15  16
ATOM     16  C   UNL     1       4.275   2.890  17.830  0.00  0.00    +0.000 C 
BRANCH  16  17
ATOM     17  C   UNL     1       3.276   3.118  18.932  0.00  0.00    +0.000 A 
ATOM     18  C   UNL     1       3.517   2.615  20.218  0.00  0.00    +0.000 A 
ATOM     19  C   UNL     1       2.586   2.815  21.237  0.00  0.00    +0.000 A 
ATOM     20  C   UNL     1       1.409   3.514  20.979  0.00  0.00    +0.000 A 
ATOM     21  C   UNL     1       1.161   4.016  19.703  0.00  0.00    +0.000 A 
ATOM     22  C   UNL     1       2.090   3.819  18.681  0.00  0.00    +0.000 A 
ENDBRANCH  16  17
ENDBRANCH  15  16
ENDBRANCH   4  15
TORSDOF 5
ENDMDL
MODEL 5
REMARK VINA RESULT:      -8.6      0.230      1.035
REMARK  Name = 
REMARK  5 active torsions:
REMARK  status: ('A' for Active; 'I' for Inactive)
REMARK    1  A    between atoms: C_1  and  C_17
REMARK    2  A    between atoms: C_2  and  C_3
REMARK    3  A    between atoms: N_6  and  C_7
REMARK    4  A    between atoms: C_7  and  C_8
REMARK    5  A    between atoms: C_8  and  C_9
REMARK                            x       y       z     vdW  Elec       q    Type
REMARK                         _______ _______ _______ _____ _____    ______ ____
ROOT
ATOM      1  C   UNL     1       7.617   7.065  18.259  0.00  0.00    +0.000 A 
ATOM      2  C   UNL     1       7.623   5.814  18.870  0.00  0.00    +0.000 A 
ATOM      3  C   UNL     1       6.696   4.853  18.486  0.00  0.00    +0.000 A 
ATOM      4  N   UNL     1       5.771   5.115  17.531  0.00  0.00    +0.000 N 
ATOM      5  C   UNL     1       5.689   6.359  16.999  0.00  0.00    +0.000 A 
ATOM      6  C   UNL     1       6.609   7.343  17.338  0.00  0.00    +0.000 A 
ENDROOT
BRANCH   1   8
ATOM      7  C   UNL     1       8.406   9.415  18.353  0.00  0.00    +0.000 C 
ATOM      8  C   UNL     1       8.618   8.101  18.537  0.00  0.00    +0.000 C 
BRANCH   7   9
ATOM      9  C   UNL     1       9.348  10.472  18.751  0.00  0.00    +0.000 A 
ATOM     10  C   UNL     1       9.586  10.819  20.086  0.00  0.00    +0.000 A 
ATOM     11  C   UNL     1      10.482  11.845  20.403  0.00  0.00    +0.000 A 
ATOM     12  C   UNL     1      11.159  12.519  19.390  0.00  0.00    +0.000 A 
ATOM     13  C   UNL     1      10.951  12.164  18.060  0.00  0.00    +0.000 A 
ATOM     14  C   UNL     1      10.054  11.144  17.743  0.00  0.00    +0.000 A 
ENDBRANCH   7   9
ENDBRANCH   1   8
BRANCH   4  15
ATOM     15  C   UNL     1       4.842   4.016  17.130  0.00  0.00    +0.000 C 
BRANCH  15  16
ATOM     16  C   UNL     1       3.389   4.467  17.001  0.00  0.00    +0.000 C 
BRANCH  16  17
ATOM     17  C   UNL     1       2.620   4.203  18.267  0.00  0.00    +0.000 A 
ATOM     18  C   UNL     1       1.636   3.205  18.301  0.00  0.00    +0.000 A 
ATOM     19  C   UNL     1       0.914   2.968  19.470  0.00  0.00    +0.000 A 
ATOM     20  C   UNL     1       1.165   3.727  20.611  0.00  0.00    +0.000 A 
ATOM     21  C   UNL     1       2.140   4.723  20.585  0.00  0.00    +0.000 A 
ATOM     22  C   UNL     1       2.866   4.962  19.418  0.00  0.00    +0.000 A 
ENDBRANCH  16  17
ENDBRANCH  15  16
ENDBRANCH   4  15
TORSDOF 5
ENDMDL
MODEL 6
REMARK VINA RESULT:      -8.5      0.490      1.020
REMARK  Name = 
REMARK  5 active torsions:
REMARK  status: ('A' for Active; 'I' for Inactive)
REMARK    1  A    between atoms: C_1  and  C_17
REMARK    2  A    between atoms: C_2  and  C_3
REMARK    3  A    between atoms: N_6  and  C_7
REMARK    4  A    between atoms: C_7  and  C_8
REMARK    5  A    between atoms: C_8  and  C_9
REMARK                            x       y       z     vdW  Elec       q    Type
REMARK                         _______ _______ _______ _____ _____    ______ ____
ROOT
ATOM      1  C   UNL     1       7.520   7.326  18.091  0.00  0.00    +0.000 A 
ATOM      2  C   UNL     1       6.509   7.451  17.142  0.00  0.00    +0.000 A 
ATOM      3  C   UNL     1       5.649   6.387  16.904  0.00  0.00    +0.000 A 
ATOM      4  N   UNL     1       5.783   5.216  17.572  0.00  0.00    +0.000 N 
ATOM      5  C   UNL     1       6.821   5.045  18.426  0.00  0.00    +0.000 A 
ATOM      6  C   UNL     1       7.692   6.089  18.709  0.00  0.00    +0.000 A 
ENDROOT
BRANCH   1   8
ATOM      7  C   UNL     1       8.332   9.664  17.947  0.00  0.00    +0.000 C 
ATOM      8  C   UNL     1       8.409   8.430  18.471  0.00  0.00    +0.000 C 
BRANCH   7   9
ATOM      9  C   UNL     1       9.125  10.814  18.410  0.00  0.00    +0.000 A 
ATOM     10  C   UNL     1       9.072  12.073  17.801  0.00  0.00    +0.000 A 
ATOM     11  C   UNL     1       9.861  13.124  18.277  0.00  0.00    +0.000 A 
ATOM     12  C   UNL     1      10.696  12.931  19.375  0.00  0.00    +0.000 A 
ATOM     13  C   UNL     1      10.736  11.691  20.006  0.00  0.00    +0.000 A 
ATOM     14  C   UNL     1       9.952  10.640  19.529  0.00  0.00    +0.000 A 
ENDBRANCH   7   9
ENDBRANCH   1   8
BRANCH   4  15
ATOM     15  C   UNL     1       4.787   4.135  17.304  0.00  0.00    +0.000 C 
BRANCH  15  16
ATOM     16  C   UNL     1       3.346   4.637  17.255  0.00  0.00    +0.000 C 
BRANCH  16  17
ATOM     17  C   UNL     1       2.590   4.253  18.498  0.00  0.00    +0.000 A 
ATOM     18  C   UNL     1       1.613   3.249  18.449  0.00  0.00    +0.000 A 
ATOM     19  C   UNL     1       0.903   2.901  19.598  0.00  0.00    +0.000 A 
ATOM     20  C   UNL     1       1.160   3.554  20.801  0.00  0.00    +0.000 A 
ATOM     21  C   UNL     1       2.128   4.554  20.858  0.00  0.00    +0.000 A 
ATOM     22  C   UNL     1       2.842   4.905  19.712  0.00  0.00    +0.000 A 
ENDBRANCH  16  17
ENDBRANCH  15  16
ENDBRANCH   4  15
TORSDOF 5
ENDMDL
MODEL 7
REMARK VINA RESULT:      -8.5      0.602      1.474
REMARK  Name = 
REMARK  5 active torsions:
REMARK  status: ('A' for Active; 'I' for Inactive)
REMARK    1  A    between atoms: C_1  and  C_17
REMARK    2  A    between atoms: C_2  and  C_3
REMARK    3  A    between atoms: N_6  and  C_7
REMARK    4  A    between atoms: C_7  and  C_8
REMARK    5  A    between atoms: C_8  and  C_9
REMARK                            x       y       z     vdW  Elec       q    Type
REMARK                         _______ _______ _______ _____ _____    ______ ____
ROOT
ATOM      1  C   UNL     1       7.599   7.220  18.154  0.00  0.00    +0.000 A 
ATOM      2  C   UNL     1       7.727   6.002  18.818  0.00  0.00    +0.000 A 
ATOM      3  C   UNL     1       6.864   4.956  18.514  0.00  0.00    +0.000 A 
ATOM      4  N   UNL     1       5.886   5.102  17.587  0.00  0.00    +0.000 N 
ATOM      5  C   UNL     1       5.688   6.310  17.006  0.00  0.00    +0.000 A 
ATOM      6  C   UNL     1       6.539   7.376  17.265  0.00  0.00    +0.000 A 
ENDROOT
BRANCH   1   8
ATOM      7  C   UNL     1       8.214   9.621  18.089  0.00  0.00    +0.000 C 
ATOM      8  C   UNL     1       8.526   8.341  18.347  0.00  0.00    +0.000 C 
BRANCH   7   9
ATOM      9  C   UNL     1       9.081  10.767  18.401  0.00  0.00    +0.000 A 
ATOM     10  C   UNL     1       9.024  11.981  17.706  0.00  0.00    +0.000 A 
ATOM     11  C   UNL     1       9.886  13.030  18.038  0.00  0.00    +0.000 A 
ATOM     12  C   UNL     1      10.800  12.881  19.078  0.00  0.00    +0.000 A 
ATOM     13  C   UNL     1      10.849  11.689  19.794  0.00  0.00    +0.000 A 
ATOM     14  C   UNL     1       9.991  10.640  19.460  0.00  0.00    +0.000 A 
ENDBRANCH   7   9
ENDBRANCH   1   8
BRANCH   4  15
ATOM     15  C   UNL     1       5.033   3.918  17.272  0.00  0.00    +0.000 C 
BRANCH  15  16
ATOM     16  C   UNL     1       3.588   4.283  16.937  0.00  0.00    +0.000 C 
BRANCH  16  17
ATOM     17  C   UNL     1       2.688   4.105  18.130  0.00  0.00    +0.000 A 
ATOM     18  C   UNL     1       1.794   3.026  18.185  0.00  0.00    +0.000 A 
ATOM     19  C   UNL     1       0.951   2.867  19.284  0.00  0.00    +0.000 A 
ATOM     20  C   UNL     1       0.991   3.784  20.332  0.00  0.00    +0.000 A 
ATOM     21  C   UNL     1       1.875   4.859  20.285  0.00  0.00    +0.000 A 
ATOM     22  C   UNL     1       2.722   5.022  19.188  0.00  0.00    +0.000 A 
ENDBRANCH  16  17
ENDBRANCH  15  16
ENDBRANCH   4  15
TORSDOF 5
ENDMDL
MODEL 8
REMARK VINA RESULT:      -8.5      0.727      1.753
REMARK  Name = 
REMARK  5 active torsions:
REMARK  status: ('A' for Active; 'I' for Inactive)
REMARK    1  A    between atoms: C_1  and  C_17
REMARK    2  A    between atoms: C_2  and  C_3
REMARK    3  A    between atoms: N_6  and  C_7
REMARK    4  A    between atoms: C_7  and  C_8
REMARK    5  A    between atoms: C_8  and  C_9
REMARK                            x       y       z     vdW  Elec       q    Type
REMARK                         _______ _______ _______ _____ _____    ______ ____
ROOT
ATOM      1  C   UNL     1       7.560   6.980  18.183  0.00  0.00    +0.000 A 
ATOM      2  C   UNL     1       7.600   5.695  18.718  0.00  0.00    +0.000 A 
ATOM      3  C   UNL     1       6.701   4.733  18.272  0.00  0.00    +0.000 A 
ATOM      4  N   UNL     1       5.772   5.026  17.331  0.00  0.00    +0.000 N 
ATOM      5  C   UNL     1       5.657   6.297  16.874  0.00  0.00    +0.000 A 
ATOM      6  C   UNL     1       6.547   7.284  17.276  0.00  0.00    +0.000 A 
ENDROOT
BRANCH   1   8
ATOM      7  C   UNL     1       8.378   9.321  18.210  0.00  0.00    +0.000 C 
ATOM      8  C   UNL     1       8.531   8.025  18.528  0.00  0.00    +0.000 C 
BRANCH   7   9
ATOM      9  C   UNL     1       9.273  10.397  18.663  0.00  0.00    +0.000 A 
ATOM     10  C   UNL     1      10.000  11.206  17.782  0.00  0.00    +0.000 A 
ATOM     11  C   UNL     1      10.848  12.204  18.272  0.00  0.00    +0.000 A 
ATOM     12  C   UNL     1      10.962  12.414  19.644  0.00  0.00    +0.000 A 
ATOM     13  C   UNL     1      10.222  11.634  20.529  0.00  0.00    +0.000 A 
ATOM     14  C   UNL     1       9.380  10.634  20.041  0.00  0.00    +0.000 A 
ENDBRANCH   7   9
ENDBRANCH   1   8
BRANCH   4  15
ATOM     15  C   UNL     1       4.876   3.928  16.859  0.00  0.00    +0.000 C 
BRANCH  15  16
ATOM     16  C   UNL     1       3.391   4.246  17.020  0.00  0.00    +0.000 C 
BRANCH  16  17
ATOM     17  C   UNL     1       2.973   4.191  18.464  0.00  0.00    +0.000 A 
ATOM     18  C   UNL     1       2.324   5.286  19.054  0.00  0.00    +0.000 A 
ATOM     19  C   UNL     1       1.948   5.241  20.396  0.00  0.00    +0.000 A 
ATOM     20  C   UNL     1       2.219   4.108  21.159  0.00  0.00    +0.000 A 
ATOM     21  C   UNL     1       2.864   3.016  20.581  0.00  0.00    +0.000 A 
ATOM     22  C   UNL     1       3.241   3.056  19.239  0.00  0.00    +0.000 A 
ENDBRANCH  16  17
ENDBRANCH  15  16
ENDBRANCH   4  15
TORSDOF 5
ENDMDL
MODEL 9
REMARK VINA RESULT:      -8.4      1.032      2.069
REMARK  Name = 
REMARK  5 active torsions:
REMARK  status: ('A' for Active; 'I' for Inactive)
REMARK    1  A    between atoms: C_1  and  C_17
REMARK    2  A    between atoms: C_2  and  C_3
REMARK    3  A    between atoms: N_6  and  C_7
REMARK    4  A    between atoms: C_7  and  C_8
REMARK    5  A    between atoms: C_8  and  C_9
REMARK                            x       y       z     vdW  Elec       q    Type
REMARK                         _______ _______ _______ _____ _____    ______ ____
ROOT
ATOM      1  C   UNL     1       7.722   7.846  17.909  0.00  0.00    +0.000 A 
ATOM      2  C   UNL     1       8.104   6.755  18.685  0.00  0.00    +0.000 A 
ATOM      3  C   UNL     1       7.478   5.528  18.507  0.00  0.00    +0.000 A 
ATOM      4  N   UNL     1       6.488   5.372  17.595  0.00  0.00    +0.000 N 
ATOM      5  C   UNL     1       6.039   6.447  16.903  0.00  0.00    +0.000 A 
ATOM      6  C   UNL     1       6.649   7.687  17.034  0.00  0.00    +0.000 A 
ENDROOT
BRANCH   1   8
ATOM      7  C   UNL     1       9.072   9.593  19.038  0.00  0.00    +0.000 C 
ATOM      8  C   UNL     1       8.394   9.149  17.967  0.00  0.00    +0.000 C 
BRANCH   7   9
ATOM      9  C   UNL     1       9.861  10.834  19.065  0.00  0.00    +0.000 A 
ATOM     10  C   UNL     1      10.331  11.466  17.908  0.00  0.00    +0.000 A 
ATOM     11  C   UNL     1      11.090  12.637  17.998  0.00  0.00    +0.000 A 
ATOM     12  C   UNL     1      11.371  13.194  19.243  0.00  0.00    +0.000 A 
ATOM     13  C   UNL     1      10.885  12.590  20.399  0.00  0.00    +0.000 A 
ATOM     14  C   UNL     1      10.131  11.419  20.311  0.00  0.00    +0.000 A 
ENDBRANCH   7   9
ENDBRANCH   1   8
BRANCH   4  15
ATOM     15  C   UNL     1       5.901   4.011  17.419  0.00  0.00    +0.000 C 
BRANCH  15  16
ATOM     16  C   UNL     1       4.633   4.003  16.567  0.00  0.00    +0.000 C 
BRANCH  16  17
ATOM     17  C   UNL     1       3.426   3.635  17.387  0.00  0.00    +0.000 A 
ATOM     18  C   UNL     1       2.514   4.623  17.785  0.00  0.00    +0.000 A 
ATOM     19  C   UNL     1       1.402   4.285  18.556  0.00  0.00    +0.000 A 
ATOM     20  C   UNL     1       1.194   2.962  18.937  0.00  0.00    +0.000 A 
ATOM     21  C   UNL     1       2.095   1.974  18.548  0.00  0.00    +0.000 A 
ATOM     22  C   UNL     1       3.209   2.307  17.775  0.00  0.00    +0.000 A 
ENDBRANCH  16  17
ENDBRANCH  15  16
ENDBRANCH   4  15
TORSDOF 5
ENDMDL
