MODEL 1
REMARK VINA RESULT:      -8.6      0.000      0.000
REMARK  Name = 
REMARK  8 active torsions:
REMARK  status: ('A' for Active; 'I' for Inactive)
REMARK    1  A    between atoms: C_2  and  O_3
REMARK    2  A    between atoms: C_2  and  C_4
REMARK    3  A    between atoms: C_6  and  S_7
REMARK    4  A    between atoms: S_7  and  N_10
REMARK    5  A    between atoms: N_10  and  C_11
REMARK    6  A    between atoms: C_14  and  O_15
REMARK    7  A    between atoms: O_15  and  C_16
REMARK    8  A    between atoms: C_31  and  O_32
REMARK                            x       y       z     vdW  Elec       q    Type
REMARK                         _______ _______ _______ _____ _____    ______ ____
ROOT
ATOM      1  S   UNL     1       3.723   2.915  18.104  0.00  0.00    +0.000 S 
ATOM      2  O   UNL     1       3.451   1.615  17.527  0.00  0.00    +0.000 OA
ATOM      3  O   UNL     1       4.086   3.036  19.495  0.00  0.00    +0.000 OA
ENDROOT
BRANCH   1   6
ATOM      4  C   UNL     1       5.848   4.042  14.864  0.00  0.00    +0.000 A 
ATOM      5  C   UNL     1       4.974   3.390  15.731  0.00  0.00    +0.000 A 
ATOM      6  C   UNL     1       4.999   3.675  17.104  0.00  0.00    +0.000 A 
ATOM      7  C   UNL     1       5.933   4.597  17.658  0.00  0.00    +0.000 A 
ATOM      8  C   UNL     1       6.028   4.910  19.039  0.00  0.00    +0.000 A 
ATOM      9  C   UNL     1       6.959   5.819  19.539  0.00  0.00    +0.000 A 
ATOM     10  C   UNL     1       7.825   6.458  18.673  0.00  0.00    +0.000 A 
ATOM     11  C   UNL     1       7.753   6.190  17.308  0.00  0.00    +0.000 A 
ATOM     12  C   UNL     1       6.832   5.256  16.771  0.00  0.00    +0.000 A 
ATOM     13  C   UNL     1       6.762   4.969  15.380  0.00  0.00    +0.000 A 
BRANCH   4  15
ATOM     14  O   UNL     1       4.739   3.779  12.777  0.00  0.00    +0.000 OA
ATOM     15  C   UNL     1       5.772   3.685  13.417  0.00  0.00    +0.000 C 
BRANCH  15  16
ATOM     16  O   UNL     1       6.946   3.314  12.867  0.00  0.00    +0.000 OA
ATOM     17  H   UNL     1       6.959   3.446  11.894  0.00  0.00    +0.000 HD
ENDBRANCH  15  16
ENDBRANCH   4  15
BRANCH  13  18
ATOM     18  O   UNL     1       7.584   5.608  14.479  0.00  0.00    +0.000 OA
ATOM     19  H   UNL     1       7.849   6.470  14.851  0.00  0.00    +0.000 HD
ENDBRANCH  13  18
ENDBRANCH   1   6
BRANCH   1  20
ATOM     20  N   UNL     1       2.356   3.869  17.784  0.00  0.00    +0.000 N 
ATOM     21  H   UNL     1       1.539   3.266  17.696  0.00  0.00    +0.000 HD
BRANCH  20  22
ATOM     22  C   UNL     1       2.183   5.034  18.579  0.00  0.00    +0.000 A 
ATOM     23  C   UNL     1       2.633   6.265  18.114  0.00  0.00    +0.000 A 
ATOM     24  C   UNL     1       2.499   7.397  18.922  0.00  0.00    +0.000 A 
ATOM     25  C   UNL     1       1.930   7.294  20.196  0.00  0.00    +0.000 A 
ATOM     26  C   UNL     1       1.530   6.043  20.674  0.00  0.00    +0.000 A 
ATOM     27  C   UNL     1       1.627   4.919  19.853  0.00  0.00    +0.000 A 
BRANCH  25  28
ATOM     28  O   UNL     1       1.878   8.458  20.929  0.00  0.00    +0.000 OA
BRANCH  28  29
ATOM     29  C   UNL     1       0.889   9.384  20.688  0.00  0.00    +0.000 A 
ATOM     30  C   UNL     1       0.370  10.031  21.814  0.00  0.00    +0.000 A 
ATOM     31  C   UNL     1      -0.626  11.000  21.671  0.00  0.00    +0.000 A 
ATOM     32  C   UNL     1      -1.101  11.320  20.399  0.00  0.00    +0.000 A 
ATOM     33 CL   UNL     1      -2.344  12.496  20.219  0.00  0.00    +0.000 Cl
ATOM     34  C   UNL     1      -0.568  10.700  19.271  0.00  0.00    +0.000 A 
ATOM     35  C   UNL     1       0.447   9.752  19.413  0.00  0.00    +0.000 A 
ENDBRANCH  28  29
ENDBRANCH  25  28
ENDBRANCH  20  22
ENDBRANCH   1  20
TORSDOF 8
ENDMDL
MODEL 2
REMARK VINA RESULT:      -8.3      0.318      1.363
REMARK  Name = 
REMARK  8 active torsions:
REMARK  status: ('A' for Active; 'I' for Inactive)
REMARK    1  A    between atoms: C_2  and  O_3
REMARK    2  A    between atoms: C_2  and  C_4
REMARK    3  A    between atoms: C_6  and  S_7
REMARK    4  A    between atoms: S_7  and  N_10
REMARK    5  A    between atoms: N_10  and  C_11
REMARK    6  A    between atoms: C_14  and  O_15
REMARK    7  A    between atoms: O_15  and  C_16
REMARK    8  A    between atoms: C_31  and  O_32
REMARK                            x       y       z     vdW  Elec       q    Type
REMARK                         _______ _______ _______ _____ _____    ______ ____
ROOT
ATOM      1  S   UNL     1       3.735   2.861  18.018  0.00  0.00    +0.000 S 
ATOM      2  O   UNL     1       3.427   1.602  17.373  0.00  0.00    +0.000 OA
ATOM      3  O   UNL     1       4.102   2.896  19.413  0.00  0.00    +0.000 OA
ENDROOT
BRANCH   1   6
ATOM      4  C   UNL     1       5.921   4.049  14.841  0.00  0.00    +0.000 A 
ATOM      5  C   UNL     1       5.030   3.381  15.679  0.00  0.00    +0.000 A 
ATOM      6  C   UNL     1       5.029   3.640  17.058  0.00  0.00    +0.000 A 
ATOM      7  C   UNL     1       5.952   4.551  17.647  0.00  0.00    +0.000 A 
ATOM      8  C   UNL     1       6.020   4.838  19.035  0.00  0.00    +0.000 A 
ATOM      9  C   UNL     1       6.942   5.737  19.570  0.00  0.00    +0.000 A 
ATOM     10  C   UNL     1       7.823   6.392  18.733  0.00  0.00    +0.000 A 
ATOM     11  C   UNL     1       7.778   6.151  17.362  0.00  0.00    +0.000 A 
ATOM     12  C   UNL     1       6.868   5.226  16.790  0.00  0.00    +0.000 A 
ATOM     13  C   UNL     1       6.824   4.966  15.393  0.00  0.00    +0.000 A 
BRANCH   4  15
ATOM     14  O   UNL     1       6.877   3.487  12.738  0.00  0.00    +0.000 OA
ATOM     15  C   UNL     1       5.872   3.721  13.387  0.00  0.00    +0.000 C 
BRANCH  15  16
ATOM     16  O   UNL     1       4.630   3.644  12.869  0.00  0.00    +0.000 OA
ATOM     17  H   UNL     1       4.633   3.330  11.938  0.00  0.00    +0.000 HD
ENDBRANCH  15  16
ENDBRANCH   4  15
BRANCH  13  18
ATOM     18  O   UNL     1       7.663   5.623  14.520  0.00  0.00    +0.000 OA
ATOM     19  H   UNL     1       7.394   6.558  14.469  0.00  0.00    +0.000 HD
ENDBRANCH  13  18
ENDBRANCH   1   6
BRANCH   1  20
ATOM     20  N   UNL     1       2.393   3.867  17.754  0.00  0.00    +0.000 N 
ATOM     21  H   UNL     1       1.548   3.297  17.723  0.00  0.00    +0.000 HD
BRANCH  20  22
ATOM     22  C   UNL     1       2.313   5.052  18.535  0.00  0.00    +0.000 A 
ATOM     23  C   UNL     1       1.753   5.007  19.808  0.00  0.00    +0.000 A 
ATOM     24  C   UNL     1       1.638   6.185  20.550  0.00  0.00    +0.000 A 
ATOM     25  C   UNL     1       2.067   7.405  20.014  0.00  0.00    +0.000 A 
ATOM     26  C   UNL     1       2.577   7.445  18.713  0.00  0.00    +0.000 A 
ATOM     27  C   UNL     1       2.730   6.265  17.986  0.00  0.00    +0.000 A 
BRANCH  25  28
ATOM     28  O   UNL     1       1.874   8.512  20.808  0.00  0.00    +0.000 OA
BRANCH  28  29
ATOM     29  C   UNL     1       0.877   9.413  20.510  0.00  0.00    +0.000 A 
ATOM     30  C   UNL     1       0.658   9.656  19.150  0.00  0.00    +0.000 A 
ATOM     31  C   UNL     1      -0.343  10.542  18.746  0.00  0.00    +0.000 A 
ATOM     32  C   UNL     1      -1.126  11.184  19.705  0.00  0.00    +0.000 A 
ATOM     33 CL   UNL     1      -2.345  12.293  19.214  0.00  0.00    +0.000 Cl
ATOM     34  C   UNL     1      -0.932  10.925  21.061  0.00  0.00    +0.000 A 
ATOM     35  C   UNL     1       0.051  10.018  21.462  0.00  0.00    +0.000 A 
ENDBRANCH  28  29
ENDBRANCH  25  28
ENDBRANCH  20  22
ENDBRANCH   1  20
TORSDOF 8
ENDMDL
MODEL 3
REMARK VINA RESULT:      -8.3      4.261      7.442
REMARK  Name = 
REMARK  8 active torsions:
REMARK  status: ('A' for Active; 'I' for Inactive)
REMARK    1  A    between atoms: C_2  and  O_3
REMARK    2  A    between atoms: C_2  and  C_4
REMARK    3  A    between atoms: C_6  and  S_7
REMARK    4  A    between atoms: S_7  and  N_10
REMARK    5  A    between atoms: N_10  and  C_11
REMARK    6  A    between atoms: C_14  and  O_15
REMARK    7  A    between atoms: O_15  and  C_16
REMARK    8  A    between atoms: C_31  and  O_32
REMARK                            x       y       z     vdW  Elec       q    Type
REMARK                         _______ _______ _______ _____ _____    ______ ____
ROOT
ATOM      1  S   UNL     1       5.227   5.410  16.132  0.00  0.00    +0.000 S 
ATOM      2  O   UNL     1       4.955   4.222  15.350  0.00  0.00    +0.000 OA
ATOM      3  O   UNL     1       5.032   6.721  15.561  0.00  0.00    +0.000 OA
ENDROOT
BRANCH   1   6
ATOM      4  C   UNL     1       3.770   3.958  19.604  0.00  0.00    +0.000 A 
ATOM      5  C   UNL     1       4.384   4.089  18.360  0.00  0.00    +0.000 A 
ATOM      6  C   UNL     1       4.260   5.282  17.633  0.00  0.00    +0.000 A 
ATOM      7  C   UNL     1       3.480   6.372  18.115  0.00  0.00    +0.000 A 
ATOM      8  C   UNL     1       3.294   7.594  17.419  0.00  0.00    +0.000 A 
ATOM      9  C   UNL     1       2.520   8.636  17.928  0.00  0.00    +0.000 A 
ATOM     10  C   UNL     1       1.911   8.498  19.160  0.00  0.00    +0.000 A 
ATOM     11  C   UNL     1       2.083   7.319  19.882  0.00  0.00    +0.000 A 
ATOM     12  C   UNL     1       2.846   6.234  19.383  0.00  0.00    +0.000 A 
ATOM     13  C   UNL     1       3.015   5.024  20.110  0.00  0.00    +0.000 A 
BRANCH   4  15
ATOM     14  O   UNL     1       3.026   2.132  20.932  0.00  0.00    +0.000 OA
ATOM     15  C   UNL     1       3.937   2.660  20.318  0.00  0.00    +0.000 C 
BRANCH  15  16
ATOM     16  O   UNL     1       5.153   2.094  20.180  0.00  0.00    +0.000 OA
ATOM     17  H   UNL     1       5.202   1.208  20.600  0.00  0.00    +0.000 HD
ENDBRANCH  15  16
ENDBRANCH   4  15
BRANCH  13  18
ATOM     18  O   UNL     1       2.453   4.858  21.356  0.00  0.00    +0.000 OA
ATOM     19  H   UNL     1       1.484   4.941  21.278  0.00  0.00    +0.000 HD
ENDBRANCH  13  18
ENDBRANCH   1   6
BRANCH   1  20
ATOM     20  N   UNL     1       6.826   5.257  16.682  0.00  0.00    +0.000 N 
ATOM     21  H   UNL     1       7.394   4.834  15.948  0.00  0.00    +0.000 HD
BRANCH  20  22
ATOM     22  C   UNL     1       7.394   6.386  17.331  0.00  0.00    +0.000 A 
ATOM     23  C   UNL     1       7.928   6.255  18.609  0.00  0.00    +0.000 A 
ATOM     24  C   UNL     1       8.444   7.381  19.257  0.00  0.00    +0.000 A 
ATOM     25  C   UNL     1       8.412   8.633  18.634  0.00  0.00    +0.000 A 
ATOM     26  C   UNL     1       7.825   8.762  17.372  0.00  0.00    +0.000 A 
ATOM     27  C   UNL     1       7.346   7.633  16.708  0.00  0.00    +0.000 A 
BRANCH  25  28
ATOM     28  O   UNL     1       8.910   9.685  19.370  0.00  0.00    +0.000 OA
BRANCH  28  29
ATOM     29  C   UNL     1       9.555  10.725  18.742  0.00  0.00    +0.000 A 
ATOM     30  C   UNL     1       8.734  11.739  18.238  0.00  0.00    +0.000 A 
ATOM     31  C   UNL     1       9.296  12.846  17.598  0.00  0.00    +0.000 A 
ATOM     32  C   UNL     1      10.681  12.938  17.465  0.00  0.00    +0.000 A 
ATOM     33 CL   UNL     1      11.378  14.288  16.658  0.00  0.00    +0.000 Cl
ATOM     34  C   UNL     1      11.507  11.945  17.990  0.00  0.00    +0.000 A 
ATOM     35  C   UNL     1      10.945  10.853  18.654  0.00  0.00    +0.000 A 
ENDBRANCH  28  29
ENDBRANCH  25  28
ENDBRANCH  20  22
ENDBRANCH   1  20
TORSDOF 8
ENDMDL
MODEL 4
REMARK VINA RESULT:      -8.2      4.234      7.276
REMARK  Name = 
REMARK  8 active torsions:
REMARK  status: ('A' for Active; 'I' for Inactive)
REMARK    1  A    between atoms: C_2  and  O_3
REMARK    2  A    between atoms: C_2  and  C_4
REMARK    3  A    between atoms: C_6  and  S_7
REMARK    4  A    between atoms: S_7  and  N_10
REMARK    5  A    between atoms: N_10  and  C_11
REMARK    6  A    between atoms: C_14  and  O_15
REMARK    7  A    between atoms: O_15  and  C_16
REMARK    8  A    between atoms: C_31  and  O_32
REMARK                            x       y       z     vdW  Elec       q    Type
REMARK                         _______ _______ _______ _____ _____    ______ ____
ROOT
ATOM      1  S   UNL     1       5.477   5.489  15.810  0.00  0.00    +0.000 S 
ATOM      2  O   UNL     1       5.331   4.362  14.913  0.00  0.00    +0.000 OA
ATOM      3  O   UNL     1       5.151   6.823  15.366  0.00  0.00    +0.000 OA
ENDROOT
BRANCH   1   6
ATOM      4  C   UNL     1       4.101   3.521  19.052  0.00  0.00    +0.000 A 
ATOM      5  C   UNL     1       4.704   3.845  17.839  0.00  0.00    +0.000 A 
ATOM      6  C   UNL     1       4.523   5.118  17.278  0.00  0.00    +0.000 A 
ATOM      7  C   UNL     1       3.697   6.097  17.901  0.00  0.00    +0.000 A 
ATOM      8  C   UNL     1       3.453   7.392  17.375  0.00  0.00    +0.000 A 
ATOM      9  C   UNL     1       2.635   8.320  18.017  0.00  0.00    +0.000 A 
ATOM     10  C   UNL     1       2.039   7.991  19.218  0.00  0.00    +0.000 A 
ATOM     11  C   UNL     1       2.266   6.735  19.776  0.00  0.00    +0.000 A 
ATOM     12  C   UNL     1       3.075   5.761  19.137  0.00  0.00    +0.000 A 
ATOM     13  C   UNL     1       3.301   4.474  19.695  0.00  0.00    +0.000 A 
BRANCH   4  15
ATOM     14  O   UNL     1       4.769   1.949  20.707  0.00  0.00    +0.000 OA
ATOM     15  C   UNL     1       4.329   2.148  19.587  0.00  0.00    +0.000 C 
BRANCH  15  16
ATOM     16  O   UNL     1       3.953   1.152  18.759  0.00  0.00    +0.000 OA
ATOM     17  H   UNL     1       4.582   1.031  18.014  0.00  0.00    +0.000 HD
ENDBRANCH  15  16
ENDBRANCH   4  15
BRANCH  13  18
ATOM     18  O   UNL     1       2.752   4.117  20.907  0.00  0.00    +0.000 OA
ATOM     19  H   UNL     1       3.278   4.520  21.622  0.00  0.00    +0.000 HD
ENDBRANCH  13  18
ENDBRANCH   1   6
BRANCH   1  20
ATOM     20  N   UNL     1       7.081   5.446  16.364  0.00  0.00    +0.000 N 
ATOM     21  H   UNL     1       7.699   5.215  15.586  0.00  0.00    +0.000 HD
BRANCH  20  22
ATOM     22  C   UNL     1       7.505   6.520  17.193  0.00  0.00    +0.000 A 
ATOM     23  C   UNL     1       7.495   7.822  16.701  0.00  0.00    +0.000 A 
ATOM     24  C   UNL     1       7.956   8.865  17.508  0.00  0.00    +0.000 A 
ATOM     25  C   UNL     1       8.439   8.605  18.795  0.00  0.00    +0.000 A 
ATOM     26  C   UNL     1       8.494   7.287  19.258  0.00  0.00    +0.000 A 
ATOM     27  C   UNL     1       7.998   6.249  18.469  0.00  0.00    +0.000 A 
BRANCH  25  28
ATOM     28  O   UNL     1       8.906   9.694  19.495  0.00  0.00    +0.000 OA
BRANCH  28  29
ATOM     29  C   UNL     1       9.417  10.781  18.823  0.00  0.00    +0.000 A 
ATOM     30  C   UNL     1      10.809  10.825  18.699  0.00  0.00    +0.000 A 
ATOM     31  C   UNL     1      11.422  11.880  18.019  0.00  0.00    +0.000 A 
ATOM     32  C   UNL     1      10.639  12.891  17.463  0.00  0.00    +0.000 A 
ATOM     33 CL   UNL     1      11.389  14.205  16.645  0.00  0.00    +0.000 Cl
ATOM     34  C   UNL     1       9.250  12.839  17.558  0.00  0.00    +0.000 A 
ATOM     35  C   UNL     1       8.637  11.769  18.214  0.00  0.00    +0.000 A 
ENDBRANCH  28  29
ENDBRANCH  25  28
ENDBRANCH  20  22
ENDBRANCH   1  20
TORSDOF 8
ENDMDL
MODEL 5
REMARK VINA RESULT:      -8.1      5.016     11.386
REMARK  Name = 
REMARK  8 active torsions:
REMARK  status: ('A' for Active; 'I' for Inactive)
REMARK    1  A    between atoms: C_2  and  O_3
REMARK    2  A    between atoms: C_2  and  C_4
REMARK    3  A    between atoms: C_6  and  S_7
REMARK    4  A    between atoms: S_7  and  N_10
REMARK    5  A    between atoms: N_10  and  C_11
REMARK    6  A    between atoms: C_14  and  O_15
REMARK    7  A    between atoms: O_15  and  C_16
REMARK    8  A    between atoms: C_31  and  O_32
REMARK                            x       y       z     vdW  Elec       q    Type
REMARK                         _______ _______ _______ _____ _____    ______ ____
ROOT
ATOM      1  S   UNL     1      -0.290  11.323  22.048  0.00  0.00    +0.000 S 
ATOM      2  O   UNL     1       0.859  12.094  21.620  0.00  0.00    +0.000 OA
ATOM      3  O   UNL     1      -0.217  10.501  23.231  0.00  0.00    +0.000 OA
ENDROOT
BRANCH   1   6
ATOM      4  C   UNL     1      -3.679  13.018  23.435  0.00  0.00    +0.000 A 
ATOM      5  C   UNL     1      -2.651  12.123  23.145  0.00  0.00    +0.000 A 
ATOM      6  C   UNL     1      -1.655  12.468  22.220  0.00  0.00    +0.000 A 
ATOM      7  C   UNL     1      -1.680  13.712  21.526  0.00  0.00    +0.000 A 
ATOM      8  C   UNL     1      -0.718  14.111  20.561  0.00  0.00    +0.000 A 
ATOM      9  C   UNL     1      -0.782  15.338  19.903  0.00  0.00    +0.000 A 
ATOM     10  C   UNL     1      -1.805  16.219  20.194  0.00  0.00    +0.000 A 
ATOM     11  C   UNL     1      -2.760  15.871  21.147  0.00  0.00    +0.000 A 
ATOM     12  C   UNL     1      -2.736  14.622  21.818  0.00  0.00    +0.000 A 
ATOM     13  C   UNL     1      -3.714  14.256  22.782  0.00  0.00    +0.000 A 
BRANCH   4  15
ATOM     14  O   UNL     1      -5.824  12.224  24.086  0.00  0.00    +0.000 OA
ATOM     15  C   UNL     1      -4.708  12.584  24.423  0.00  0.00    +0.000 C 
BRANCH  15  16
ATOM     16  O   UNL     1      -4.286  12.563  25.703  0.00  0.00    +0.000 OA
ATOM     17  H   UNL     1      -3.318  12.416  25.774  0.00  0.00    +0.000 HD
ENDBRANCH  15  16
ENDBRANCH   4  15
BRANCH  13  18
ATOM     18  O   UNL     1      -4.732  15.118  23.125  0.00  0.00    +0.000 OA
ATOM     19  H   UNL     1      -4.403  16.034  23.065  0.00  0.00    +0.000 HD
ENDBRANCH  13  18
ENDBRANCH   1   6
BRANCH   1  20
ATOM     20  N   UNL     1      -0.743  10.372  20.716  0.00  0.00    +0.000 N 
ATOM     21  H   UNL     1      -1.341  10.921  20.100  0.00  0.00    +0.000 HD
BRANCH  20  22
ATOM     22  C   UNL     1       0.286   9.626  20.078  0.00  0.00    +0.000 A 
ATOM     23  C   UNL     1       0.594   9.871  18.744  0.00  0.00    +0.000 A 
ATOM     24  C   UNL     1       1.575   9.102  18.113  0.00  0.00    +0.000 A 
ATOM     25  C   UNL     1       2.233   8.083  18.810  0.00  0.00    +0.000 A 
ATOM     26  C   UNL     1       1.877   7.812  20.134  0.00  0.00    +0.000 A 
ATOM     27  C   UNL     1       0.927   8.604  20.778  0.00  0.00    +0.000 A 
BRANCH  25  28
ATOM     28  O   UNL     1       3.155   7.358  18.089  0.00  0.00    +0.000 OA
BRANCH  28  29
ATOM     29  C   UNL     1       3.161   5.984  18.158  0.00  0.00    +0.000 A 
ATOM     30  C   UNL     1       4.326   5.403  18.669  0.00  0.00    +0.000 A 
ATOM     31  C   UNL     1       4.424   4.015  18.795  0.00  0.00    +0.000 A 
ATOM     32  C   UNL     1       3.352   3.210  18.409  0.00  0.00    +0.000 A 
ATOM     33 CL   UNL     1       3.475   1.499  18.540  0.00  0.00    +0.000 Cl
ATOM     34  C   UNL     1       2.178   3.783  17.926  0.00  0.00    +0.000 A 
ATOM     35  C   UNL     1       2.072   5.172  17.827  0.00  0.00    +0.000 A 
ENDBRANCH  28  29
ENDBRANCH  25  28
ENDBRANCH  20  22
ENDBRANCH   1  20
TORSDOF 8
ENDMDL
MODEL 6
REMARK VINA RESULT:      -8.0      0.824      1.208
REMARK  Name = 
REMARK  8 active torsions:
REMARK  status: ('A' for Active; 'I' for Inactive)
REMARK    1  A    between atoms: C_2  and  O_3
REMARK    2  A    between atoms: C_2  and  C_4
REMARK    3  A    between atoms: C_6  and  S_7
REMARK    4  A    between atoms: S_7  and  N_10
REMARK    5  A    between atoms: N_10  and  C_11
REMARK    6  A    between atoms: C_14  and  O_15
REMARK    7  A    between atoms: O_15  and  C_16
REMARK    8  A    between atoms: C_31  and  O_32
REMARK                            x       y       z     vdW  Elec       q    Type
REMARK                         _______ _______ _______ _____ _____    ______ ____
ROOT
ATOM      1  S   UNL     1       3.680   2.986  18.278  0.00  0.00    +0.000 S 
ATOM      2  O   UNL     1       3.436   1.656  17.760  0.00  0.00    +0.000 OA
ATOM      3  O   UNL     1       4.035   3.178  19.663  0.00  0.00    +0.000 OA
ENDROOT
BRANCH   1   6
ATOM      4  C   UNL     1       5.748   4.073  14.988  0.00  0.00    +0.000 A 
ATOM      5  C   UNL     1       4.884   3.437  15.877  0.00  0.00    +0.000 A 
ATOM      6  C   UNL     1       4.943   3.726  17.247  0.00  0.00    +0.000 A 
ATOM      7  C   UNL     1       5.900   4.638  17.777  0.00  0.00    +0.000 A 
ATOM      8  C   UNL     1       6.029   4.955  19.154  0.00  0.00    +0.000 A 
ATOM      9  C   UNL     1       6.982   5.854  19.630  0.00  0.00    +0.000 A 
ATOM     10  C   UNL     1       7.837   6.479  18.744  0.00  0.00    +0.000 A 
ATOM     11  C   UNL     1       7.732   6.207  17.382  0.00  0.00    +0.000 A 
ATOM     12  C   UNL     1       6.788   5.282  16.868  0.00  0.00    +0.000 A 
ATOM     13  C   UNL     1       6.684   4.991  15.481  0.00  0.00    +0.000 A 
BRANCH   4  15
ATOM     14  O   UNL     1       4.584   3.791  12.933  0.00  0.00    +0.000 OA
ATOM     15  C   UNL     1       5.636   3.713  13.545  0.00  0.00    +0.000 C 
BRANCH  15  16
ATOM     16  O   UNL     1       6.798   3.356  12.962  0.00  0.00    +0.000 OA
ATOM     17  H   UNL     1       7.529   3.976  13.178  0.00  0.00    +0.000 HD
ENDBRANCH  15  16
ENDBRANCH   4  15
BRANCH  13  18
ATOM     18  O   UNL     1       7.495   5.617  14.560  0.00  0.00    +0.000 OA
ATOM     19  H   UNL     1       7.611   5.027  13.792  0.00  0.00    +0.000 HD
ENDBRANCH  13  18
ENDBRANCH   1   6
BRANCH   1  20
ATOM     20  N   UNL     1       2.294   3.896  17.911  0.00  0.00    +0.000 N 
ATOM     21  H   UNL     1       1.467   3.314  18.040  0.00  0.00    +0.000 HD
BRANCH  20  22
ATOM     22  C   UNL     1       2.220   5.206  18.458  0.00  0.00    +0.000 A 
ATOM     23  C   UNL     1       2.606   6.300  17.689  0.00  0.00    +0.000 A 
ATOM     24  C   UNL     1       2.573   7.580  18.250  0.00  0.00    +0.000 A 
ATOM     25  C   UNL     1       2.170   7.760  19.578  0.00  0.00    +0.000 A 
ATOM     26  C   UNL     1       1.836   6.648  20.356  0.00  0.00    +0.000 A 
ATOM     27  C   UNL     1       1.831   5.375  19.786  0.00  0.00    +0.000 A 
BRANCH  25  28
ATOM     28  O   UNL     1       2.209   9.054  20.048  0.00  0.00    +0.000 OA
BRANCH  28  29
ATOM     29  C   UNL     1       1.220   9.515  20.887  0.00  0.00    +0.000 A 
ATOM     30  C   UNL     1       0.369  10.488  20.352  0.00  0.00    +0.000 A 
ATOM     31  C   UNL     1      -0.676  11.007  21.119  0.00  0.00    +0.000 A 
ATOM     32  C   UNL     1      -0.869  10.551  22.423  0.00  0.00    +0.000 A 
ATOM     33 CL   UNL     1      -2.140  11.203  23.381  0.00  0.00    +0.000 Cl
ATOM     34  C   UNL     1      -0.042   9.562  22.953  0.00  0.00    +0.000 A 
ATOM     35  C   UNL     1       0.985   9.024  22.174  0.00  0.00    +0.000 A 
ENDBRANCH  28  29
ENDBRANCH  25  28
ENDBRANCH  20  22
ENDBRANCH   1  20
TORSDOF 8
ENDMDL
MODEL 7
REMARK VINA RESULT:      -7.9      5.056     11.284
REMARK  Name = 
REMARK  8 active torsions:
REMARK  status: ('A' for Active; 'I' for Inactive)
REMARK    1  A    between atoms: C_2  and  O_3
REMARK    2  A    between atoms: C_2  and  C_4
REMARK    3  A    between atoms: C_6  and  S_7
REMARK    4  A    between atoms: S_7  and  N_10
REMARK    5  A    between atoms: N_10  and  C_11
REMARK    6  A    between atoms: C_14  and  O_15
REMARK    7  A    between atoms: O_15  and  C_16
REMARK    8  A    between atoms: C_31  and  O_32
REMARK                            x       y       z     vdW  Elec       q    Type
REMARK                         _______ _______ _______ _____ _____    ______ ____
ROOT
ATOM      1  S   UNL     1      -2.103  11.179  18.093  0.00  0.00    +0.000 S 
ATOM      2  O   UNL     1      -2.327   9.751  18.168  0.00  0.00    +0.000 OA
ATOM      3  O   UNL     1      -2.279  11.881  16.845  0.00  0.00    +0.000 OA
ENDROOT
BRANCH   1   6
ATOM      4  C   UNL     1      -3.216  13.321  21.327  0.00  0.00    +0.000 A 
ATOM      5  C   UNL     1      -2.486  12.594  20.389  0.00  0.00    +0.000 A 
ATOM      6  C   UNL     1      -3.142  11.939  19.337  0.00  0.00    +0.000 A 
ATOM      7  C   UNL     1      -4.561  11.960  19.215  0.00  0.00    +0.000 A 
ATOM      8  C   UNL     1      -5.288  11.298  18.191  0.00  0.00    +0.000 A 
ATOM      9  C   UNL     1      -6.678  11.344  18.109  0.00  0.00    +0.000 A 
ATOM     10  C   UNL     1      -7.395  12.064  19.044  0.00  0.00    +0.000 A 
ATOM     11  C   UNL     1      -6.719  12.741  20.056  0.00  0.00    +0.000 A 
ATOM     12  C   UNL     1      -5.307  12.696  20.179  0.00  0.00    +0.000 A 
ATOM     13  C   UNL     1      -4.611  13.375  21.216  0.00  0.00    +0.000 A 
BRANCH   4  15
ATOM     14  O   UNL     1      -1.733  13.366  23.185  0.00  0.00    +0.000 OA
ATOM     15  C   UNL     1      -2.455  13.987  22.423  0.00  0.00    +0.000 C 
BRANCH  15  16
ATOM     16  O   UNL     1      -2.582  15.329  22.462  0.00  0.00    +0.000 OA
ATOM     17  H   UNL     1      -3.219  15.661  21.792  0.00  0.00    +0.000 HD
ENDBRANCH  15  16
ENDBRANCH   4  15
BRANCH  13  18
ATOM     18  O   UNL     1      -5.286  14.131  22.150  0.00  0.00    +0.000 OA
ATOM     19  H   UNL     1      -4.679  14.806  22.506  0.00  0.00    +0.000 HD
ENDBRANCH  13  18
ENDBRANCH   1   6
BRANCH   1  20
ATOM     20  N   UNL     1      -0.532  11.443  18.681  0.00  0.00    +0.000 N 
ATOM     21  H   UNL     1      -0.568  12.124  19.439  0.00  0.00    +0.000 HD
BRANCH  20  22
ATOM     22  C   UNL     1       0.268  10.292  18.919  0.00  0.00    +0.000 A 
ATOM     23  C   UNL     1       0.338   9.750  20.199  0.00  0.00    +0.000 A 
ATOM     24  C   UNL     1       1.163   8.646  20.432  0.00  0.00    +0.000 A 
ATOM     25  C   UNL     1       1.923   8.098  19.394  0.00  0.00    +0.000 A 
ATOM     26  C   UNL     1       1.884   8.684  18.126  0.00  0.00    +0.000 A 
ATOM     27  C   UNL     1       1.033   9.761  17.881  0.00  0.00    +0.000 A 
BRANCH  25  28
ATOM     28  O   UNL     1       2.732   7.037  19.735  0.00  0.00    +0.000 OA
BRANCH  28  29
ATOM     29  C   UNL     1       2.275   5.746  19.597  0.00  0.00    +0.000 A 
ATOM     30  C   UNL     1       2.417   5.179  18.326  0.00  0.00    +0.000 A 
ATOM     31  C   UNL     1       1.999   3.868  18.090  0.00  0.00    +0.000 A 
ATOM     32  C   UNL     1       1.439   3.124  19.129  0.00  0.00    +0.000 A 
ATOM     33 CL   UNL     1       0.901   1.516  18.839  0.00  0.00    +0.000 Cl
ATOM     34  C   UNL     1       1.321   3.672  20.404  0.00  0.00    +0.000 A 
ATOM     35  C   UNL     1       1.765   4.974  20.645  0.00  0.00    +0.000 A 
ENDBRANCH  28  29
ENDBRANCH  25  28
ENDBRANCH  20  22
ENDBRANCH   1  20
TORSDOF 8
ENDMDL
MODEL 8
REMARK VINA RESULT:      -7.9      5.071     11.184
REMARK  Name = 
REMARK  8 active torsions:
REMARK  status: ('A' for Active; 'I' for Inactive)
REMARK    1  A    between atoms: C_2  and  O_3
REMARK    2  A    between atoms: C_2  and  C_4
REMARK    3  A    between atoms: C_6  and  S_7
REMARK    4  A    between atoms: S_7  and  N_10
REMARK    5  A    between atoms: N_10  and  C_11
REMARK    6  A    between atoms: C_14  and  O_15
REMARK    7  A    between atoms: O_15  and  C_16
REMARK    8  A    between atoms: C_31  and  O_32
REMARK                            x       y       z     vdW  Elec       q    Type
REMARK                         _______ _______ _______ _____ _____    ______ ____
ROOT
ATOM      1  S   UNL     1      -2.106  11.183  18.071  0.00  0.00    +0.000 S 
ATOM      2  O   UNL     1      -2.214   9.740  18.140  0.00  0.00    +0.000 OA
ATOM      3  O   UNL     1      -2.336  11.874  16.825  0.00  0.00    +0.000 OA
ENDROOT
BRANCH   1   6
ATOM      4  C   UNL     1      -3.376  13.052  21.414  0.00  0.00    +0.000 A 
ATOM      5  C   UNL     1      -2.603  12.396  20.459  0.00  0.00    +0.000 A 
ATOM      6  C   UNL     1      -3.206  11.850  19.316  0.00  0.00    +0.000 A 
ATOM      7  C   UNL     1      -4.615  11.911  19.114  0.00  0.00    +0.000 A 
ATOM      8  C   UNL     1      -5.289  11.359  17.994  0.00  0.00    +0.000 A 
ATOM      9  C   UNL     1      -6.671  11.441  17.836  0.00  0.00    +0.000 A 
ATOM     10  C   UNL     1      -7.432  12.090  18.789  0.00  0.00    +0.000 A 
ATOM     11  C   UNL     1      -6.806  12.660  19.895  0.00  0.00    +0.000 A 
ATOM     12  C   UNL     1      -5.405  12.575  20.096  0.00  0.00    +0.000 A 
ATOM     13  C   UNL     1      -4.761  13.144  21.228  0.00  0.00    +0.000 A 
BRANCH   4  15
ATOM     14  O   UNL     1      -3.166  13.582  23.722  0.00  0.00    +0.000 OA
ATOM     15  C   UNL     1      -2.672  13.601  22.608  0.00  0.00    +0.000 C 
BRANCH  15  16
ATOM     16  O   UNL     1      -1.428  14.061  22.364  0.00  0.00    +0.000 OA
ATOM     17  H   UNL     1      -0.805  13.857  23.096  0.00  0.00    +0.000 HD
ENDBRANCH  15  16
ENDBRANCH   4  15
BRANCH  13  18
ATOM     18  O   UNL     1      -5.479  13.829  22.185  0.00  0.00    +0.000 OA
ATOM     19  H   UNL     1      -4.857  14.328  22.746  0.00  0.00    +0.000 HD
ENDBRANCH  13  18
ENDBRANCH   1   6
BRANCH   1  20
ATOM     20  N   UNL     1      -0.563  11.569  18.664  0.00  0.00    +0.000 N 
ATOM     21  H   UNL     1      -0.652  12.271  19.399  0.00  0.00    +0.000 HD
BRANCH  20  22
ATOM     22  C   UNL     1       0.309  10.483  18.947  0.00  0.00    +0.000 A 
ATOM     23  C   UNL     1       1.047   9.901  17.922  0.00  0.00    +0.000 A 
ATOM     24  C   UNL     1       1.867   8.804  18.202  0.00  0.00    +0.000 A 
ATOM     25  C   UNL     1       1.936   8.285  19.499  0.00  0.00    +0.000 A 
ATOM     26  C   UNL     1       1.149   8.845  20.509  0.00  0.00    +0.000 A 
ATOM     27  C   UNL     1       0.360   9.963  20.241  0.00  0.00    +0.000 A 
BRANCH  25  28
ATOM     28  O   UNL     1       2.741   7.181  19.664  0.00  0.00    +0.000 OA
BRANCH  28  29
ATOM     29  C   UNL     1       2.259   5.924  19.383  0.00  0.00    +0.000 A 
ATOM     30  C   UNL     1       1.693   5.231  20.458  0.00  0.00    +0.000 A 
ATOM     31  C   UNL     1       1.160   3.954  20.270  0.00  0.00    +0.000 A 
ATOM     32  C   UNL     1       1.194   3.371  19.004  0.00  0.00    +0.000 A 
ATOM     33 CL   UNL     1       0.560   1.789  18.771  0.00  0.00    +0.000 Cl
ATOM     34  C   UNL     1       1.731   4.066  17.922  0.00  0.00    +0.000 A 
ATOM     35  C   UNL     1       2.238   5.354  18.106  0.00  0.00    +0.000 A 
ENDBRANCH  28  29
ENDBRANCH  25  28
ENDBRANCH  20  22
ENDBRANCH   1  20
TORSDOF 8
ENDMDL
MODEL 9
REMARK VINA RESULT:      -7.8      2.843      5.178
REMARK  Name = 
REMARK  8 active torsions:
REMARK  status: ('A' for Active; 'I' for Inactive)
REMARK    1  A    between atoms: C_2  and  O_3
REMARK    2  A    between atoms: C_2  and  C_4
REMARK    3  A    between atoms: C_6  and  S_7
REMARK    4  A    between atoms: S_7  and  N_10
REMARK    5  A    between atoms: N_10  and  C_11
REMARK    6  A    between atoms: C_14  and  O_15
REMARK    7  A    between atoms: O_15  and  C_16
REMARK    8  A    between atoms: C_31  and  O_32
REMARK                            x       y       z     vdW  Elec       q    Type
REMARK                         _______ _______ _______ _____ _____    ______ ____
ROOT
ATOM      1  S   UNL     1       2.463   7.425  18.260  0.00  0.00    +0.000 S 
ATOM      2  O   UNL     1       3.494   8.335  17.808  0.00  0.00    +0.000 OA
ATOM      3  O   UNL     1       1.297   7.181  17.446  0.00  0.00    +0.000 OA
ENDROOT
BRANCH   1   6
ATOM      4  C   UNL     1       5.327   4.596  18.537  0.00  0.00    +0.000 A 
ATOM      5  C   UNL     1       4.592   5.727  18.189  0.00  0.00    +0.000 A 
ATOM      6  C   UNL     1       3.262   5.862  18.613  0.00  0.00    +0.000 A 
ATOM      7  C   UNL     1       2.613   4.845  19.370  0.00  0.00    +0.000 A 
ATOM      8  C   UNL     1       1.265   4.909  19.808  0.00  0.00    +0.000 A 
ATOM      9  C   UNL     1       0.668   3.889  20.547  0.00  0.00    +0.000 A 
ATOM     10  C   UNL     1       1.402   2.770  20.886  0.00  0.00    +0.000 A 
ATOM     11  C   UNL     1       2.734   2.676  20.489  0.00  0.00    +0.000 A 
ATOM     12  C   UNL     1       3.364   3.686  19.718  0.00  0.00    +0.000 A 
ATOM     13  C   UNL     1       4.719   3.591  19.300  0.00  0.00    +0.000 A 
BRANCH   4  15
ATOM     14  O   UNL     1       7.690   4.714  18.774  0.00  0.00    +0.000 OA
ATOM     15  C   UNL     1       6.733   4.514  18.046  0.00  0.00    +0.000 C 
BRANCH  15  16
ATOM     16  O   UNL     1       6.857   4.141  16.756  0.00  0.00    +0.000 OA
ATOM     17  H   UNL     1       7.555   4.650  16.288  0.00  0.00    +0.000 HD
ENDBRANCH  15  16
ENDBRANCH   4  15
BRANCH  13  18
ATOM     18  O   UNL     1       5.496   2.507  19.644  0.00  0.00    +0.000 OA
ATOM     19  H   UNL     1       5.094   1.701  19.272  0.00  0.00    +0.000 HD
ENDBRANCH  13  18
ENDBRANCH   1   6
BRANCH   1  20
ATOM     20  N   UNL     1       1.986   7.976  19.793  0.00  0.00    +0.000 N 
ATOM     21  H   UNL     1       2.795   7.982  20.414  0.00  0.00    +0.000 HD
BRANCH  20  22
ATOM     22  C   UNL     1       1.166   9.136  19.834  0.00  0.00    +0.000 A 
ATOM     23  C   UNL     1       0.341   9.363  20.931  0.00  0.00    +0.000 A 
ATOM     24  C   UNL     1      -0.495  10.483  20.942  0.00  0.00    +0.000 A 
ATOM     25  C   UNL     1      -0.515  11.362  19.854  0.00  0.00    +0.000 A 
ATOM     26  C   UNL     1       0.279  11.094  18.735  0.00  0.00    +0.000 A 
ATOM     27  C   UNL     1       1.143   9.999  18.739  0.00  0.00    +0.000 A 
BRANCH  25  28
ATOM     28  O   UNL     1      -1.401  12.412  19.945  0.00  0.00    +0.000 OA
BRANCH  28  29
ATOM     29  C   UNL     1      -2.716  12.242  19.581  0.00  0.00    +0.000 A 
ATOM     30  C   UNL     1      -2.936  11.555  18.383  0.00  0.00    +0.000 A 
ATOM     31  C   UNL     1      -4.238  11.317  17.937  0.00  0.00    +0.000 A 
ATOM     32  C   UNL     1      -5.320  11.768  18.693  0.00  0.00    +0.000 A 
ATOM     33 CL   UNL     1      -6.926  11.498  18.137  0.00  0.00    +0.000 Cl
ATOM     34  C   UNL     1      -5.110  12.428  19.902  0.00  0.00    +0.000 A 
ATOM     35  C   UNL     1      -3.808  12.640  20.360  0.00  0.00    +0.000 A 
ENDBRANCH  28  29
ENDBRANCH  25  28
ENDBRANCH  20  22
ENDBRANCH   1  20
TORSDOF 8
ENDMDL
