MODEL 1
REMARK VINA RESULT:      -7.1      0.000      0.000
REMARK  Name = 
REMARK  9 active torsions:
REMARK  status: ('A' for Active; 'I' for Inactive)
REMARK    1  A    between atoms: C_1  and  C_2
REMARK    2  A    between atoms: C_5  and  C_6
REMARK    3  A    between atoms: C_6  and  O_8
REMARK    4  A    between atoms: O_8  and  C_9
REMARK    5  A    between atoms: C_9  and  C_10
REMARK    6  A    between atoms: N_12  and  C_13
REMARK    7  A    between atoms: C_13  and  C_14
REMARK    8  A    between atoms: C_14  and  N_15
REMARK    9  A    between atoms: C_23  and  N_24
REMARK                            x       y       z     vdW  Elec       q    Type
REMARK                         _______ _______ _______ _____ _____    ______ ____
ROOT
ATOM      1  C   UNL     1       2.072   2.033  18.183  0.00  0.00    +0.000 C 
ENDROOT
BRANCH   1   2
ATOM      2  C   UNL     1       1.490   3.411  18.511  0.00  0.00    +0.000 C 
ATOM      3  O   UNL     1       0.993   4.125  17.645  0.00  0.00    +0.000 OA
ATOM      4  N   UNL     1       1.571   3.788  19.835  0.00  0.00    +0.000 N 
ATOM      5  H   UNL     1       2.187   3.246  20.442  0.00  0.00    +0.000 HD
BRANCH   4   6
ATOM      6  C   UNL     1       1.098   5.079  20.303  0.00  0.00    +0.000 C 
BRANCH   6   7
ATOM      7  C   UNL     1       2.230   6.097  20.510  0.00  0.00    +0.000 C 
BRANCH   7   8
ATOM      8  N   UNL     1       2.002   7.348  19.804  0.00  0.00    +0.000 N 
ATOM      9  C   UNL     1       1.273   8.368  20.366  0.00  0.00    +0.000 C 
ATOM     10  O   UNL     1       0.721   8.325  21.459  0.00  0.00    +0.000 OA
ATOM     11  C   UNL     1       1.213   9.580  19.476  0.00  0.00    +0.000 C 
ATOM     12  S   UNL     1       2.054   9.123  17.949  0.00  0.00    +0.000 S 
ATOM     13  C   UNL     1       2.437   7.518  18.523  0.00  0.00    +0.000 C 
ATOM     14  O   UNL     1       3.000   6.689  17.828  0.00  0.00    +0.000 OA
ENDBRANCH   7   8
ENDBRANCH   6   7
ENDBRANCH   4   6
ENDBRANCH   1   2
BRANCH   1  15
ATOM     15  O   UNL     1       3.488   2.038  17.967  0.00  0.00    +0.000 OA
BRANCH  15  16
ATOM     16  C   UNL     1       4.211   2.589  18.968  0.00  0.00    +0.000 C 
ATOM     17  O   UNL     1       4.263   2.167  20.115  0.00  0.00    +0.000 OA
BRANCH  16  22
ATOM     18  C   UNL     1       7.404   7.193  17.411  0.00  0.00    +0.000 C 
ATOM     19  C   UNL     1       6.581   5.985  17.760  0.00  0.00    +0.000 A 
ATOM     20  C   UNL     1       6.235   5.763  19.099  0.00  0.00    +0.000 A 
ATOM     21  C   UNL     1       5.458   4.658  19.460  0.00  0.00    +0.000 A 
ATOM     22  C   UNL     1       5.007   3.748  18.495  0.00  0.00    +0.000 A 
ATOM     23  C   UNL     1       5.337   3.949  17.152  0.00  0.00    +0.000 A 
ATOM     24  C   UNL     1       6.122   5.059  16.802  0.00  0.00    +0.000 A 
BRANCH  24  25
ATOM     25  N   UNL     1       6.443   5.231  15.392  0.00  0.00    +0.000 N 
ATOM     26  O   UNL     1       5.500   5.383  14.608  0.00  0.00    +0.000 OA
ATOM     27  O   UNL     1       7.644   5.236  15.090  0.00  0.00    +0.000 OA
ENDBRANCH  24  25
ENDBRANCH  16  22
ENDBRANCH  15  16
ENDBRANCH   1  15
TORSDOF 8
ENDMDL
MODEL 2
REMARK VINA RESULT:      -7.0      4.975      7.744
REMARK  Name = 
REMARK  9 active torsions:
REMARK  status: ('A' for Active; 'I' for Inactive)
REMARK    1  A    between atoms: C_1  and  C_2
REMARK    2  A    between atoms: C_5  and  C_6
REMARK    3  A    between atoms: C_6  and  O_8
REMARK    4  A    between atoms: O_8  and  C_9
REMARK    5  A    between atoms: C_9  and  C_10
REMARK    6  A    between atoms: N_12  and  C_13
REMARK    7  A    between atoms: C_13  and  C_14
REMARK    8  A    between atoms: C_14  and  N_15
REMARK    9  A    between atoms: C_23  and  N_24
REMARK                            x       y       z     vdW  Elec       q    Type
REMARK                         _______ _______ _______ _____ _____    ______ ____
ROOT
ATOM      1  C   UNL     1       7.863   6.522  18.608  0.00  0.00    +0.000 C 
ENDROOT
BRANCH   1   2
ATOM      2  C   UNL     1       8.094   7.957  18.127  0.00  0.00    +0.000 C 
ATOM      3  O   UNL     1       7.653   8.358  17.053  0.00  0.00    +0.000 OA
ATOM      4  N   UNL     1       8.831   8.756  18.977  0.00  0.00    +0.000 N 
ATOM      5  H   UNL     1       9.342   8.294  19.730  0.00  0.00    +0.000 HD
BRANCH   4   6
ATOM      6  C   UNL     1       9.170  10.129  18.650  0.00  0.00    +0.000 C 
BRANCH   6   7
ATOM      7  C   UNL     1       9.455  10.992  19.888  0.00  0.00    +0.000 C 
BRANCH   7   8
ATOM      8  N   UNL     1      10.164  12.222  19.569  0.00  0.00    +0.000 N 
ATOM      9  C   UNL     1      11.525  12.328  19.725  0.00  0.00    +0.000 C 
ATOM     10  O   UNL     1      12.257  11.452  20.171  0.00  0.00    +0.000 OA
ATOM     11  C   UNL     1      12.044  13.671  19.287  0.00  0.00    +0.000 C 
ATOM     12  S   UNL     1      10.596  14.645  18.836  0.00  0.00    +0.000 S 
ATOM     13  C   UNL     1       9.487  13.341  19.183  0.00  0.00    +0.000 C 
ATOM     14  O   UNL     1       8.276  13.467  19.097  0.00  0.00    +0.000 OA
ENDBRANCH   7   8
ENDBRANCH   6   7
ENDBRANCH   4   6
ENDBRANCH   1   2
BRANCH   1  15
ATOM     15  O   UNL     1       6.492   6.112  18.570  0.00  0.00    +0.000 OA
BRANCH  15  16
ATOM     16  C   UNL     1       6.271   4.931  17.950  0.00  0.00    +0.000 C 
ATOM     17  O   UNL     1       7.100   4.310  17.299  0.00  0.00    +0.000 OA
BRANCH  16  22
ATOM     18  C   UNL     1       0.936   2.749  18.721  0.00  0.00    +0.000 C 
ATOM     19  C   UNL     1       2.313   3.334  18.573  0.00  0.00    +0.000 A 
ATOM     20  C   UNL     1       3.048   3.057  17.414  0.00  0.00    +0.000 A 
ATOM     21  C   UNL     1       4.326   3.596  17.235  0.00  0.00    +0.000 A 
ATOM     22  C   UNL     1       4.901   4.424  18.208  0.00  0.00    +0.000 A 
ATOM     23  C   UNL     1       4.187   4.717  19.373  0.00  0.00    +0.000 A 
ATOM     24  C   UNL     1       2.906   4.167  19.543  0.00  0.00    +0.000 A 
BRANCH  24  25
ATOM     25  N   UNL     1       2.197   4.497  20.771  0.00  0.00    +0.000 N 
ATOM     26  O   UNL     1       1.535   5.541  20.783  0.00  0.00    +0.000 OA
ATOM     27  O   UNL     1       2.291   3.689  21.705  0.00  0.00    +0.000 OA
ENDBRANCH  24  25
ENDBRANCH  16  22
ENDBRANCH  15  16
ENDBRANCH   1  15
TORSDOF 8
ENDMDL
MODEL 3
REMARK VINA RESULT:      -7.0      2.284      6.217
REMARK  Name = 
REMARK  9 active torsions:
REMARK  status: ('A' for Active; 'I' for Inactive)
REMARK    1  A    between atoms: C_1  and  C_2
REMARK    2  A    between atoms: C_5  and  C_6
REMARK    3  A    between atoms: C_6  and  O_8
REMARK    4  A    between atoms: O_8  and  C_9
REMARK    5  A    between atoms: C_9  and  C_10
REMARK    6  A    between atoms: N_12  and  C_13
REMARK    7  A    between atoms: C_13  and  C_14
REMARK    8  A    between atoms: C_14  and  N_15
REMARK    9  A    between atoms: C_23  and  N_24
REMARK                            x       y       z     vdW  Elec       q    Type
REMARK                         _______ _______ _______ _____ _____    ______ ____
ROOT
ATOM      1  C   UNL     1       2.126   4.129  17.860  0.00  0.00    +0.000 C 
ENDROOT
BRANCH   1   2
ATOM      2  C   UNL     1       3.284   3.269  17.346  0.00  0.00    +0.000 C 
ATOM      3  O   UNL     1       3.477   2.130  17.762  0.00  0.00    +0.000 OA
ATOM      4  N   UNL     1       4.088   3.864  16.397  0.00  0.00    +0.000 N 
ATOM      5  H   UNL     1       3.998   4.873  16.270  0.00  0.00    +0.000 HD
BRANCH   4   6
ATOM      6  C   UNL     1       5.250   3.196  15.837  0.00  0.00    +0.000 C 
BRANCH   6   7
ATOM      7  C   UNL     1       6.353   4.170  15.398  0.00  0.00    +0.000 C 
BRANCH   7   8
ATOM      8  N   UNL     1       6.620   5.206  16.384  0.00  0.00    +0.000 N 
ATOM      9  C   UNL     1       5.999   6.430  16.328  0.00  0.00    +0.000 C 
ATOM     10  O   UNL     1       5.216   6.787  15.454  0.00  0.00    +0.000 OA
ATOM     11  C   UNL     1       6.389   7.319  17.476  0.00  0.00    +0.000 C 
ATOM     12  S   UNL     1       7.638   6.414  18.409  0.00  0.00    +0.000 S 
ATOM     13  C   UNL     1       7.561   5.024  17.354  0.00  0.00    +0.000 C 
ATOM     14  O   UNL     1       8.287   4.053  17.492  0.00  0.00    +0.000 OA
ENDBRANCH   7   8
ENDBRANCH   6   7
ENDBRANCH   4   6
ENDBRANCH   1   2
BRANCH   1  15
ATOM     15  O   UNL     1       2.305   4.602  19.199  0.00  0.00    +0.000 OA
BRANCH  15  16
ATOM     16  C   UNL     1       3.183   5.623  19.325  0.00  0.00    +0.000 C 
ATOM     17  O   UNL     1       4.397   5.505  19.402  0.00  0.00    +0.000 OA
BRANCH  16  22
ATOM     18  C   UNL     1       0.536  10.783  18.876  0.00  0.00    +0.000 C 
ATOM     19  C   UNL     1       1.199   9.444  19.044  0.00  0.00    +0.000 A 
ATOM     20  C   UNL     1       1.879   8.881  17.956  0.00  0.00    +0.000 A 
ATOM     21  C   UNL     1       2.521   7.645  18.079  0.00  0.00    +0.000 A 
ATOM     22  C   UNL     1       2.500   6.940  19.290  0.00  0.00    +0.000 A 
ATOM     23  C   UNL     1       1.830   7.481  20.391  0.00  0.00    +0.000 A 
ATOM     24  C   UNL     1       1.185   8.722  20.254  0.00  0.00    +0.000 A 
BRANCH  24  25
ATOM     25  N   UNL     1       0.499   9.249  21.425  0.00  0.00    +0.000 N 
ATOM     26  O   UNL     1       1.085  10.112  22.087  0.00  0.00    +0.000 OA
ATOM     27  O   UNL     1      -0.636   8.808  21.652  0.00  0.00    +0.000 OA
ENDBRANCH  24  25
ENDBRANCH  16  22
ENDBRANCH  15  16
ENDBRANCH   1  15
TORSDOF 8
ENDMDL
MODEL 4
REMARK VINA RESULT:      -7.0      2.616      7.062
REMARK  Name = 
REMARK  9 active torsions:
REMARK  status: ('A' for Active; 'I' for Inactive)
REMARK    1  A    between atoms: C_1  and  C_2
REMARK    2  A    between atoms: C_5  and  C_6
REMARK    3  A    between atoms: C_6  and  O_8
REMARK    4  A    between atoms: O_8  and  C_9
REMARK    5  A    between atoms: C_9  and  C_10
REMARK    6  A    between atoms: N_12  and  C_13
REMARK    7  A    between atoms: C_13  and  C_14
REMARK    8  A    between atoms: C_14  and  N_15
REMARK    9  A    between atoms: C_23  and  N_24
REMARK                            x       y       z     vdW  Elec       q    Type
REMARK                         _______ _______ _______ _____ _____    ______ ____
ROOT
ATOM      1  C   UNL     1       3.927   7.105  17.515  0.00  0.00    +0.000 C 
ENDROOT
BRANCH   1   2
ATOM      2  C   UNL     1       4.615   5.744  17.651  0.00  0.00    +0.000 C 
ATOM      3  O   UNL     1       5.722   5.628  18.172  0.00  0.00    +0.000 OA
ATOM      4  N   UNL     1       3.912   4.670  17.146  0.00  0.00    +0.000 N 
ATOM      5  H   UNL     1       3.116   4.873  16.540  0.00  0.00    +0.000 HD
BRANCH   4   6
ATOM      6  C   UNL     1       4.442   3.319  17.164  0.00  0.00    +0.000 C 
BRANCH   6   7
ATOM      7  C   UNL     1       3.470   2.296  17.769  0.00  0.00    +0.000 C 
BRANCH   7   8
ATOM      8  N   UNL     1       2.743   2.816  18.917  0.00  0.00    +0.000 N 
ATOM      9  C   UNL     1       1.550   3.482  18.771  0.00  0.00    +0.000 C 
ATOM     10  O   UNL     1       1.009   3.739  17.702  0.00  0.00    +0.000 OA
ATOM     11  C   UNL     1       0.957   3.883  20.094  0.00  0.00    +0.000 C 
ATOM     12  S   UNL     1       2.161   3.406  21.348  0.00  0.00    +0.000 S 
ATOM     13  C   UNL     1       3.265   2.732  20.174  0.00  0.00    +0.000 C 
ATOM     14  O   UNL     1       4.355   2.279  20.482  0.00  0.00    +0.000 OA
ENDBRANCH   7   8
ENDBRANCH   6   7
ENDBRANCH   4   6
ENDBRANCH   1   2
BRANCH   1  15
ATOM     15  O   UNL     1       2.815   7.283  18.399  0.00  0.00    +0.000 OA
BRANCH  15  16
ATOM     16  C   UNL     1       2.145   8.446  18.238  0.00  0.00    +0.000 C 
ATOM     17  O   UNL     1       2.036   9.059  17.185  0.00  0.00    +0.000 OA
BRANCH  16  22
ATOM     18  C   UNL     1      -0.331   9.874  23.303  0.00  0.00    +0.000 C 
ATOM     19  C   UNL     1       0.300   9.558  21.976  0.00  0.00    +0.000 A 
ATOM     20  C   UNL     1       0.892   8.302  21.787  0.00  0.00    +0.000 A 
ATOM     21  C   UNL     1       1.475   7.966  20.562  0.00  0.00    +0.000 A 
ATOM     22  C   UNL     1       1.482   8.874  19.494  0.00  0.00    +0.000 A 
ATOM     23  C   UNL     1       0.895  10.132  19.656  0.00  0.00    +0.000 A 
ATOM     24  C   UNL     1       0.316  10.460  20.894  0.00  0.00    +0.000 A 
BRANCH  24  25
ATOM     25  N   UNL     1      -0.283  11.781  21.020  0.00  0.00    +0.000 N 
ATOM     26  O   UNL     1      -1.459  11.909  20.660  0.00  0.00    +0.000 OA
ATOM     27  O   UNL     1       0.427  12.672  21.506  0.00  0.00    +0.000 OA
ENDBRANCH  24  25
ENDBRANCH  16  22
ENDBRANCH  15  16
ENDBRANCH   1  15
TORSDOF 8
ENDMDL
MODEL 5
REMARK VINA RESULT:      -6.9      2.242      6.320
REMARK  Name = 
REMARK  9 active torsions:
REMARK  status: ('A' for Active; 'I' for Inactive)
REMARK    1  A    between atoms: C_1  and  C_2
REMARK    2  A    between atoms: C_5  and  C_6
REMARK    3  A    between atoms: C_6  and  O_8
REMARK    4  A    between atoms: O_8  and  C_9
REMARK    5  A    between atoms: C_9  and  C_10
REMARK    6  A    between atoms: N_12  and  C_13
REMARK    7  A    between atoms: C_13  and  C_14
REMARK    8  A    between atoms: C_14  and  N_15
REMARK    9  A    between atoms: C_23  and  N_24
REMARK                            x       y       z     vdW  Elec       q    Type
REMARK                         _______ _______ _______ _____ _____    ______ ____
ROOT
ATOM      1  C   UNL     1       4.870   5.880  16.924  0.00  0.00    +0.000 C 
ENDROOT
BRANCH   1   2
ATOM      2  C   UNL     1       4.899   4.364  16.709  0.00  0.00    +0.000 C 
ATOM      3  O   UNL     1       5.732   3.830  15.984  0.00  0.00    +0.000 OA
ATOM      4  N   UNL     1       3.926   3.652  17.380  0.00  0.00    +0.000 N 
ATOM      5  H   UNL     1       3.147   4.179  17.777  0.00  0.00    +0.000 HD
BRANCH   4   6
ATOM      6  C   UNL     1       3.794   2.212  17.253  0.00  0.00    +0.000 C 
BRANCH   6   7
ATOM      7  C   UNL     1       3.466   1.516  18.582  0.00  0.00    +0.000 C 
BRANCH   7   8
ATOM      8  N   UNL     1       2.725   2.368  19.499  0.00  0.00    +0.000 N 
ATOM      9  C   UNL     1       3.162   2.596  20.782  0.00  0.00    +0.000 C 
ATOM     10  O   UNL     1       4.160   2.096  21.289  0.00  0.00    +0.000 OA
ATOM     11  C   UNL     1       2.266   3.546  21.528  0.00  0.00    +0.000 C 
ATOM     12  S   UNL     1       0.886   3.904  20.424  0.00  0.00    +0.000 S 
ATOM     13  C   UNL     1       1.523   2.904  19.141  0.00  0.00    +0.000 C 
ATOM     14  O   UNL     1       0.927   2.721  18.093  0.00  0.00    +0.000 OA
ENDBRANCH   7   8
ENDBRANCH   6   7
ENDBRANCH   4   6
ENDBRANCH   1   2
BRANCH   1  15
ATOM     15  O   UNL     1       3.580   6.391  17.275  0.00  0.00    +0.000 OA
BRANCH  15  16
ATOM     16  C   UNL     1       3.354   6.492  18.605  0.00  0.00    +0.000 C 
ATOM     17  O   UNL     1       3.884   5.802  19.465  0.00  0.00    +0.000 OA
BRANCH  16  22
ATOM     18  C   UNL     1      -0.327  10.897  19.534  0.00  0.00    +0.000 C 
ATOM     19  C   UNL     1       0.616   9.742  19.347  0.00  0.00    +0.000 A 
ATOM     20  C   UNL     1       1.150   9.499  18.075  0.00  0.00    +0.000 A 
ATOM     21  C   UNL     1       2.042   8.444  17.865  0.00  0.00    +0.000 A 
ATOM     22  C   UNL     1       2.424   7.604  18.920  0.00  0.00    +0.000 A 
ATOM     23  C   UNL     1       1.908   7.827  20.200  0.00  0.00    +0.000 A 
ATOM     24  C   UNL     1       1.009   8.888  20.396  0.00  0.00    +0.000 A 
BRANCH  24  25
ATOM     25  N   UNL     1       0.494   9.084  21.744  0.00  0.00    +0.000 N 
ATOM     26  O   UNL     1       1.154   9.799  22.507  0.00  0.00    +0.000 OA
ATOM     27  O   UNL     1      -0.584   8.537  22.015  0.00  0.00    +0.000 OA
ENDBRANCH  24  25
ENDBRANCH  16  22
ENDBRANCH  15  16
ENDBRANCH   1  15
TORSDOF 8
ENDMDL
MODEL 6
REMARK VINA RESULT:      -6.9      2.820      7.411
REMARK  Name = 
REMARK  9 active torsions:
REMARK  status: ('A' for Active; 'I' for Inactive)
REMARK    1  A    between atoms: C_1  and  C_2
REMARK    2  A    between atoms: C_5  and  C_6
REMARK    3  A    between atoms: C_6  and  O_8
REMARK    4  A    between atoms: O_8  and  C_9
REMARK    5  A    between atoms: C_9  and  C_10
REMARK    6  A    between atoms: N_12  and  C_13
REMARK    7  A    between atoms: C_13  and  C_14
REMARK    8  A    between atoms: C_14  and  N_15
REMARK    9  A    between atoms: C_23  and  N_24
REMARK                            x       y       z     vdW  Elec       q    Type
REMARK                         _______ _______ _______ _____ _____    ______ ____
ROOT
ATOM      1  C   UNL     1       3.418   7.329  17.794  0.00  0.00    +0.000 C 
ENDROOT
BRANCH   1   2
ATOM      2  C   UNL     1       4.002   6.005  18.294  0.00  0.00    +0.000 C 
ATOM      3  O   UNL     1       4.247   5.814  19.482  0.00  0.00    +0.000 OA
ATOM      4  N   UNL     1       4.237   5.056  17.321  0.00  0.00    +0.000 N 
ATOM      5  H   UNL     1       4.218   5.365  16.349  0.00  0.00    +0.000 HD
BRANCH   4   6
ATOM      6  C   UNL     1       4.823   3.762  17.626  0.00  0.00    +0.000 C 
BRANCH   6   7
ATOM      7  C   UNL     1       3.778   2.647  17.779  0.00  0.00    +0.000 C 
BRANCH   7   8
ATOM      8  N   UNL     1       2.943   2.811  18.958  0.00  0.00    +0.000 N 
ATOM      9  C   UNL     1       1.677   3.340  18.875  0.00  0.00    +0.000 C 
ATOM     10  O   UNL     1       1.148   3.753  17.849  0.00  0.00    +0.000 OA
ATOM     11  C   UNL     1       0.983   3.367  20.210  0.00  0.00    +0.000 C 
ATOM     12  S   UNL     1       2.191   2.782  21.414  0.00  0.00    +0.000 S 
ATOM     13  C   UNL     1       3.422   2.522  20.202  0.00  0.00    +0.000 C 
ATOM     14  O   UNL     1       4.550   2.152  20.480  0.00  0.00    +0.000 OA
ENDBRANCH   7   8
ENDBRANCH   6   7
ENDBRANCH   4   6
ENDBRANCH   1   2
BRANCH   1  15
ATOM     15  O   UNL     1       2.491   7.933  18.702  0.00  0.00    +0.000 OA
BRANCH  15  16
ATOM     16  C   UNL     1       1.934   9.084  18.260  0.00  0.00    +0.000 C 
ATOM     17  O   UNL     1       1.983   9.495  17.110  0.00  0.00    +0.000 OA
BRANCH  16  22
ATOM     18  C   UNL     1      -1.108  12.007  22.263  0.00  0.00    +0.000 C 
ATOM     19  C   UNL     1      -0.322  11.207  21.263  0.00  0.00    +0.000 A 
ATOM     20  C   UNL     1      -0.055  11.764  20.005  0.00  0.00    +0.000 A 
ATOM     21  C   UNL     1       0.687  11.056  19.055  0.00  0.00    +0.000 A 
ATOM     22  C   UNL     1       1.180   9.775  19.335  0.00  0.00    +0.000 A 
ATOM     23  C   UNL     1       0.930   9.198  20.583  0.00  0.00    +0.000 A 
ATOM     24  C   UNL     1       0.180   9.917  21.528  0.00  0.00    +0.000 A 
BRANCH  24  25
ATOM     25  N   UNL     1      -0.058   9.279  22.815  0.00  0.00    +0.000 N 
ATOM     26  O   UNL     1       0.634   9.648  23.770  0.00  0.00    +0.000 OA
ATOM     27  O   UNL     1      -0.958   8.429  22.859  0.00  0.00    +0.000 OA
ENDBRANCH  24  25
ENDBRANCH  16  22
ENDBRANCH  15  16
ENDBRANCH   1  15
TORSDOF 8
ENDMDL
MODEL 7
REMARK VINA RESULT:      -6.9      4.448      7.108
REMARK  Name = 
REMARK  9 active torsions:
REMARK  status: ('A' for Active; 'I' for Inactive)
REMARK    1  A    between atoms: C_1  and  C_2
REMARK    2  A    between atoms: C_5  and  C_6
REMARK    3  A    between atoms: C_6  and  O_8
REMARK    4  A    between atoms: O_8  and  C_9
REMARK    5  A    between atoms: C_9  and  C_10
REMARK    6  A    between atoms: N_12  and  C_13
REMARK    7  A    between atoms: C_13  and  C_14
REMARK    8  A    between atoms: C_14  and  N_15
REMARK    9  A    between atoms: C_23  and  N_24
REMARK                            x       y       z     vdW  Elec       q    Type
REMARK                         _______ _______ _______ _____ _____    ______ ____
ROOT
ATOM      1  C   UNL     1       7.294   6.432  17.105  0.00  0.00    +0.000 C 
ENDROOT
BRANCH   1   2
ATOM      2  C   UNL     1       7.993   7.312  18.144  0.00  0.00    +0.000 C 
ATOM      3  O   UNL     1       8.446   6.846  19.186  0.00  0.00    +0.000 OA
ATOM      4  N   UNL     1       8.071   8.653  17.829  0.00  0.00    +0.000 N 
ATOM      5  H   UNL     1       7.485   8.991  17.066  0.00  0.00    +0.000 HD
BRANCH   4   6
ATOM      6  C   UNL     1       8.670   9.626  18.726  0.00  0.00    +0.000 C 
BRANCH   6   7
ATOM      7  C   UNL     1       9.539  10.662  17.999  0.00  0.00    +0.000 C 
BRANCH   7   8
ATOM      8  N   UNL     1       9.329  12.017  18.484  0.00  0.00    +0.000 N 
ATOM      9  C   UNL     1       8.389  12.845  17.920  0.00  0.00    +0.000 C 
ATOM     10  O   UNL     1       7.682  12.563  16.959  0.00  0.00    +0.000 OA
ATOM     11  C   UNL     1       8.314  14.177  18.615  0.00  0.00    +0.000 C 
ATOM     12  S   UNL     1       9.615  14.164  19.864  0.00  0.00    +0.000 S 
ATOM     13  C   UNL     1      10.120  12.540  19.465  0.00  0.00    +0.000 C 
ATOM     14  O   UNL     1      11.070  11.997  20.003  0.00  0.00    +0.000 OA
ENDBRANCH   7   8
ENDBRANCH   6   7
ENDBRANCH   4   6
ENDBRANCH   1   2
BRANCH   1  15
ATOM     15  O   UNL     1       6.160   7.053  16.488  0.00  0.00    +0.000 OA
BRANCH  15  16
ATOM     16  C   UNL     1       5.220   6.192  16.037  0.00  0.00    +0.000 C 
ATOM     17  O   UNL     1       5.151   5.756  14.897  0.00  0.00    +0.000 OA
BRANCH  16  22
ATOM     18  C   UNL     1       1.512   4.832  20.307  0.00  0.00    +0.000 C 
ATOM     19  C   UNL     1       2.474   5.129  19.190  0.00  0.00    +0.000 A 
ATOM     20  C   UNL     1       2.763   6.463  18.879  0.00  0.00    +0.000 A 
ATOM     21  C   UNL     1       3.664   6.778  17.858  0.00  0.00    +0.000 A 
ATOM     22  C   UNL     1       4.299   5.770  17.121  0.00  0.00    +0.000 A 
ATOM     23  C   UNL     1       4.030   4.430  17.414  0.00  0.00    +0.000 A 
ATOM     24  C   UNL     1       3.119   4.126  18.439  0.00  0.00    +0.000 A 
BRANCH  24  25
ATOM     25  N   UNL     1       2.867   2.718  18.711  0.00  0.00    +0.000 N 
ATOM     26  O   UNL     1       3.582   2.163  19.552  0.00  0.00    +0.000 OA
ATOM     27  O   UNL     1       1.933   2.189  18.093  0.00  0.00    +0.000 OA
ENDBRANCH  24  25
ENDBRANCH  16  22
ENDBRANCH  15  16
ENDBRANCH   1  15
TORSDOF 8
ENDMDL
MODEL 8
REMARK VINA RESULT:      -6.8      2.963      7.432
REMARK  Name = 
REMARK  9 active torsions:
REMARK  status: ('A' for Active; 'I' for Inactive)
REMARK    1  A    between atoms: C_1  and  C_2
REMARK    2  A    between atoms: C_5  and  C_6
REMARK    3  A    between atoms: C_6  and  O_8
REMARK    4  A    between atoms: O_8  and  C_9
REMARK    5  A    between atoms: C_9  and  C_10
REMARK    6  A    between atoms: N_12  and  C_13
REMARK    7  A    between atoms: C_13  and  C_14
REMARK    8  A    between atoms: C_14  and  N_15
REMARK    9  A    between atoms: C_23  and  N_24
REMARK                            x       y       z     vdW  Elec       q    Type
REMARK                         _______ _______ _______ _____ _____    ______ ____
ROOT
ATOM      1  C   UNL     1       2.277   6.643  18.035  0.00  0.00    +0.000 C 
ENDROOT
BRANCH   1   2
ATOM      2  C   UNL     1       3.343   5.549  18.143  0.00  0.00    +0.000 C 
ATOM      3  O   UNL     1       4.266   5.624  18.949  0.00  0.00    +0.000 OA
ATOM      4  N   UNL     1       3.194   4.489  17.274  0.00  0.00    +0.000 N 
ATOM      5  H   UNL     1       2.543   4.605  16.497  0.00  0.00    +0.000 HD
BRANCH   4   6
ATOM      6  C   UNL     1       4.141   3.389  17.225  0.00  0.00    +0.000 C 
BRANCH   6   7
ATOM      7  C   UNL     1       3.616   2.110  17.893  0.00  0.00    +0.000 C 
BRANCH   7   8
ATOM      8  N   UNL     1       2.980   2.362  19.177  0.00  0.00    +0.000 N 
ATOM      9  C   UNL     1       3.696   2.353  20.349  0.00  0.00    +0.000 C 
ATOM     10  O   UNL     1       4.892   2.100  20.446  0.00  0.00    +0.000 OA
ATOM     11  C   UNL     1       2.842   2.689  21.541  0.00  0.00    +0.000 C 
ATOM     12  S   UNL     1       1.157   2.854  20.919  0.00  0.00    +0.000 S 
ATOM     13  C   UNL     1       1.630   2.536  19.268  0.00  0.00    +0.000 C 
ATOM     14  O   UNL     1       0.823   2.466  18.355  0.00  0.00    +0.000 OA
ENDBRANCH   7   8
ENDBRANCH   6   7
ENDBRANCH   4   6
ENDBRANCH   1   2
BRANCH   1  15
ATOM     15  O   UNL     1       2.574   7.819  18.795  0.00  0.00    +0.000 OA
BRANCH  15  16
ATOM     16  C   UNL     1       2.065   8.964  18.288  0.00  0.00    +0.000 C 
ATOM     17  O   UNL     1       2.243   9.373  17.149  0.00  0.00    +0.000 OA
BRANCH  16  22
ATOM     18  C   UNL     1      -1.478  11.846  21.889  0.00  0.00    +0.000 C 
ATOM     19  C   UNL     1      -0.558  11.060  20.997  0.00  0.00    +0.000 A 
ATOM     20  C   UNL     1      -0.304  11.529  19.702  0.00  0.00    +0.000 A 
ATOM     21  C   UNL     1       0.558  10.834  18.849  0.00  0.00    +0.000 A 
ATOM     22  C   UNL     1       1.187   9.653  19.266  0.00  0.00    +0.000 A 
ATOM     23  C   UNL     1       0.952   9.166  20.555  0.00  0.00    +0.000 A 
ATOM     24  C   UNL     1       0.081   9.871  21.401  0.00  0.00    +0.000 A 
BRANCH  24  25
ATOM     25  N   UNL     1      -0.137   9.329  22.735  0.00  0.00    +0.000 N 
ATOM     26  O   UNL     1      -0.996   8.449  22.858  0.00  0.00    +0.000 OA
ATOM     27  O   UNL     1       0.578   9.775  23.642  0.00  0.00    +0.000 OA
ENDBRANCH  24  25
ENDBRANCH  16  22
ENDBRANCH  15  16
ENDBRANCH   1  15
TORSDOF 8
ENDMDL
MODEL 9
REMARK VINA RESULT:      -6.8      2.710      6.787
REMARK  Name = 
REMARK  9 active torsions:
REMARK  status: ('A' for Active; 'I' for Inactive)
REMARK    1  A    between atoms: C_1  and  C_2
REMARK    2  A    between atoms: C_5  and  C_6
REMARK    3  A    between atoms: C_6  and  O_8
REMARK    4  A    between atoms: O_8  and  C_9
REMARK    5  A    between atoms: C_9  and  C_10
REMARK    6  A    between atoms: N_12  and  C_13
REMARK    7  A    between atoms: C_13  and  C_14
REMARK    8  A    between atoms: C_14  and  N_15
REMARK    9  A    between atoms: C_23  and  N_24
REMARK                            x       y       z     vdW  Elec       q    Type
REMARK                         _______ _______ _______ _____ _____    ______ ____
ROOT
ATOM      1  C   UNL     1       3.540   7.612  17.553  0.00  0.00    +0.000 C 
ENDROOT
BRANCH   1   2
ATOM      2  C   UNL     1       4.475   6.404  17.448  0.00  0.00    +0.000 C 
ATOM      3  O   UNL     1       5.696   6.533  17.420  0.00  0.00    +0.000 OA
ATOM      4  N   UNL     1       3.852   5.176  17.381  0.00  0.00    +0.000 N 
ATOM      5  H   UNL     1       2.850   5.167  17.187  0.00  0.00    +0.000 HD
BRANCH   4   6
ATOM      6  C   UNL     1       4.595   3.936  17.241  0.00  0.00    +0.000 C 
BRANCH   6   7
ATOM      7  C   UNL     1       3.763   2.691  17.579  0.00  0.00    +0.000 C 
BRANCH   7   8
ATOM      8  N   UNL     1       2.985   2.844  18.799  0.00  0.00    +0.000 N 
ATOM      9  C   UNL     1       1.691   3.304  18.774  0.00  0.00    +0.000 C 
ATOM     10  O   UNL     1       1.087   3.663  17.770  0.00  0.00    +0.000 OA
ATOM     11  C   UNL     1       1.070   3.332  20.144  0.00  0.00    +0.000 C 
ATOM     12  S   UNL     1       2.370   2.841  21.292  0.00  0.00    +0.000 S 
ATOM     13  C   UNL     1       3.545   2.612  20.020  0.00  0.00    +0.000 C 
ATOM     14  O   UNL     1       4.705   2.307  20.245  0.00  0.00    +0.000 OA
ENDBRANCH   7   8
ENDBRANCH   6   7
ENDBRANCH   4   6
ENDBRANCH   1   2
BRANCH   1  15
ATOM     15  O   UNL     1       2.256   7.304  18.107  0.00  0.00    +0.000 OA
BRANCH  15  16
ATOM     16  C   UNL     1       2.226   7.223  19.456  0.00  0.00    +0.000 C 
ATOM     17  O   UNL     1       2.776   6.359  20.124  0.00  0.00    +0.000 OA
BRANCH  16  22
ATOM     18  C   UNL     1      -0.565  11.592  22.093  0.00  0.00    +0.000 C 
ATOM     19  C   UNL     1       0.156  10.492  21.364  0.00  0.00    +0.000 A 
ATOM     20  C   UNL     1       0.608   9.381  22.086  0.00  0.00    +0.000 A 
ATOM     21  C   UNL     1       1.269   8.332  21.440  0.00  0.00    +0.000 A 
ATOM     22  C   UNL     1       1.494   8.365  20.057  0.00  0.00    +0.000 A 
ATOM     23  C   UNL     1       1.050   9.462  19.313  0.00  0.00    +0.000 A 
ATOM     24  C   UNL     1       0.392  10.512  19.975  0.00  0.00    +0.000 A 
BRANCH  24  25
ATOM     25  N   UNL     1      -0.053  11.636  19.162  0.00  0.00    +0.000 N 
ATOM     26  O   UNL     1       0.739  12.570  19.000  0.00  0.00    +0.000 OA
ATOM     27  O   UNL     1      -1.188  11.556  18.673  0.00  0.00    +0.000 OA
ENDBRANCH  24  25
ENDBRANCH  16  22
ENDBRANCH  15  16
ENDBRANCH   1  15
TORSDOF 8
ENDMDL
