MODEL 1
REMARK VINA RESULT:      -6.8      0.000      0.000
REMARK  Name = 
REMARK  15 active torsions:
REMARK  status: ('A' for Active; 'I' for Inactive)
REMARK    1  A    between atoms: C_4  and  O_5
REMARK    2  A    between atoms: C_8  and  O_9
REMARK    3  A    between atoms: C_14  and  N_15
REMARK    4  A    between atoms: N_15  and  C_16
REMARK    5  A    between atoms: C_16  and  C_17
REMARK    6  A    between atoms: C_17  and  N_18
REMARK    7  A    between atoms: N_18  and  C_19
REMARK    8  A    between atoms: C_19  and  C_20
REMARK    9  A    between atoms: C_20  and  O_21
REMARK   10  A    between atoms: C_24  and  N_25
REMARK   11  A    between atoms: N_25  and  C_26
REMARK   12  A    between atoms: C_26  and  C_27
REMARK   13  A    between atoms: C_27  and  N_28
REMARK   14  A    between atoms: N_28  and  C_29
REMARK   15  A    between atoms: C_29  and  O_30
REMARK                            x       y       z     vdW  Elec       q    Type
REMARK                         _______ _______ _______ _____ _____    ______ ____
ROOT
ATOM      1  O   UNL     1       2.973   8.171  16.740  0.00  0.00    +0.000 OA
ATOM      2  C   UNL     1       2.896   7.887  17.931  0.00  0.00    +0.000 C 
ATOM      3  C   UNL     1       2.051   8.764  18.747  0.00  0.00    +0.000 A 
ATOM      4  C   UNL     1       1.761  10.067  18.305  0.00  0.00    +0.000 A 
ATOM      5  C   UNL     1       0.879  10.878  19.007  0.00  0.00    +0.000 A 
ATOM      6  C   UNL     1       0.271  10.386  20.156  0.00  0.00    +0.000 A 
ATOM      7  C   UNL     1       0.573   9.097  20.611  0.00  0.00    +0.000 A 
ATOM      8  C   UNL     1       1.474   8.272  19.912  0.00  0.00    +0.000 A 
ATOM      9  C   UNL     1       1.799   6.883  20.331  0.00  0.00    +0.000 C 
ATOM     10  O   UNL     1       1.146   6.350  21.220  0.00  0.00    +0.000 OA
ATOM     11  C   UNL     1       2.921   6.139  19.672  0.00  0.00    +0.000 A 
ATOM     12  C   UNL     1       3.368   4.902  20.208  0.00  0.00    +0.000 A 
ATOM     13  C   UNL     1       4.387   4.231  19.527  0.00  0.00    +0.000 A 
ATOM     14  C   UNL     1       4.999   4.787  18.405  0.00  0.00    +0.000 A 
ATOM     15  C   UNL     1       4.629   6.041  17.896  0.00  0.00    +0.000 A 
ATOM     16  C   UNL     1       3.537   6.690  18.520  0.00  0.00    +0.000 A 
ENDROOT
BRANCH   4  17
ATOM     17  O   UNL     1       2.307  10.610  17.172  0.00  0.00    +0.000 OA
ATOM     18  H   UNL     1       3.046  11.196  17.454  0.00  0.00    +0.000 HD
ENDBRANCH   4  17
BRANCH   7  19
ATOM     19  O   UNL     1      -0.029   8.669  21.760  0.00  0.00    +0.000 OA
ATOM     20  H   UNL     1       0.637   8.479  22.441  0.00  0.00    +0.000 HD
ENDBRANCH   7  19
BRANCH  12  21
ATOM     21  N   UNL     1       2.793   4.312  21.336  0.00  0.00    +0.000 N 
ATOM     22  H   UNL     1       3.008   4.785  22.227  0.00  0.00    +0.000 HD
BRANCH  21  23
ATOM     23  C   UNL     1       2.622   2.865  21.445  0.00  0.00    +0.000 C 
BRANCH  23  24
ATOM     24  C   UNL     1       1.177   2.437  21.105  0.00  0.00    +0.000 C 
BRANCH  24  25
ATOM     25  N   UNL     1       0.572   3.289  20.071  0.00  0.00    +0.000 NA
ATOM     26  H   UNL     1       1.160   4.111  19.944  0.00  0.00    +0.000 HD
BRANCH  25  27
ATOM     27  C   UNL     1       0.456   2.570  18.795  0.00  0.00    +0.000 C 
BRANCH  27  28
ATOM     28  C   UNL     1       1.834   2.381  18.153  0.00  0.00    +0.000 C 
BRANCH  28  29
ATOM     29  O   UNL     1       2.003   3.280  17.058  0.00  0.00    +0.000 OA
ATOM     30  H   UNL     1       1.195   3.185  16.523  0.00  0.00    +0.000 HD
ENDBRANCH  28  29
ENDBRANCH  27  28
ENDBRANCH  25  27
ENDBRANCH  24  25
ENDBRANCH  23  24
ENDBRANCH  21  23
ENDBRANCH  12  21
BRANCH  15  31
ATOM     31  N   UNL     1       5.461   6.513  16.887  0.00  0.00    +0.000 N 
ATOM     32  H   UNL     1       5.083   7.282  16.335  0.00  0.00    +0.000 HD
BRANCH  31  33
ATOM     33  C   UNL     1       6.915   6.453  16.882  0.00  0.00    +0.000 C 
BRANCH  33  34
ATOM     34  C   UNL     1       7.517   7.582  17.746  0.00  0.00    +0.000 C 
BRANCH  34  35
ATOM     35  N   UNL     1       8.377   7.065  18.827  0.00  0.00    +0.000 NA
ATOM     36  H   UNL     1       8.421   7.761  19.574  0.00  0.00    +0.000 HD
BRANCH  35  37
ATOM     37  C   UNL     1       7.803   5.867  19.392  0.00  0.00    +0.000 C 
BRANCH  37  38
ATOM     38  O   UNL     1       8.775   5.308  20.239  0.00  0.00    +0.000 OA
ATOM     39  H   UNL     1       8.271   5.068  21.034  0.00  0.00    +0.000 HD
ENDBRANCH  37  38
ENDBRANCH  35  37
ENDBRANCH  34  35
ENDBRANCH  33  34
ENDBRANCH  31  33
ENDBRANCH  15  31
TORSDOF 15
ENDMDL
MODEL 2
REMARK VINA RESULT:      -6.7      1.547      1.869
REMARK  Name = 
REMARK  15 active torsions:
REMARK  status: ('A' for Active; 'I' for Inactive)
REMARK    1  A    between atoms: C_4  and  O_5
REMARK    2  A    between atoms: C_8  and  O_9
REMARK    3  A    between atoms: C_14  and  N_15
REMARK    4  A    between atoms: N_15  and  C_16
REMARK    5  A    between atoms: C_16  and  C_17
REMARK    6  A    between atoms: C_17  and  N_18
REMARK    7  A    between atoms: N_18  and  C_19
REMARK    8  A    between atoms: C_19  and  C_20
REMARK    9  A    between atoms: C_20  and  O_21
REMARK   10  A    between atoms: C_24  and  N_25
REMARK   11  A    between atoms: N_25  and  C_26
REMARK   12  A    between atoms: C_26  and  C_27
REMARK   13  A    between atoms: C_27  and  N_28
REMARK   14  A    between atoms: N_28  and  C_29
REMARK   15  A    between atoms: C_29  and  O_30
REMARK                            x       y       z     vdW  Elec       q    Type
REMARK                         _______ _______ _______ _____ _____    ______ ____
ROOT
ATOM      1  O   UNL     1       2.829   8.482  16.819  0.00  0.00    +0.000 OA
ATOM      2  C   UNL     1       2.747   8.165  18.002  0.00  0.00    +0.000 C 
ATOM      3  C   UNL     1       1.912   9.026  18.843  0.00  0.00    +0.000 A 
ATOM      4  C   UNL     1       1.636  10.345  18.439  0.00  0.00    +0.000 A 
ATOM      5  C   UNL     1       0.762  11.144  19.164  0.00  0.00    +0.000 A 
ATOM      6  C   UNL     1       0.148  10.625  20.297  0.00  0.00    +0.000 A 
ATOM      7  C   UNL     1       0.435   9.320  20.714  0.00  0.00    +0.000 A 
ATOM      8  C   UNL     1       1.327   8.506  19.992  0.00  0.00    +0.000 A 
ATOM      9  C   UNL     1       1.637   7.102  20.370  0.00  0.00    +0.000 C 
ATOM     10  O   UNL     1       0.978   6.550  21.243  0.00  0.00    +0.000 OA
ATOM     11  C   UNL     1       2.752   6.366  19.690  0.00  0.00    +0.000 A 
ATOM     12  C   UNL     1       3.184   5.109  20.190  0.00  0.00    +0.000 A 
ATOM     13  C   UNL     1       4.197   4.447  19.491  0.00  0.00    +0.000 A 
ATOM     14  C   UNL     1       4.817   5.029  18.386  0.00  0.00    +0.000 A 
ATOM     15  C   UNL     1       4.461   6.302  17.914  0.00  0.00    +0.000 A 
ATOM     16  C   UNL     1       3.375   6.944  18.555  0.00  0.00    +0.000 A 
ENDROOT
BRANCH   4  17
ATOM     17  O   UNL     1       2.190  10.914  17.323  0.00  0.00    +0.000 OA
ATOM     18  H   UNL     1       2.867  11.561  17.629  0.00  0.00    +0.000 HD
ENDBRANCH   4  17
BRANCH   7  19
ATOM     19  O   UNL     1      -0.172   8.865  21.850  0.00  0.00    +0.000 OA
ATOM     20  H   UNL     1       0.410   8.984  22.617  0.00  0.00    +0.000 HD
ENDBRANCH   7  19
BRANCH  12  21
ATOM     21  N   UNL     1       2.602   4.492  21.300  0.00  0.00    +0.000 N 
ATOM     22  H   UNL     1       3.046   4.719  22.202  0.00  0.00    +0.000 HD
BRANCH  21  23
ATOM     23  C   UNL     1       2.040   3.145  21.225  0.00  0.00    +0.000 C 
BRANCH  23  24
ATOM     24  C   UNL     1       0.666   3.142  20.518  0.00  0.00    +0.000 C 
BRANCH  24  25
ATOM     25  N   UNL     1       0.749   2.634  19.140  0.00  0.00    +0.000 NA
ATOM     26  H   UNL     1       0.804   3.428  18.505  0.00  0.00    +0.000 HD
BRANCH  25  27
ATOM     27  C   UNL     1       1.934   1.784  18.962  0.00  0.00    +0.000 C 
BRANCH  27  28
ATOM     28  C   UNL     1       2.598   2.059  17.609  0.00  0.00    +0.000 C 
BRANCH  28  29
ATOM     29  O   UNL     1       2.080   3.257  17.032  0.00  0.00    +0.000 OA
ATOM     30  H   UNL     1       2.572   3.981  17.460  0.00  0.00    +0.000 HD
ENDBRANCH  28  29
ENDBRANCH  27  28
ENDBRANCH  25  27
ENDBRANCH  24  25
ENDBRANCH  23  24
ENDBRANCH  21  23
ENDBRANCH  12  21
BRANCH  15  31
ATOM     31  N   UNL     1       5.298   6.794  16.919  0.00  0.00    +0.000 N 
ATOM     32  H   UNL     1       4.938   7.595  16.404  0.00  0.00    +0.000 HD
BRANCH  31  33
ATOM     33  C   UNL     1       6.750   6.696  16.902  0.00  0.00    +0.000 C 
BRANCH  33  34
ATOM     34  C   UNL     1       7.206   5.345  16.306  0.00  0.00    +0.000 C 
BRANCH  34  35
ATOM     35  N   UNL     1       7.386   5.408  14.844  0.00  0.00    +0.000 NA
ATOM     36  H   UNL     1       8.362   5.202  14.623  0.00  0.00    +0.000 HD
BRANCH  35  37
ATOM     37  C   UNL     1       6.580   4.398  14.198  0.00  0.00    +0.000 C 
BRANCH  37  38
ATOM     38  O   UNL     1       5.315   4.434  14.807  0.00  0.00    +0.000 OA
ATOM     39  H   UNL     1       5.301   3.627  15.348  0.00  0.00    +0.000 HD
ENDBRANCH  37  38
ENDBRANCH  35  37
ENDBRANCH  34  35
ENDBRANCH  33  34
ENDBRANCH  31  33
ENDBRANCH  15  31
TORSDOF 15
ENDMDL
MODEL 3
REMARK VINA RESULT:      -6.6      1.550      5.620
REMARK  Name = 
REMARK  15 active torsions:
REMARK  status: ('A' for Active; 'I' for Inactive)
REMARK    1  A    between atoms: C_4  and  O_5
REMARK    2  A    between atoms: C_8  and  O_9
REMARK    3  A    between atoms: C_14  and  N_15
REMARK    4  A    between atoms: N_15  and  C_16
REMARK    5  A    between atoms: C_16  and  C_17
REMARK    6  A    between atoms: C_17  and  N_18
REMARK    7  A    between atoms: N_18  and  C_19
REMARK    8  A    between atoms: C_19  and  C_20
REMARK    9  A    between atoms: C_20  and  O_21
REMARK   10  A    between atoms: C_24  and  N_25
REMARK   11  A    between atoms: N_25  and  C_26
REMARK   12  A    between atoms: C_26  and  C_27
REMARK   13  A    between atoms: C_27  and  N_28
REMARK   14  A    between atoms: N_28  and  C_29
REMARK   15  A    between atoms: C_29  and  O_30
REMARK                            x       y       z     vdW  Elec       q    Type
REMARK                         _______ _______ _______ _____ _____    ______ ____
ROOT
ATOM      1  O   UNL     1       3.013   5.277  20.792  0.00  0.00    +0.000 OA
ATOM      2  C   UNL     1       2.971   5.660  19.627  0.00  0.00    +0.000 C 
ATOM      3  C   UNL     1       2.395   6.988  19.407  0.00  0.00    +0.000 A 
ATOM      4  C   UNL     1       1.539   7.549  20.371  0.00  0.00    +0.000 A 
ATOM      5  C   UNL     1       1.065   8.848  20.236  0.00  0.00    +0.000 A 
ATOM      6  C   UNL     1       1.454   9.601  19.134  0.00  0.00    +0.000 A 
ATOM      7  C   UNL     1       2.289   9.039  18.162  0.00  0.00    +0.000 A 
ATOM      8  C   UNL     1       2.766   7.721  18.285  0.00  0.00    +0.000 A 
ATOM      9  C   UNL     1       3.685   7.091  17.301  0.00  0.00    +0.000 C 
ATOM     10  O   UNL     1       4.198   7.778  16.426  0.00  0.00    +0.000 OA
ATOM     11  C   UNL     1       3.980   5.623  17.376  0.00  0.00    +0.000 A 
ATOM     12  C   UNL     1       4.684   4.984  16.321  0.00  0.00    +0.000 A 
ATOM     13  C   UNL     1       4.970   3.624  16.465  0.00  0.00    +0.000 A 
ATOM     14  C   UNL     1       4.518   2.898  17.566  0.00  0.00    +0.000 A 
ATOM     15  C   UNL     1       3.757   3.488  18.588  0.00  0.00    +0.000 A 
ATOM     16  C   UNL     1       3.539   4.884  18.501  0.00  0.00    +0.000 A 
ENDROOT
BRANCH   4  17
ATOM     17  O   UNL     1       1.131   6.873  21.491  0.00  0.00    +0.000 OA
ATOM     18  H   UNL     1       0.502   6.174  21.198  0.00  0.00    +0.000 HD
ENDBRANCH   4  17
BRANCH   7  19
ATOM     19  O   UNL     1       2.621   9.810  17.083  0.00  0.00    +0.000 OA
ATOM     20  H   UNL     1       3.571  10.009  17.089  0.00  0.00    +0.000 HD
ENDBRANCH   7  19
BRANCH  12  21
ATOM     21  N   UNL     1       5.146   5.666  15.194  0.00  0.00    +0.000 N 
ATOM     22  H   UNL     1       4.476   5.710  14.411  0.00  0.00    +0.000 HD
BRANCH  21  23
ATOM     23  C   UNL     1       6.549   5.618  14.786  0.00  0.00    +0.000 C 
BRANCH  23  24
ATOM     24  C   UNL     1       7.497   5.693  16.005  0.00  0.00    +0.000 C 
BRANCH  24  25
ATOM     25  N   UNL     1       7.453   7.006  16.665  0.00  0.00    +0.000 NA
ATOM     26  H   UNL     1       6.534   7.417  16.508  0.00  0.00    +0.000 HD
BRANCH  25  27
ATOM     27  C   UNL     1       7.689   6.879  18.110  0.00  0.00    +0.000 C 
BRANCH  27  28
ATOM     28  C   UNL     1       7.573   5.416  18.550  0.00  0.00    +0.000 C 
BRANCH  28  29
ATOM     29  O   UNL     1       6.812   5.315  19.753  0.00  0.00    +0.000 OA
ATOM     30  H   UNL     1       5.885   5.433  19.481  0.00  0.00    +0.000 HD
ENDBRANCH  28  29
ENDBRANCH  27  28
ENDBRANCH  25  27
ENDBRANCH  24  25
ENDBRANCH  23  24
ENDBRANCH  21  23
ENDBRANCH  12  21
BRANCH  15  31
ATOM     31  N   UNL     1       3.247   2.582  19.511  0.00  0.00    +0.000 N 
ATOM     32  H   UNL     1       3.485   2.770  20.483  0.00  0.00    +0.000 HD
BRANCH  31  33
ATOM     33  C   UNL     1       2.033   1.795  19.352  0.00  0.00    +0.000 C 
BRANCH  33  34
ATOM     34  C   UNL     1       0.777   2.687  19.466  0.00  0.00    +0.000 C 
BRANCH  34  35
ATOM     35  N   UNL     1       0.676   3.351  20.779  0.00  0.00    +0.000 NA
ATOM     36  H   UNL     1      -0.310   3.497  21.000  0.00  0.00    +0.000 HD
BRANCH  35  37
ATOM     37  C   UNL     1       1.223   2.502  21.811  0.00  0.00    +0.000 C 
BRANCH  37  38
ATOM     38  O   UNL     1       2.323   3.183  22.361  0.00  0.00    +0.000 OA
ATOM     39  H   UNL     1       2.499   3.886  21.714  0.00  0.00    +0.000 HD
ENDBRANCH  37  38
ENDBRANCH  35  37
ENDBRANCH  34  35
ENDBRANCH  33  34
ENDBRANCH  31  33
ENDBRANCH  15  31
TORSDOF 15
ENDMDL
MODEL 4
REMARK VINA RESULT:      -6.5      1.183      1.207
REMARK  Name = 
REMARK  15 active torsions:
REMARK  status: ('A' for Active; 'I' for Inactive)
REMARK    1  A    between atoms: C_4  and  O_5
REMARK    2  A    between atoms: C_8  and  O_9
REMARK    3  A    between atoms: C_14  and  N_15
REMARK    4  A    between atoms: N_15  and  C_16
REMARK    5  A    between atoms: C_16  and  C_17
REMARK    6  A    between atoms: C_17  and  N_18
REMARK    7  A    between atoms: N_18  and  C_19
REMARK    8  A    between atoms: C_19  and  C_20
REMARK    9  A    between atoms: C_20  and  O_21
REMARK   10  A    between atoms: C_24  and  N_25
REMARK   11  A    between atoms: N_25  and  C_26
REMARK   12  A    between atoms: C_26  and  C_27
REMARK   13  A    between atoms: C_27  and  N_28
REMARK   14  A    between atoms: N_28  and  C_29
REMARK   15  A    between atoms: C_29  and  O_30
REMARK                            x       y       z     vdW  Elec       q    Type
REMARK                         _______ _______ _______ _____ _____    ______ ____
ROOT
ATOM      1  O   UNL     1       2.645   8.527  16.811  0.00  0.00    +0.000 OA
ATOM      2  C   UNL     1       2.628   8.241  18.005  0.00  0.00    +0.000 C 
ATOM      3  C   UNL     1       1.882   9.154  18.874  0.00  0.00    +0.000 A 
ATOM      4  C   UNL     1       1.630  10.472  18.454  0.00  0.00    +0.000 A 
ATOM      5  C   UNL     1       0.836  11.322  19.212  0.00  0.00    +0.000 A 
ATOM      6  C   UNL     1       0.277  10.855  20.396  0.00  0.00    +0.000 A 
ATOM      7  C   UNL     1       0.542   9.550  20.828  0.00  0.00    +0.000 A 
ATOM      8  C   UNL     1       1.355   8.685  20.071  0.00  0.00    +0.000 A 
ATOM      9  C   UNL     1       1.636   7.279  20.466  0.00  0.00    +0.000 C 
ATOM     10  O   UNL     1       1.014   6.774  21.393  0.00  0.00    +0.000 OA
ATOM     11  C   UNL     1       2.676   6.484  19.736  0.00  0.00    +0.000 A 
ATOM     12  C   UNL     1       3.093   5.224  20.240  0.00  0.00    +0.000 A 
ATOM     13  C   UNL     1       4.032   4.506  19.494  0.00  0.00    +0.000 A 
ATOM     14  C   UNL     1       4.600   5.037  18.337  0.00  0.00    +0.000 A 
ATOM     15  C   UNL     1       4.262   6.311  17.856  0.00  0.00    +0.000 A 
ATOM     16  C   UNL     1       3.244   7.010  18.548  0.00  0.00    +0.000 A 
ENDROOT
BRANCH   4  17
ATOM     17  O   UNL     1       2.131  10.994  17.290  0.00  0.00    +0.000 OA
ATOM     18  H   UNL     1       2.971  11.457  17.514  0.00  0.00    +0.000 HD
ENDBRANCH   4  17
BRANCH   7  19
ATOM     19  O   UNL     1      -0.007   9.146  22.012  0.00  0.00    +0.000 OA
ATOM     20  H   UNL     1       0.008   8.178  22.079  0.00  0.00    +0.000 HD
ENDBRANCH   7  19
BRANCH  12  21
ATOM     21  N   UNL     1       2.561   4.657  21.400  0.00  0.00    +0.000 N 
ATOM     22  H   UNL     1       2.804   5.151  22.272  0.00  0.00    +0.000 HD
BRANCH  21  23
ATOM     23  C   UNL     1       2.404   3.211  21.549  0.00  0.00    +0.000 C 
BRANCH  23  24
ATOM     24  C   UNL     1       0.962   2.761  21.221  0.00  0.00    +0.000 C 
BRANCH  24  25
ATOM     25  N   UNL     1       0.599   3.028  19.821  0.00  0.00    +0.000 NA
ATOM     26  H   UNL     1       0.878   3.980  19.591  0.00  0.00    +0.000 HD
BRANCH  25  27
ATOM     27  C   UNL     1       1.272   2.090  18.913  0.00  0.00    +0.000 C 
BRANCH  27  28
ATOM     28  C   UNL     1       1.817   2.823  17.683  0.00  0.00    +0.000 C 
BRANCH  28  29
ATOM     29  O   UNL     1       1.121   4.053  17.486  0.00  0.00    +0.000 OA
ATOM     30  H   UNL     1       1.596   4.503  16.765  0.00  0.00    +0.000 HD
ENDBRANCH  28  29
ENDBRANCH  27  28
ENDBRANCH  25  27
ENDBRANCH  24  25
ENDBRANCH  23  24
ENDBRANCH  21  23
ENDBRANCH  12  21
BRANCH  15  31
ATOM     31  N   UNL     1       5.051   6.747  16.797  0.00  0.00    +0.000 N 
ATOM     32  H   UNL     1       5.664   7.533  17.005  0.00  0.00    +0.000 HD
BRANCH  31  33
ATOM     33  C   UNL     1       5.511   5.929  15.684  0.00  0.00    +0.000 C 
BRANCH  33  34
ATOM     34  C   UNL     1       7.053   5.855  15.653  0.00  0.00    +0.000 C 
BRANCH  34  35
ATOM     35  N   UNL     1       7.561   4.539  16.084  0.00  0.00    +0.000 NA
ATOM     36  H   UNL     1       8.494   4.402  15.692  0.00  0.00    +0.000 HD
BRANCH  35  37
ATOM     37  C   UNL     1       7.693   4.501  17.521  0.00  0.00    +0.000 C 
BRANCH  37  38
ATOM     38  O   UNL     1       7.900   5.824  17.948  0.00  0.00    +0.000 OA
ATOM     39  H   UNL     1       8.545   5.729  18.669  0.00  0.00    +0.000 HD
ENDBRANCH  37  38
ENDBRANCH  35  37
ENDBRANCH  34  35
ENDBRANCH  33  34
ENDBRANCH  31  33
ENDBRANCH  15  31
TORSDOF 15
ENDMDL
MODEL 5
REMARK VINA RESULT:      -6.4      1.705      2.420
REMARK  Name = 
REMARK  15 active torsions:
REMARK  status: ('A' for Active; 'I' for Inactive)
REMARK    1  A    between atoms: C_4  and  O_5
REMARK    2  A    between atoms: C_8  and  O_9
REMARK    3  A    between atoms: C_14  and  N_15
REMARK    4  A    between atoms: N_15  and  C_16
REMARK    5  A    between atoms: C_16  and  C_17
REMARK    6  A    between atoms: C_17  and  N_18
REMARK    7  A    between atoms: N_18  and  C_19
REMARK    8  A    between atoms: C_19  and  C_20
REMARK    9  A    between atoms: C_20  and  O_21
REMARK   10  A    between atoms: C_24  and  N_25
REMARK   11  A    between atoms: N_25  and  C_26
REMARK   12  A    between atoms: C_26  and  C_27
REMARK   13  A    between atoms: C_27  and  N_28
REMARK   14  A    between atoms: N_28  and  C_29
REMARK   15  A    between atoms: C_29  and  O_30
REMARK                            x       y       z     vdW  Elec       q    Type
REMARK                         _______ _______ _______ _____ _____    ______ ____
ROOT
ATOM      1  O   UNL     1       2.984   8.105  16.685  0.00  0.00    +0.000 OA
ATOM      2  C   UNL     1       2.946   7.816  17.878  0.00  0.00    +0.000 C 
ATOM      3  C   UNL     1       2.106   8.671  18.720  0.00  0.00    +0.000 A 
ATOM      4  C   UNL     1       1.774   9.968  18.290  0.00  0.00    +0.000 A 
ATOM      5  C   UNL     1       0.894  10.757  19.019  0.00  0.00    +0.000 A 
ATOM      6  C   UNL     1       0.330  10.248  20.183  0.00  0.00    +0.000 A 
ATOM      7  C   UNL     1       0.674   8.966  20.625  0.00  0.00    +0.000 A 
ATOM      8  C   UNL     1       1.572   8.163  19.898  0.00  0.00    +0.000 A 
ATOM      9  C   UNL     1       1.941   6.780  20.304  0.00  0.00    +0.000 C 
ATOM     10  O   UNL     1       1.326   6.231  21.209  0.00  0.00    +0.000 OA
ATOM     11  C   UNL     1       3.061   6.064  19.611  0.00  0.00    +0.000 A 
ATOM     12  C   UNL     1       3.550   4.837  20.130  0.00  0.00    +0.000 A 
ATOM     13  C   UNL     1       4.564   4.191  19.418  0.00  0.00    +0.000 A 
ATOM     14  C   UNL     1       5.133   4.763  18.281  0.00  0.00    +0.000 A 
ATOM     15  C   UNL     1       4.720   6.010  17.787  0.00  0.00    +0.000 A 
ATOM     16  C   UNL     1       3.631   6.632  18.444  0.00  0.00    +0.000 A 
ENDROOT
BRANCH   4  17
ATOM     17  O   UNL     1       2.275  10.526  17.144  0.00  0.00    +0.000 OA
ATOM     18  H   UNL     1       2.735   9.812  16.647  0.00  0.00    +0.000 HD
ENDBRANCH   4  17
BRANCH   7  19
ATOM     19  O   UNL     1       0.114   8.521  21.789  0.00  0.00    +0.000 OA
ATOM     20  H   UNL     1      -0.791   8.208  21.633  0.00  0.00    +0.000 HD
ENDBRANCH   7  19
BRANCH  12  21
ATOM     21  N   UNL     1       3.021   4.231  21.271  0.00  0.00    +0.000 N 
ATOM     22  H   UNL     1       3.394   4.590  22.163  0.00  0.00    +0.000 HD
BRANCH  21  23
ATOM     23  C   UNL     1       2.660   2.814  21.295  0.00  0.00    +0.000 C 
BRANCH  23  24
ATOM     24  C   UNL     1       1.127   2.619  21.324  0.00  0.00    +0.000 C 
BRANCH  24  25
ATOM     25  N   UNL     1       0.462   3.261  20.180  0.00  0.00    +0.000 NA
ATOM     26  H   UNL     1       0.737   4.242  20.155  0.00  0.00    +0.000 HD
BRANCH  25  27
ATOM     27  C   UNL     1       0.844   2.616  18.917  0.00  0.00    +0.000 C 
BRANCH  27  28
ATOM     28  C   UNL     1       1.217   3.665  17.865  0.00  0.00    +0.000 C 
BRANCH  28  29
ATOM     29  O   UNL     1       2.216   3.155  16.983  0.00  0.00    +0.000 OA
ATOM     30  H   UNL     1       1.737   2.894  16.177  0.00  0.00    +0.000 HD
ENDBRANCH  28  29
ENDBRANCH  27  28
ENDBRANCH  25  27
ENDBRANCH  24  25
ENDBRANCH  23  24
ENDBRANCH  21  23
ENDBRANCH  12  21
BRANCH  15  31
ATOM     31  N   UNL     1       5.511   6.503  16.756  0.00  0.00    +0.000 N 
ATOM     32  H   UNL     1       5.927   7.418  16.926  0.00  0.00    +0.000 HD
BRANCH  31  33
ATOM     33  C   UNL     1       6.242   5.703  15.785  0.00  0.00    +0.000 C 
BRANCH  33  34
ATOM     34  C   UNL     1       5.420   4.469  15.355  0.00  0.00    +0.000 C 
BRANCH  34  35
ATOM     35  N   UNL     1       5.314   4.348  13.888  0.00  0.00    +0.000 NA
ATOM     36  H   UNL     1       5.130   5.271  13.494  0.00  0.00    +0.000 HD
BRANCH  35  37
ATOM     37  C   UNL     1       6.565   3.888  13.334  0.00  0.00    +0.000 C 
BRANCH  37  38
ATOM     38  O   UNL     1       6.257   2.850  12.437  0.00  0.00    +0.000 OA
ATOM     39  H   UNL     1       6.384   2.047  12.969  0.00  0.00    +0.000 HD
ENDBRANCH  37  38
ENDBRANCH  35  37
ENDBRANCH  34  35
ENDBRANCH  33  34
ENDBRANCH  31  33
ENDBRANCH  15  31
TORSDOF 15
ENDMDL
MODEL 6
REMARK VINA RESULT:      -6.4      1.029      1.166
REMARK  Name = 
REMARK  15 active torsions:
REMARK  status: ('A' for Active; 'I' for Inactive)
REMARK    1  A    between atoms: C_4  and  O_5
REMARK    2  A    between atoms: C_8  and  O_9
REMARK    3  A    between atoms: C_14  and  N_15
REMARK    4  A    between atoms: N_15  and  C_16
REMARK    5  A    between atoms: C_16  and  C_17
REMARK    6  A    between atoms: C_17  and  N_18
REMARK    7  A    between atoms: N_18  and  C_19
REMARK    8  A    between atoms: C_19  and  C_20
REMARK    9  A    between atoms: C_20  and  O_21
REMARK   10  A    between atoms: C_24  and  N_25
REMARK   11  A    between atoms: N_25  and  C_26
REMARK   12  A    between atoms: C_26  and  C_27
REMARK   13  A    between atoms: C_27  and  N_28
REMARK   14  A    between atoms: N_28  and  C_29
REMARK   15  A    between atoms: C_29  and  O_30
REMARK                            x       y       z     vdW  Elec       q    Type
REMARK                         _______ _______ _______ _____ _____    ______ ____
ROOT
ATOM      1  O   UNL     1       3.043   8.174  16.684  0.00  0.00    +0.000 OA
ATOM      2  C   UNL     1       2.997   7.858  17.869  0.00  0.00    +0.000 C 
ATOM      3  C   UNL     1       2.133   8.681  18.720  0.00  0.00    +0.000 A 
ATOM      4  C   UNL     1       1.785   9.982  18.316  0.00  0.00    +0.000 A 
ATOM      5  C   UNL     1       0.884  10.740  19.052  0.00  0.00    +0.000 A 
ATOM      6  C   UNL     1       0.315  10.196  20.197  0.00  0.00    +0.000 A 
ATOM      7  C   UNL     1       0.675   8.909  20.614  0.00  0.00    +0.000 A 
ATOM      8  C   UNL     1       1.595   8.137  19.880  0.00  0.00    +0.000 A 
ATOM      9  C   UNL     1       1.981   6.752  20.259  0.00  0.00    +0.000 C 
ATOM     10  O   UNL     1       1.364   6.172  21.144  0.00  0.00    +0.000 OA
ATOM     11  C   UNL     1       3.120   6.070  19.563  0.00  0.00    +0.000 A 
ATOM     12  C   UNL     1       3.623   4.839  20.061  0.00  0.00    +0.000 A 
ATOM     13  C   UNL     1       4.656   4.225  19.347  0.00  0.00    +0.000 A 
ATOM     14  C   UNL     1       5.227   4.832  18.230  0.00  0.00    +0.000 A 
ATOM     15  C   UNL     1       4.800   6.083  17.759  0.00  0.00    +0.000 A 
ATOM     16  C   UNL     1       3.694   6.673  18.416  0.00  0.00    +0.000 A 
ENDROOT
BRANCH   4  17
ATOM     17  O   UNL     1       2.291  10.574  17.188  0.00  0.00    +0.000 OA
ATOM     18  H   UNL     1       2.109  11.539  17.257  0.00  0.00    +0.000 HD
ENDBRANCH   4  17
BRANCH   7  19
ATOM     19  O   UNL     1       0.109   8.429  21.762  0.00  0.00    +0.000 OA
ATOM     20  H   UNL     1       0.751   8.445  22.489  0.00  0.00    +0.000 HD
ENDBRANCH   7  19
BRANCH  12  21
ATOM     21  N   UNL     1       3.090   4.199  21.182  0.00  0.00    +0.000 N 
ATOM     22  H   UNL     1       3.507   4.485  22.080  0.00  0.00    +0.000 HD
BRANCH  21  23
ATOM     23  C   UNL     1       2.649   2.805  21.137  0.00  0.00    +0.000 C 
BRANCH  23  24
ATOM     24  C   UNL     1       1.108   2.698  21.154  0.00  0.00    +0.000 C 
BRANCH  24  25
ATOM     25  N   UNL     1       0.500   3.192  19.910  0.00  0.00    +0.000 NA
ATOM     26  H   UNL     1       0.818   4.146  19.751  0.00  0.00    +0.000 HD
BRANCH  25  27
ATOM     27  C   UNL     1       0.883   2.353  18.766  0.00  0.00    +0.000 C 
BRANCH  27  28
ATOM     28  C   UNL     1       1.752   3.145  17.782  0.00  0.00    +0.000 C 
BRANCH  28  29
ATOM     29  O   UNL     1       1.034   4.268  17.274  0.00  0.00    +0.000 OA
ATOM     30  H   UNL     1       0.122   4.156  17.596  0.00  0.00    +0.000 HD
ENDBRANCH  28  29
ENDBRANCH  27  28
ENDBRANCH  25  27
ENDBRANCH  24  25
ENDBRANCH  23  24
ENDBRANCH  21  23
ENDBRANCH  12  21
BRANCH  15  31
ATOM     31  N   UNL     1       5.596   6.612  16.749  0.00  0.00    +0.000 N 
ATOM     32  H   UNL     1       5.116   7.227  16.094  0.00  0.00    +0.000 HD
BRANCH  31  33
ATOM     33  C   UNL     1       7.028   6.854  16.830  0.00  0.00    +0.000 C 
BRANCH  33  34
ATOM     34  C   UNL     1       7.545   6.635  18.269  0.00  0.00    +0.000 C 
BRANCH  34  35
ATOM     35  N   UNL     1       8.407   7.740  18.732  0.00  0.00    +0.000 NA
ATOM     36  H   UNL     1       9.383   7.484  18.574  0.00  0.00    +0.000 HD
BRANCH  35  37
ATOM     37  C   UNL     1       8.147   8.932  17.961  0.00  0.00    +0.000 C 
BRANCH  37  38
ATOM     38  O   UNL     1       9.039   9.917  18.418  0.00  0.00    +0.000 OA
ATOM     39  H   UNL     1       8.745  10.720  17.956  0.00  0.00    +0.000 HD
ENDBRANCH  37  38
ENDBRANCH  35  37
ENDBRANCH  34  35
ENDBRANCH  33  34
ENDBRANCH  31  33
ENDBRANCH  15  31
TORSDOF 15
ENDMDL
MODEL 7
REMARK VINA RESULT:      -6.4      1.429      1.587
REMARK  Name = 
REMARK  15 active torsions:
REMARK  status: ('A' for Active; 'I' for Inactive)
REMARK    1  A    between atoms: C_4  and  O_5
REMARK    2  A    between atoms: C_8  and  O_9
REMARK    3  A    between atoms: C_14  and  N_15
REMARK    4  A    between atoms: N_15  and  C_16
REMARK    5  A    between atoms: C_16  and  C_17
REMARK    6  A    between atoms: C_17  and  N_18
REMARK    7  A    between atoms: N_18  and  C_19
REMARK    8  A    between atoms: C_19  and  C_20
REMARK    9  A    between atoms: C_20  and  O_21
REMARK   10  A    between atoms: C_24  and  N_25
REMARK   11  A    between atoms: N_25  and  C_26
REMARK   12  A    between atoms: C_26  and  C_27
REMARK   13  A    between atoms: C_27  and  N_28
REMARK   14  A    between atoms: N_28  and  C_29
REMARK   15  A    between atoms: C_29  and  O_30
REMARK                            x       y       z     vdW  Elec       q    Type
REMARK                         _______ _______ _______ _____ _____    ______ ____
ROOT
ATOM      1  O   UNL     1       2.190   9.075  17.053  0.00  0.00    +0.000 OA
ATOM      2  C   UNL     1       2.224   8.698  18.221  0.00  0.00    +0.000 C 
ATOM      3  C   UNL     1       1.547   9.559  19.194  0.00  0.00    +0.000 A 
ATOM      4  C   UNL     1       1.313  10.912  18.889  0.00  0.00    +0.000 A 
ATOM      5  C   UNL     1       0.581  11.720  19.748  0.00  0.00    +0.000 A 
ATOM      6  C   UNL     1       0.067  11.177  20.920  0.00  0.00    +0.000 A 
ATOM      7  C   UNL     1       0.316   9.836  21.237  0.00  0.00    +0.000 A 
ATOM      8  C   UNL     1       1.065   9.012  20.378  0.00  0.00    +0.000 A 
ATOM      9  C   UNL     1       1.325   7.574  20.649  0.00  0.00    +0.000 C 
ATOM     10  O   UNL     1       0.735   7.014  21.566  0.00  0.00    +0.000 OA
ATOM     11  C   UNL     1       2.305   6.812  19.809  0.00  0.00    +0.000 A 
ATOM     12  C   UNL     1       2.710   5.507  20.194  0.00  0.00    +0.000 A 
ATOM     13  C   UNL     1       3.591   4.826  19.349  0.00  0.00    +0.000 A 
ATOM     14  C   UNL     1       4.117   5.431  18.209  0.00  0.00    +0.000 A 
ATOM     15  C   UNL     1       3.793   6.746  17.843  0.00  0.00    +0.000 A 
ATOM     16  C   UNL     1       2.830   7.414  18.638  0.00  0.00    +0.000 A 
ENDROOT
BRANCH   4  17
ATOM     17  O   UNL     1       1.771  11.509  17.744  0.00  0.00    +0.000 OA
ATOM     18  H   UNL     1       1.455  12.442  17.754  0.00  0.00    +0.000 HD
ENDBRANCH   4  17
BRANCH   7  19
ATOM     19  O   UNL     1      -0.187   9.355  22.414  0.00  0.00    +0.000 OA
ATOM     20  H   UNL     1      -0.309  10.077  23.051  0.00  0.00    +0.000 HD
ENDBRANCH   7  19
BRANCH  12  21
ATOM     21  N   UNL     1       2.219   4.865  21.333  0.00  0.00    +0.000 N 
ATOM     22  H   UNL     1       2.771   5.025  22.189  0.00  0.00    +0.000 HD
BRANCH  21  23
ATOM     23  C   UNL     1       1.580   3.552  21.263  0.00  0.00    +0.000 C 
BRANCH  23  24
ATOM     24  C   UNL     1       0.842   3.352  19.919  0.00  0.00    +0.000 C 
BRANCH  24  25
ATOM     25  N   UNL     1       1.093   2.025  19.338  0.00  0.00    +0.000 NA
ATOM     26  H   UNL     1       0.203   1.627  19.044  0.00  0.00    +0.000 HD
BRANCH  25  27
ATOM     27  C   UNL     1       1.993   2.117  18.180  0.00  0.00    +0.000 C 
BRANCH  27  28
ATOM     28  C   UNL     1       3.349   1.477  18.495  0.00  0.00    +0.000 C 
BRANCH  28  29
ATOM     29  O   UNL     1       4.354   1.976  17.614  0.00  0.00    +0.000 OA
ATOM     30  H   UNL     1       5.195   1.639  17.969  0.00  0.00    +0.000 HD
ENDBRANCH  28  29
ENDBRANCH  27  28
ENDBRANCH  25  27
ENDBRANCH  24  25
ENDBRANCH  23  24
ENDBRANCH  21  23
ENDBRANCH  12  21
BRANCH  15  31
ATOM     31  N   UNL     1       4.541   7.242  16.782  0.00  0.00    +0.000 N 
ATOM     32  H   UNL     1       4.204   8.116  16.383  0.00  0.00    +0.000 HD
BRANCH  31  33
ATOM     33  C   UNL     1       5.960   7.009  16.557  0.00  0.00    +0.000 C 
BRANCH  33  34
ATOM     34  C   UNL     1       6.183   5.735  15.713  0.00  0.00    +0.000 C 
BRANCH  34  35
ATOM     35  N   UNL     1       7.409   5.012  16.100  0.00  0.00    +0.000 NA
ATOM     36  H   UNL     1       8.214   5.622  15.946  0.00  0.00    +0.000 HD
BRANCH  35  37
ATOM     37  C   UNL     1       7.378   4.694  17.508  0.00  0.00    +0.000 C 
BRANCH  37  38
ATOM     38  O   UNL     1       8.526   3.929  17.779  0.00  0.00    +0.000 OA
ATOM     39  H   UNL     1       8.194   3.016  17.773  0.00  0.00    +0.000 HD
ENDBRANCH  37  38
ENDBRANCH  35  37
ENDBRANCH  34  35
ENDBRANCH  33  34
ENDBRANCH  31  33
ENDBRANCH  15  31
TORSDOF 15
ENDMDL
MODEL 8
REMARK VINA RESULT:      -6.3      2.802      6.135
REMARK  Name = 
REMARK  15 active torsions:
REMARK  status: ('A' for Active; 'I' for Inactive)
REMARK    1  A    between atoms: C_4  and  O_5
REMARK    2  A    between atoms: C_8  and  O_9
REMARK    3  A    between atoms: C_14  and  N_15
REMARK    4  A    between atoms: N_15  and  C_16
REMARK    5  A    between atoms: C_16  and  C_17
REMARK    6  A    between atoms: C_17  and  N_18
REMARK    7  A    between atoms: N_18  and  C_19
REMARK    8  A    between atoms: C_19  and  C_20
REMARK    9  A    between atoms: C_20  and  O_21
REMARK   10  A    between atoms: C_24  and  N_25
REMARK   11  A    between atoms: N_25  and  C_26
REMARK   12  A    between atoms: C_26  and  C_27
REMARK   13  A    between atoms: C_27  and  N_28
REMARK   14  A    between atoms: N_28  and  C_29
REMARK   15  A    between atoms: C_29  and  O_30
REMARK                            x       y       z     vdW  Elec       q    Type
REMARK                         _______ _______ _______ _____ _____    ______ ____
ROOT
ATOM      1  O   UNL     1       6.117   3.907  19.206  0.00  0.00    +0.000 OA
ATOM      2  C   UNL     1       4.971   4.284  18.979  0.00  0.00    +0.000 C 
ATOM      3  C   UNL     1       3.914   3.637  19.761  0.00  0.00    +0.000 A 
ATOM      4  C   UNL     1       4.147   2.381  20.350  0.00  0.00    +0.000 A 
ATOM      5  C   UNL     1       3.202   1.798  21.182  0.00  0.00    +0.000 A 
ATOM      6  C   UNL     1       2.014   2.474  21.441  0.00  0.00    +0.000 A 
ATOM      7  C   UNL     1       1.770   3.714  20.840  0.00  0.00    +0.000 A 
ATOM      8  C   UNL     1       2.718   4.309  19.987  0.00  0.00    +0.000 A 
ATOM      9  C   UNL     1       2.524   5.640  19.355  0.00  0.00    +0.000 C 
ATOM     10  O   UNL     1       1.586   6.346  19.705  0.00  0.00    +0.000 OA
ATOM     11  C   UNL     1       3.469   6.116  18.293  0.00  0.00    +0.000 A 
ATOM     12  C   UNL     1       3.168   7.285  17.545  0.00  0.00    +0.000 A 
ATOM     13  C   UNL     1       4.106   7.708  16.599  0.00  0.00    +0.000 A 
ATOM     14  C   UNL     1       5.261   6.971  16.341  0.00  0.00    +0.000 A 
ATOM     15  C   UNL     1       5.548   5.773  17.013  0.00  0.00    +0.000 A 
ATOM     16  C   UNL     1       4.654   5.382  18.038  0.00  0.00    +0.000 A 
ENDROOT
BRANCH   4  17
ATOM     17  O   UNL     1       5.301   1.668  20.156  0.00  0.00    +0.000 OA
ATOM     18  H   UNL     1       5.281   0.904  20.776  0.00  0.00    +0.000 HD
ENDBRANCH   4  17
BRANCH   7  19
ATOM     19  O   UNL     1       0.577   4.326  21.103  0.00  0.00    +0.000 OA
ATOM     20  H   UNL     1       0.306   4.877  20.352  0.00  0.00    +0.000 HD
ENDBRANCH   7  19
BRANCH  12  21
ATOM     21  N   UNL     1       2.019   8.049  17.760  0.00  0.00    +0.000 N 
ATOM     22  H   UNL     1       1.165   7.678  17.317  0.00  0.00    +0.000 HD
BRANCH  21  23
ATOM     23  C   UNL     1       2.069   9.508  17.846  0.00  0.00    +0.000 C 
BRANCH  23  24
ATOM     24  C   UNL     1       1.802  10.000  19.287  0.00  0.00    +0.000 C 
BRANCH  24  25
ATOM     25  N   UNL     1       0.679   9.291  19.919  0.00  0.00    +0.000 NA
ATOM     26  H   UNL     1       0.572   8.386  19.465  0.00  0.00    +0.000 HD
BRANCH  25  27
ATOM     27  C   UNL     1       0.921   9.092  21.354  0.00  0.00    +0.000 C 
BRANCH  27  28
ATOM     28  C   UNL     1      -0.250   9.633  22.181  0.00  0.00    +0.000 C 
BRANCH  28  29
ATOM     29  O   UNL     1       0.175   9.942  23.507  0.00  0.00    +0.000 OA
ATOM     30  H   UNL     1      -0.644  10.016  24.028  0.00  0.00    +0.000 HD
ENDBRANCH  28  29
ENDBRANCH  27  28
ENDBRANCH  25  27
ENDBRANCH  24  25
ENDBRANCH  23  24
ENDBRANCH  21  23
ENDBRANCH  12  21
BRANCH  15  31
ATOM     31  N   UNL     1       6.645   5.086  16.506  0.00  0.00    +0.000 N 
ATOM     32  H   UNL     1       6.968   4.303  17.072  0.00  0.00    +0.000 HD
BRANCH  31  33
ATOM     33  C   UNL     1       7.009   4.977  15.101  0.00  0.00    +0.000 C 
BRANCH  33  34
ATOM     34  C   UNL     1       6.117   3.945  14.378  0.00  0.00    +0.000 C 
BRANCH  34  35
ATOM     35  N   UNL     1       6.623   3.608  13.034  0.00  0.00    +0.000 NA
ATOM     36  H   UNL     1       7.289   2.838  13.116  0.00  0.00    +0.000 HD
BRANCH  35  37
ATOM     37  C   UNL     1       5.542   3.151  12.193  0.00  0.00    +0.000 C 
BRANCH  37  38
ATOM     38  O   UNL     1       5.886   1.862  11.750  0.00  0.00    +0.000 OA
ATOM     39  H   UNL     1       6.692   1.659  12.253  0.00  0.00    +0.000 HD
ENDBRANCH  37  38
ENDBRANCH  35  37
ENDBRANCH  34  35
ENDBRANCH  33  34
ENDBRANCH  31  33
ENDBRANCH  15  31
TORSDOF 15
ENDMDL
MODEL 9
REMARK VINA RESULT:      -6.3      3.052      6.162
REMARK  Name = 
REMARK  15 active torsions:
REMARK  status: ('A' for Active; 'I' for Inactive)
REMARK    1  A    between atoms: C_4  and  O_5
REMARK    2  A    between atoms: C_8  and  O_9
REMARK    3  A    between atoms: C_14  and  N_15
REMARK    4  A    between atoms: N_15  and  C_16
REMARK    5  A    between atoms: C_16  and  C_17
REMARK    6  A    between atoms: C_17  and  N_18
REMARK    7  A    between atoms: N_18  and  C_19
REMARK    8  A    between atoms: C_19  and  C_20
REMARK    9  A    between atoms: C_20  and  O_21
REMARK   10  A    between atoms: C_24  and  N_25
REMARK   11  A    between atoms: N_25  and  C_26
REMARK   12  A    between atoms: C_26  and  C_27
REMARK   13  A    between atoms: C_27  and  N_28
REMARK   14  A    between atoms: N_28  and  C_29
REMARK   15  A    between atoms: C_29  and  O_30
REMARK                            x       y       z     vdW  Elec       q    Type
REMARK                         _______ _______ _______ _____ _____    ______ ____
ROOT
ATOM      1  O   UNL     1       6.119   4.077  19.410  0.00  0.00    +0.000 OA
ATOM      2  C   UNL     1       4.992   4.440  19.084  0.00  0.00    +0.000 C 
ATOM      3  C   UNL     1       3.879   3.752  19.743  0.00  0.00    +0.000 A 
ATOM      4  C   UNL     1       4.080   2.484  20.315  0.00  0.00    +0.000 A 
ATOM      5  C   UNL     1       3.071   1.859  21.036  0.00  0.00    +0.000 A 
ATOM      6  C   UNL     1       1.851   2.506  21.198  0.00  0.00    +0.000 A 
ATOM      7  C   UNL     1       1.640   3.759  20.612  0.00  0.00    +0.000 A 
ATOM      8  C   UNL     1       2.654   4.396  19.871  0.00  0.00    +0.000 A 
ATOM      9  C   UNL     1       2.494   5.742  19.262  0.00  0.00    +0.000 C 
ATOM     10  O   UNL     1       1.512   6.420  19.540  0.00  0.00    +0.000 OA
ATOM     11  C   UNL     1       3.526   6.267  18.310  0.00  0.00    +0.000 A 
ATOM     12  C   UNL     1       3.275   7.452  17.569  0.00  0.00    +0.000 A 
ATOM     13  C   UNL     1       4.290   7.919  16.730  0.00  0.00    +0.000 A 
ATOM     14  C   UNL     1       5.479   7.211  16.564  0.00  0.00    +0.000 A 
ATOM     15  C   UNL     1       5.724   5.998  17.226  0.00  0.00    +0.000 A 
ATOM     16  C   UNL     1       4.745   5.561  18.149  0.00  0.00    +0.000 A 
ENDROOT
BRANCH   4  17
ATOM     17  O   UNL     1       5.261   1.797  20.213  0.00  0.00    +0.000 OA
ATOM     18  H   UNL     1       5.527   1.810  19.265  0.00  0.00    +0.000 HD
ENDBRANCH   4  17
BRANCH   7  19
ATOM     19  O   UNL     1       0.416   4.342  20.776  0.00  0.00    +0.000 OA
ATOM     20  H   UNL     1      -0.291   3.695  20.624  0.00  0.00    +0.000 HD
ENDBRANCH   7  19
BRANCH  12  21
ATOM     21  N   UNL     1       2.095   8.189  17.694  0.00  0.00    +0.000 N 
ATOM     22  H   UNL     1       1.351   7.927  17.031  0.00  0.00    +0.000 HD
BRANCH  21  23
ATOM     23  C   UNL     1       2.106   9.604  18.061  0.00  0.00    +0.000 C 
BRANCH  23  24
ATOM     24  C   UNL     1       0.795  10.017  18.768  0.00  0.00    +0.000 C 
BRANCH  24  25
ATOM     25  N   UNL     1      -0.214  10.517  17.823  0.00  0.00    +0.000 NA
ATOM     26  H   UNL     1      -0.492   9.751  17.211  0.00  0.00    +0.000 HD
BRANCH  25  27
ATOM     27  C   UNL     1      -1.395  11.027  18.532  0.00  0.00    +0.000 C 
BRANCH  27  28
ATOM     28  C   UNL     1      -2.650  10.886  17.665  0.00  0.00    +0.000 C 
BRANCH  28  29
ATOM     29  O   UNL     1      -3.126   9.541  17.689  0.00  0.00    +0.000 OA
ATOM     30  H   UNL     1      -3.930   9.563  18.237  0.00  0.00    +0.000 HD
ENDBRANCH  28  29
ENDBRANCH  27  28
ENDBRANCH  25  27
ENDBRANCH  24  25
ENDBRANCH  23  24
ENDBRANCH  21  23
ENDBRANCH  12  21
BRANCH  15  31
ATOM     31  N   UNL     1       6.879   5.346  16.808  0.00  0.00    +0.000 N 
ATOM     32  H   UNL     1       7.675   5.423  17.439  0.00  0.00    +0.000 HD
BRANCH  31  33
ATOM     33  C   UNL     1       6.932   4.176  15.944  0.00  0.00    +0.000 C 
BRANCH  33  34
ATOM     34  C   UNL     1       6.783   4.578  14.460  0.00  0.00    +0.000 C 
BRANCH  34  35
ATOM     35  N   UNL     1       6.092   3.546  13.665  0.00  0.00    +0.000 NA
ATOM     36  H   UNL     1       5.089   3.738  13.677  0.00  0.00    +0.000 HD
BRANCH  35  37
ATOM     37  C   UNL     1       6.522   3.605  12.288  0.00  0.00    +0.000 C 
BRANCH  37  38
ATOM     38  O   UNL     1       6.783   2.284  11.884  0.00  0.00    +0.000 OA
ATOM     39  H   UNL     1       5.983   2.036  11.393  0.00  0.00    +0.000 HD
ENDBRANCH  37  38
ENDBRANCH  35  37
ENDBRANCH  34  35
ENDBRANCH  33  34
ENDBRANCH  31  33
ENDBRANCH  15  31
TORSDOF 15
ENDMDL
