MODEL 1
REMARK VINA RESULT:      -7.2      0.000      0.000
REMARK  Name = 
REMARK  5 active torsions:
REMARK  status: ('A' for Active; 'I' for Inactive)
REMARK    1  A    between atoms: C_2  and  C_3
REMARK    2  A    between atoms: C_3  and  S_4
REMARK    3  A    between atoms: S_4  and  C_5
REMARK    4  A    between atoms: C_8  and  C_9
REMARK    5  A    between atoms: N_10  and  N_11
REMARK                            x       y       z     vdW  Elec       q    Type
REMARK                         _______ _______ _______ _____ _____    ______ ____
ROOT
ATOM      1  N   UNL     1       3.136   6.102  18.836  0.00  0.00    +0.000 N 
ATOM      2  C   UNL     1       3.260   7.127  17.934  0.00  0.00    +0.000 C 
ATOM      3  O   UNL     1       3.932   7.226  16.931  0.00  0.00    +0.000 OA
ATOM      4  C   UNL     1       2.392   8.196  18.433  0.00  0.00    +0.000 A 
ATOM      5  C   UNL     1       2.018   9.391  17.851  0.00  0.00    +0.000 A 
ATOM      6  C   UNL     1       1.184  10.229  18.598  0.00  0.00    +0.000 A 
ATOM      7  C   UNL     1       0.764   9.866  19.895  0.00  0.00    +0.000 A 
ATOM      8  C   UNL     1       1.128   8.634  20.447  0.00  0.00    +0.000 A 
ATOM      9  C   UNL     1       1.919   7.810  19.674  0.00  0.00    +0.000 A 
ATOM     10  C   UNL     1       2.359   6.437  19.906  0.00  0.00    +0.000 C 
ATOM     11  O   UNL     1       2.028   5.789  20.884  0.00  0.00    +0.000 OA
ENDROOT
BRANCH   1  17
ATOM     12  C   UNL     1       4.876   4.384  18.674  0.00  0.00    +0.000 A 
ATOM     13  N   UNL     1       4.909   3.121  18.316  0.00  0.00    +0.000 NA
ATOM     14  N   UNL     1       3.627   2.748  17.962  0.00  0.00    +0.000 NA
ATOM     15  C   UNL     1       2.826   3.790  18.109  0.00  0.00    +0.000 A 
ATOM     16  C   UNL     1       1.381   3.823  17.776  0.00  0.00    +0.000 C 
ATOM     17  N   UNL     1       3.578   4.843  18.589  0.00  0.00    +0.000 N 
BRANCH  12  18
ATOM     18  S   UNL     1       6.220   5.355  19.185  0.00  0.00    +0.000 S 
BRANCH  18  19
ATOM     19  C   UNL     1       7.098   5.757  17.652  0.00  0.00    +0.000 C 
BRANCH  19  21
ATOM     20  C   UNL     1       7.864   8.328  17.691  0.00  0.00    +0.000 C 
ATOM     21  C   UNL     1       7.536   7.170  17.659  0.00  0.00    +0.000 C 
ENDBRANCH  19  21
ENDBRANCH  18  19
ENDBRANCH  12  18
ENDBRANCH   1  17
TORSDOF 4
ENDMDL
MODEL 2
REMARK VINA RESULT:      -7.2      3.325      5.087
REMARK  Name = 
REMARK  5 active torsions:
REMARK  status: ('A' for Active; 'I' for Inactive)
REMARK    1  A    between atoms: C_2  and  C_3
REMARK    2  A    between atoms: C_3  and  S_4
REMARK    3  A    between atoms: S_4  and  C_5
REMARK    4  A    between atoms: C_8  and  C_9
REMARK    5  A    between atoms: N_10  and  N_11
REMARK                            x       y       z     vdW  Elec       q    Type
REMARK                         _______ _______ _______ _____ _____    ______ ____
ROOT
ATOM      1  N   UNL     1       4.794   4.321  18.267  0.00  0.00    +0.000 N 
ATOM      2  C   UNL     1       4.656   3.281  19.150  0.00  0.00    +0.000 C 
ATOM      3  O   UNL     1       5.386   2.347  19.400  0.00  0.00    +0.000 OA
ATOM      4  C   UNL     1       3.352   3.478  19.787  0.00  0.00    +0.000 A 
ATOM      5  C   UNL     1       2.766   2.823  20.852  0.00  0.00    +0.000 A 
ATOM      6  C   UNL     1       1.479   3.229  21.220  0.00  0.00    +0.000 A 
ATOM      7  C   UNL     1       0.812   4.252  20.514  0.00  0.00    +0.000 A 
ATOM      8  C   UNL     1       1.441   4.925  19.463  0.00  0.00    +0.000 A 
ATOM      9  C   UNL     1       2.725   4.531  19.146  0.00  0.00    +0.000 A 
ATOM     10  C   UNL     1       3.681   5.105  18.202  0.00  0.00    +0.000 C 
ATOM     11  O   UNL     1       3.447   6.103  17.543  0.00  0.00    +0.000 OA
ENDROOT
BRANCH   1  17
ATOM     12  C   UNL     1       6.355   4.373  16.378  0.00  0.00    +0.000 A 
ATOM     13  N   UNL     1       7.586   4.793  16.197  0.00  0.00    +0.000 NA
ATOM     14  N   UNL     1       8.037   5.312  17.394  0.00  0.00    +0.000 NA
ATOM     15  C   UNL     1       7.074   5.202  18.294  0.00  0.00    +0.000 A 
ATOM     16  C   UNL     1       7.177   5.587  19.722  0.00  0.00    +0.000 C 
ATOM     17  N   UNL     1       5.976   4.636  17.678  0.00  0.00    +0.000 N 
BRANCH  12  18
ATOM     18  S   UNL     1       5.332   3.612  15.201  0.00  0.00    +0.000 S 
BRANCH  18  19
ATOM     19  C   UNL     1       6.175   3.890  13.621  0.00  0.00    +0.000 C 
BRANCH  19  21
ATOM     20  C   UNL     1       4.561   3.210  11.587  0.00  0.00    +0.000 C 
ATOM     21  C   UNL     1       5.300   3.503  12.491  0.00  0.00    +0.000 C 
ENDBRANCH  19  21
ENDBRANCH  18  19
ENDBRANCH  12  18
ENDBRANCH   1  17
TORSDOF 4
ENDMDL
MODEL 3
REMARK VINA RESULT:      -7.0      1.669      3.638
REMARK  Name = 
REMARK  5 active torsions:
REMARK  status: ('A' for Active; 'I' for Inactive)
REMARK    1  A    between atoms: C_2  and  C_3
REMARK    2  A    between atoms: C_3  and  S_4
REMARK    3  A    between atoms: S_4  and  C_5
REMARK    4  A    between atoms: C_8  and  C_9
REMARK    5  A    between atoms: N_10  and  N_11
REMARK                            x       y       z     vdW  Elec       q    Type
REMARK                         _______ _______ _______ _____ _____    ______ ____
ROOT
ATOM      1  N   UNL     1       3.291   6.205  18.873  0.00  0.00    +0.000 N 
ATOM      2  C   UNL     1       3.347   7.193  17.925  0.00  0.00    +0.000 C 
ATOM      3  O   UNL     1       4.014   7.292  16.918  0.00  0.00    +0.000 OA
ATOM      4  C   UNL     1       2.405   8.221  18.373  0.00  0.00    +0.000 A 
ATOM      5  C   UNL     1       1.951   9.360  17.738  0.00  0.00    +0.000 A 
ATOM      6  C   UNL     1       1.058  10.171  18.445  0.00  0.00    +0.000 A 
ATOM      7  C   UNL     1       0.661   9.839  19.757  0.00  0.00    +0.000 A 
ATOM      8  C   UNL     1       1.107   8.662  20.365  0.00  0.00    +0.000 A 
ATOM      9  C   UNL     1       1.956   7.861  19.631  0.00  0.00    +0.000 A 
ATOM     10  C   UNL     1       2.489   6.533  19.926  0.00  0.00    +0.000 C 
ATOM     11  O   UNL     1       2.201   5.910  20.933  0.00  0.00    +0.000 OA
ENDROOT
BRANCH   1  17
ATOM     12  C   UNL     1       3.146   3.822  18.320  0.00  0.00    +0.000 A 
ATOM     13  N   UNL     1       3.995   2.820  18.280  0.00  0.00    +0.000 NA
ATOM     14  N   UNL     1       5.235   3.302  18.649  0.00  0.00    +0.000 NA
ATOM     15  C   UNL     1       5.128   4.594  18.910  0.00  0.00    +0.000 A 
ATOM     16  C   UNL     1       6.220   5.471  19.399  0.00  0.00    +0.000 C 
ATOM     17  N   UNL     1       3.820   4.969  18.684  0.00  0.00    +0.000 N 
BRANCH  12  18
ATOM     18  S   UNL     1       1.448   3.759  17.972  0.00  0.00    +0.000 S 
BRANCH  18  19
ATOM     19  C   UNL     1       0.827   2.391  18.987  0.00  0.00    +0.000 C 
BRANCH  19  21
ATOM     20  C   UNL     1       1.532   2.700  21.558  0.00  0.00    +0.000 C 
ATOM     21  C   UNL     1       1.210   2.581  20.404  0.00  0.00    +0.000 C 
ENDBRANCH  19  21
ENDBRANCH  18  19
ENDBRANCH  12  18
ENDBRANCH   1  17
TORSDOF 4
ENDMDL
MODEL 4
REMARK VINA RESULT:      -7.0      3.265      5.066
REMARK  Name = 
REMARK  5 active torsions:
REMARK  status: ('A' for Active; 'I' for Inactive)
REMARK    1  A    between atoms: C_2  and  C_3
REMARK    2  A    between atoms: C_3  and  S_4
REMARK    3  A    between atoms: S_4  and  C_5
REMARK    4  A    between atoms: C_8  and  C_9
REMARK    5  A    between atoms: N_10  and  N_11
REMARK                            x       y       z     vdW  Elec       q    Type
REMARK                         _______ _______ _______ _____ _____    ______ ____
ROOT
ATOM      1  N   UNL     1       3.657   4.678  17.888  0.00  0.00    +0.000 N 
ATOM      2  C   UNL     1       4.331   4.181  18.974  0.00  0.00    +0.000 C 
ATOM      3  O   UNL     1       5.510   4.187  19.249  0.00  0.00    +0.000 OA
ATOM      4  C   UNL     1       3.309   3.559  19.819  0.00  0.00    +0.000 A 
ATOM      5  C   UNL     1       3.395   3.037  21.094  0.00  0.00    +0.000 A 
ATOM      6  C   UNL     1       2.232   2.480  21.635  0.00  0.00    +0.000 A 
ATOM      7  C   UNL     1       1.033   2.442  20.892  0.00  0.00    +0.000 A 
ATOM      8  C   UNL     1       0.962   3.009  19.617  0.00  0.00    +0.000 A 
ATOM      9  C   UNL     1       2.114   3.586  19.123  0.00  0.00    +0.000 A 
ATOM     10  C   UNL     1       2.332   4.357  17.901  0.00  0.00    +0.000 C 
ATOM     11  O   UNL     1       1.440   4.627  17.117  0.00  0.00    +0.000 OA
ENDROOT
BRANCH   1  17
ATOM     12  C   UNL     1       5.088   5.256  15.984  0.00  0.00    +0.000 A 
ATOM     13  N   UNL     1       5.437   6.371  15.385  0.00  0.00    +0.000 NA
ATOM     14  N   UNL     1       4.814   7.416  16.039  0.00  0.00    +0.000 NA
ATOM     15  C   UNL     1       4.091   6.925  17.030  0.00  0.00    +0.000 A 
ATOM     16  C   UNL     1       3.315   7.721  18.012  0.00  0.00    +0.000 C 
ATOM     17  N   UNL     1       4.214   5.551  17.010  0.00  0.00    +0.000 N 
BRANCH  12  18
ATOM     18  S   UNL     1       5.608   3.652  15.579  0.00  0.00    +0.000 S 
BRANCH  18  19
ATOM     19  C   UNL     1       6.546   3.854  14.041  0.00  0.00    +0.000 C 
BRANCH  19  21
ATOM     20  C   UNL     1       5.006   3.260  11.925  0.00  0.00    +0.000 C 
ATOM     21  C   UNL     1       5.706   3.508  12.872  0.00  0.00    +0.000 C 
ENDBRANCH  19  21
ENDBRANCH  18  19
ENDBRANCH  12  18
ENDBRANCH   1  17
TORSDOF 4
ENDMDL
MODEL 5
REMARK VINA RESULT:      -6.9      2.536      3.814
REMARK  Name = 
REMARK  5 active torsions:
REMARK  status: ('A' for Active; 'I' for Inactive)
REMARK    1  A    between atoms: C_2  and  C_3
REMARK    2  A    between atoms: C_3  and  S_4
REMARK    3  A    between atoms: S_4  and  C_5
REMARK    4  A    between atoms: C_8  and  C_9
REMARK    5  A    between atoms: N_10  and  N_11
REMARK                            x       y       z     vdW  Elec       q    Type
REMARK                         _______ _______ _______ _____ _____    ______ ____
ROOT
ATOM      1  N   UNL     1       5.062   5.354  18.002  0.00  0.00    +0.000 N 
ATOM      2  C   UNL     1       4.028   6.239  18.170  0.00  0.00    +0.000 C 
ATOM      3  O   UNL     1       3.815   7.318  17.663  0.00  0.00    +0.000 OA
ATOM      4  C   UNL     1       3.151   5.632  19.174  0.00  0.00    +0.000 A 
ATOM      5  C   UNL     1       1.898   6.009  19.615  0.00  0.00    +0.000 A 
ATOM      6  C   UNL     1       1.314   5.228  20.619  0.00  0.00    +0.000 A 
ATOM      7  C   UNL     1       1.995   4.117  21.160  0.00  0.00    +0.000 A 
ATOM      8  C   UNL     1       3.247   3.735  20.671  0.00  0.00    +0.000 A 
ATOM      9  C   UNL     1       3.782   4.499  19.655  0.00  0.00    +0.000 A 
ATOM     10  C   UNL     1       4.990   4.295  18.858  0.00  0.00    +0.000 C 
ATOM     11  O   UNL     1       5.718   3.327  18.991  0.00  0.00    +0.000 OA
ENDROOT
BRANCH   1  17
ATOM     12  C   UNL     1       7.125   6.139  16.938  0.00  0.00    +0.000 A 
ATOM     13  N   UNL     1       7.672   6.003  15.752  0.00  0.00    +0.000 NA
ATOM     14  N   UNL     1       6.828   5.227  14.983  0.00  0.00    +0.000 NA
ATOM     15  C   UNL     1       5.775   4.897  15.710  0.00  0.00    +0.000 A 
ATOM     16  C   UNL     1       4.605   4.118  15.235  0.00  0.00    +0.000 C 
ATOM     17  N   UNL     1       5.940   5.433  16.971  0.00  0.00    +0.000 N 
BRANCH  12  18
ATOM     18  S   UNL     1       7.758   7.041  18.277  0.00  0.00    +0.000 S 
BRANCH  18  19
ATOM     19  C   UNL     1       7.867   8.744  17.666  0.00  0.00    +0.000 C 
BRANCH  19  21
ATOM     20  C   UNL     1       9.357  10.269  19.295  0.00  0.00    +0.000 C 
ATOM     21  C   UNL     1       8.700   9.568  18.570  0.00  0.00    +0.000 C 
ENDBRANCH  19  21
ENDBRANCH  18  19
ENDBRANCH  12  18
ENDBRANCH   1  17
TORSDOF 4
ENDMDL
MODEL 6
REMARK VINA RESULT:      -6.9      0.987      1.103
REMARK  Name = 
REMARK  5 active torsions:
REMARK  status: ('A' for Active; 'I' for Inactive)
REMARK    1  A    between atoms: C_2  and  C_3
REMARK    2  A    between atoms: C_3  and  S_4
REMARK    3  A    between atoms: S_4  and  C_5
REMARK    4  A    between atoms: C_8  and  C_9
REMARK    5  A    between atoms: N_10  and  N_11
REMARK                            x       y       z     vdW  Elec       q    Type
REMARK                         _______ _______ _______ _____ _____    ______ ____
ROOT
ATOM      1  N   UNL     1       3.124   6.009  18.898  0.00  0.00    +0.000 N 
ATOM      2  C   UNL     1       3.265   7.000  17.961  0.00  0.00    +0.000 C 
ATOM      3  O   UNL     1       3.938   7.053  16.955  0.00  0.00    +0.000 OA
ATOM      4  C   UNL     1       2.415   8.100  18.422  0.00  0.00    +0.000 A 
ATOM      5  C   UNL     1       2.061   9.280  17.800  0.00  0.00    +0.000 A 
ATOM      6  C   UNL     1       1.240  10.157  18.517  0.00  0.00    +0.000 A 
ATOM      7  C   UNL     1       0.816   9.845  19.826  0.00  0.00    +0.000 A 
ATOM      8  C   UNL     1       1.159   8.628  20.420  0.00  0.00    +0.000 A 
ATOM      9  C   UNL     1       1.937   7.765  19.676  0.00  0.00    +0.000 A 
ATOM     10  C   UNL     1       2.353   6.393  19.955  0.00  0.00    +0.000 C 
ATOM     11  O   UNL     1       2.013   5.785  20.955  0.00  0.00    +0.000 OA
ENDROOT
BRANCH   1  17
ATOM     12  C   UNL     1       4.843   4.270  18.737  0.00  0.00    +0.000 A 
ATOM     13  N   UNL     1       4.850   2.990  18.444  0.00  0.00    +0.000 NA
ATOM     14  N   UNL     1       3.550   2.610  18.174  0.00  0.00    +0.000 NA
ATOM     15  C   UNL     1       2.765   3.665  18.307  0.00  0.00    +0.000 A 
ATOM     16  C   UNL     1       1.305   3.694  18.047  0.00  0.00    +0.000 C 
ATOM     17  N   UNL     1       3.546   4.735  18.694  0.00  0.00    +0.000 N 
BRANCH  12  18
ATOM     18  S   UNL     1       6.218   5.254  19.129  0.00  0.00    +0.000 S 
BRANCH  18  19
ATOM     19  C   UNL     1       7.484   4.763  17.930  0.00  0.00    +0.000 C 
BRANCH  19  21
ATOM     20  C   UNL     1       6.571   5.087  15.427  0.00  0.00    +0.000 C 
ATOM     21  C   UNL     1       6.979   4.920  16.548  0.00  0.00    +0.000 C 
ENDBRANCH  19  21
ENDBRANCH  18  19
ENDBRANCH  12  18
ENDBRANCH   1  17
TORSDOF 4
ENDMDL
MODEL 7
REMARK VINA RESULT:      -6.9      2.743      5.204
REMARK  Name = 
REMARK  5 active torsions:
REMARK  status: ('A' for Active; 'I' for Inactive)
REMARK    1  A    between atoms: C_2  and  C_3
REMARK    2  A    between atoms: C_3  and  S_4
REMARK    3  A    between atoms: S_4  and  C_5
REMARK    4  A    between atoms: C_8  and  C_9
REMARK    5  A    between atoms: N_10  and  N_11
REMARK                            x       y       z     vdW  Elec       q    Type
REMARK                         _______ _______ _______ _____ _____    ______ ____
ROOT
ATOM      1  N   UNL     1       3.943   3.937  18.813  0.00  0.00    +0.000 N 
ATOM      2  C   UNL     1       5.141   4.601  18.859  0.00  0.00    +0.000 C 
ATOM      3  O   UNL     1       5.725   5.127  19.781  0.00  0.00    +0.000 OA
ATOM      4  C   UNL     1       5.643   4.601  17.483  0.00  0.00    +0.000 A 
ATOM      5  C   UNL     1       6.863   4.997  16.973  0.00  0.00    +0.000 A 
ATOM      6  C   UNL     1       7.038   4.898  15.589  0.00  0.00    +0.000 A 
ATOM      7  C   UNL     1       5.998   4.430  14.759  0.00  0.00    +0.000 A 
ATOM      8  C   UNL     1       4.784   4.002  15.302  0.00  0.00    +0.000 A 
ATOM      9  C   UNL     1       4.652   4.074  16.674  0.00  0.00    +0.000 A 
ATOM     10  C   UNL     1       3.579   3.598  17.544  0.00  0.00    +0.000 C 
ATOM     11  O   UNL     1       2.599   3.006  17.127  0.00  0.00    +0.000 OA
ENDROOT
BRANCH   1  17
ATOM     12  C   UNL     1       2.152   4.029  20.483  0.00  0.00    +0.000 A 
ATOM     13  N   UNL     1       1.861   3.362  21.577  0.00  0.00    +0.000 NA
ATOM     14  N   UNL     1       2.839   2.404  21.761  0.00  0.00    +0.000 NA
ATOM     15  C   UNL     1       3.716   2.498  20.776  0.00  0.00    +0.000 A 
ATOM     16  C   UNL     1       4.951   1.689  20.637  0.00  0.00    +0.000 C 
ATOM     17  N   UNL     1       3.298   3.502  19.925  0.00  0.00    +0.000 N 
BRANCH  12  18
ATOM     18  S   UNL     1       1.264   5.358  19.810  0.00  0.00    +0.000 S 
BRANCH  18  19
ATOM     19  C   UNL     1       2.366   6.785  20.004  0.00  0.00    +0.000 C 
BRANCH  19  21
ATOM     20  C   UNL     1       3.130   7.725  17.610  0.00  0.00    +0.000 C 
ATOM     21  C   UNL     1       2.801   7.287  18.682  0.00  0.00    +0.000 C 
ENDBRANCH  19  21
ENDBRANCH  18  19
ENDBRANCH  12  18
ENDBRANCH   1  17
TORSDOF 4
ENDMDL
MODEL 8
REMARK VINA RESULT:      -6.9      2.786      5.152
REMARK  Name = 
REMARK  5 active torsions:
REMARK  status: ('A' for Active; 'I' for Inactive)
REMARK    1  A    between atoms: C_2  and  C_3
REMARK    2  A    between atoms: C_3  and  S_4
REMARK    3  A    between atoms: S_4  and  C_5
REMARK    4  A    between atoms: C_8  and  C_9
REMARK    5  A    between atoms: N_10  and  N_11
REMARK                            x       y       z     vdW  Elec       q    Type
REMARK                         _______ _______ _______ _____ _____    ______ ____
ROOT
ATOM      1  N   UNL     1       4.324   3.492  18.834  0.00  0.00    +0.000 N 
ATOM      2  C   UNL     1       3.958   3.168  17.553  0.00  0.00    +0.000 C 
ATOM      3  O   UNL     1       3.084   2.440  17.136  0.00  0.00    +0.000 OA
ATOM      4  C   UNL     1       4.894   3.885  16.685  0.00  0.00    +0.000 A 
ATOM      5  C   UNL     1       4.903   4.043  15.313  0.00  0.00    +0.000 A 
ATOM      6  C   UNL     1       5.960   4.775  14.763  0.00  0.00    +0.000 A 
ATOM      7  C   UNL     1       6.976   5.309  15.583  0.00  0.00    +0.000 A 
ATOM      8  C   UNL     1       6.925   5.166  16.972  0.00  0.00    +0.000 A 
ATOM      9  C   UNL     1       5.851   4.472  17.492  0.00  0.00    +0.000 A 
ATOM     10  C   UNL     1       5.449   4.260  18.880  0.00  0.00    +0.000 C 
ATOM     11  O   UNL     1       6.053   4.734  19.827  0.00  0.00    +0.000 OA
ENDROOT
BRANCH   1  17
ATOM     12  C   UNL     1       2.368   3.875  20.260  0.00  0.00    +0.000 A 
ATOM     13  N   UNL     1       1.926   3.375  21.391  0.00  0.00    +0.000 NA
ATOM     14  N   UNL     1       2.828   2.417  21.812  0.00  0.00    +0.000 NA
ATOM     15  C   UNL     1       3.811   2.345  20.931  0.00  0.00    +0.000 A 
ATOM     16  C   UNL     1       5.012   1.481  21.043  0.00  0.00    +0.000 C 
ATOM     17  N   UNL     1       3.540   3.236  19.913  0.00  0.00    +0.000 N 
BRANCH  12  18
ATOM     18  S   UNL     1       1.627   5.130  19.319  0.00  0.00    +0.000 S 
BRANCH  18  19
ATOM     19  C   UNL     1       2.666   6.587  19.608  0.00  0.00    +0.000 C 
BRANCH  19  21
ATOM     20  C   UNL     1       3.727   7.417  17.288  0.00  0.00    +0.000 C 
ATOM     21  C   UNL     1       3.258   7.063  18.338  0.00  0.00    +0.000 C 
ENDBRANCH  19  21
ENDBRANCH  18  19
ENDBRANCH  12  18
ENDBRANCH   1  17
TORSDOF 4
ENDMDL
MODEL 9
REMARK VINA RESULT:      -6.9      2.485      5.483
REMARK  Name = 
REMARK  5 active torsions:
REMARK  status: ('A' for Active; 'I' for Inactive)
REMARK    1  A    between atoms: C_2  and  C_3
REMARK    2  A    between atoms: C_3  and  S_4
REMARK    3  A    between atoms: S_4  and  C_5
REMARK    4  A    between atoms: C_8  and  C_9
REMARK    5  A    between atoms: N_10  and  N_11
REMARK                            x       y       z     vdW  Elec       q    Type
REMARK                         _______ _______ _______ _____ _____    ______ ____
ROOT
ATOM      1  N   UNL     1       4.079   4.316  18.471  0.00  0.00    +0.000 N 
ATOM      2  C   UNL     1       3.683   3.985  17.200  0.00  0.00    +0.000 C 
ATOM      3  O   UNL     1       2.632   3.549  16.783  0.00  0.00    +0.000 OA
ATOM      4  C   UNL     1       4.846   4.239  16.348  0.00  0.00    +0.000 A 
ATOM      5  C   UNL     1       4.972   4.222  14.973  0.00  0.00    +0.000 A 
ATOM      6  C   UNL     1       6.240   4.486  14.445  0.00  0.00    +0.000 A 
ATOM      7  C   UNL     1       7.339   4.740  15.292  0.00  0.00    +0.000 A 
ATOM      8  C   UNL     1       7.178   4.788  16.680  0.00  0.00    +0.000 A 
ATOM      9  C   UNL     1       5.909   4.561  17.172  0.00  0.00    +0.000 A 
ATOM     10  C   UNL     1       5.396   4.662  18.536  0.00  0.00    +0.000 C 
ATOM     11  O   UNL     1       6.081   5.014  19.480  0.00  0.00    +0.000 OA
ENDROOT
BRANCH   1  17
ATOM     12  C   UNL     1       2.482   5.597  19.818  0.00  0.00    +0.000 A 
ATOM     13  N   UNL     1       1.783   5.366  20.905  0.00  0.00    +0.000 NA
ATOM     14  N   UNL     1       2.069   4.083  21.328  0.00  0.00    +0.000 NA
ATOM     15  C   UNL     1       2.941   3.546  20.492  0.00  0.00    +0.000 A 
ATOM     16  C   UNL     1       3.551   2.201  20.625  0.00  0.00    +0.000 C 
ATOM     17  N   UNL     1       3.206   4.467  19.500  0.00  0.00    +0.000 N 
BRANCH  12  18
ATOM     18  S   UNL     1       2.514   7.066  18.895  0.00  0.00    +0.000 S 
BRANCH  18  19
ATOM     19  C   UNL     1       1.750   8.300  19.981  0.00  0.00    +0.000 C 
BRANCH  19  21
ATOM     20  C   UNL     1       0.436  10.116  18.506  0.00  0.00    +0.000 C 
ATOM     21  C   UNL     1       1.025   9.315  19.184  0.00  0.00    +0.000 C 
ENDBRANCH  19  21
ENDBRANCH  18  19
ENDBRANCH  12  18
ENDBRANCH   1  17
TORSDOF 4
ENDMDL
