MODEL 1
REMARK VINA RESULT:      -7.6      0.000      0.000
REMARK  Name = 
REMARK  5 active torsions:
REMARK  status: ('A' for Active; 'I' for Inactive)
REMARK    1  A    between atoms: C_1  and  C_2
REMARK    2  A    between atoms: C_2  and  C_3
REMARK    3  A    between atoms: C_5  and  N_6
REMARK    4  A    between atoms: N_6  and  C_7
REMARK    5  A    between atoms: C_11  and  N_12
REMARK                            x       y       z     vdW  Elec       q    Type
REMARK                         _______ _______ _______ _____ _____    ______ ____
ROOT
ATOM      1  C   UNL     1       1.742   5.917  20.483  0.00  0.00    +0.000 A 
ATOM      2  C   UNL     1       1.103   4.709  20.205  0.00  0.00    +0.000 A 
ATOM      3  C   UNL     1       1.651   3.809  19.295  0.00  0.00    +0.000 A 
ATOM      4  C   UNL     1       2.825   4.134  18.614  0.00  0.00    +0.000 A 
ATOM      5  C   UNL     1       3.448   5.372  18.795  0.00  0.00    +0.000 A 
ATOM      6  C   UNL     1       2.877   6.252  19.731  0.00  0.00    +0.000 A 
ENDROOT
BRANCH   5   7
ATOM      7  N   UNL     1       4.619   5.706  18.138  0.00  0.00    +0.000 N 
ATOM      8  C   UNL     1       4.612   6.639  17.009  0.00  0.00    +0.000 C 
ATOM      9  C   UNL     1       5.300   5.972  15.842  0.00  0.00    +0.000 C 
ATOM     10  S   UNL     1       6.971   5.592  16.293  0.00  0.00    +0.000 S 
ATOM     11  O   UNL     1       7.501   4.688  15.297  0.00  0.00    +0.000 OA
ATOM     12  O   UNL     1       7.656   6.838  16.589  0.00  0.00    +0.000 OA
ATOM     13  C   UNL     1       6.794   4.677  17.812  0.00  0.00    +0.000 C 
ATOM     14  C   UNL     1       5.914   5.444  18.771  0.00  0.00    +0.000 C 
ENDBRANCH   5   7
BRANCH   1  15
ATOM     15  N   UNL     1       1.341   6.805  21.484  0.00  0.00    +0.000 N 
ATOM     16  H   UNL     1       1.830   6.662  22.364  0.00  0.00    +0.000 HD
BRANCH  15  21
ATOM     17  C   UNL     1      -0.653  10.789  20.472  0.00  0.00    +0.000 C 
ATOM     18  C   UNL     1      -0.242  10.109  21.781  0.00  0.00    +0.000 C 
ATOM     19  C   UNL     1      -1.083  10.638  22.939  0.00  0.00    +0.000 C 
ATOM     20  C   UNL     1      -0.341   8.593  21.677  0.00  0.00    +0.000 C 
ATOM     21  C   UNL     1       1.023   8.190  21.146  0.00  0.00    +0.000 C 
ATOM     22  C   UNL     1       1.902   9.191  21.895  0.00  0.00    +0.000 C 
ATOM     23  O   UNL     1       1.146  10.409  22.025  0.00  0.00    +0.000 OA
ENDBRANCH  15  21
ENDBRANCH   1  15
TORSDOF 3
ENDMDL
MODEL 2
REMARK VINA RESULT:      -7.6      4.136      8.114
REMARK  Name = 
REMARK  5 active torsions:
REMARK  status: ('A' for Active; 'I' for Inactive)
REMARK    1  A    between atoms: C_1  and  C_2
REMARK    2  A    between atoms: C_2  and  C_3
REMARK    3  A    between atoms: C_5  and  N_6
REMARK    4  A    between atoms: N_6  and  C_7
REMARK    5  A    between atoms: C_11  and  N_12
REMARK                            x       y       z     vdW  Elec       q    Type
REMARK                         _______ _______ _______ _____ _____    ______ ____
ROOT
ATOM      1  C   UNL     1       2.168   7.360  19.626  0.00  0.00    +0.000 A 
ATOM      2  C   UNL     1       2.233   7.680  18.270  0.00  0.00    +0.000 A 
ATOM      3  C   UNL     1       1.798   8.921  17.813  0.00  0.00    +0.000 A 
ATOM      4  C   UNL     1       1.247   9.840  18.706  0.00  0.00    +0.000 A 
ATOM      5  C   UNL     1       1.081   9.525  20.057  0.00  0.00    +0.000 A 
ATOM      6  C   UNL     1       1.542   8.269  20.489  0.00  0.00    +0.000 A 
ENDROOT
BRANCH   5   7
ATOM      7  N   UNL     1       0.547  10.428  20.960  0.00  0.00    +0.000 N 
ATOM      8  C   UNL     1       0.578  10.165  22.400  0.00  0.00    +0.000 C 
ATOM      9  C   UNL     1      -0.829  10.296  22.934  0.00  0.00    +0.000 C 
ATOM     10  S   UNL     1      -1.410  11.944  22.639  0.00  0.00    +0.000 S 
ATOM     11  O   UNL     1      -2.838  11.954  22.864  0.00  0.00    +0.000 OA
ATOM     12  O   UNL     1      -0.549  12.865  23.361  0.00  0.00    +0.000 OA
ATOM     13  C   UNL     1      -1.137  12.176  20.893  0.00  0.00    +0.000 C 
ATOM     14  C   UNL     1       0.287  11.809  20.546  0.00  0.00    +0.000 C 
ENDBRANCH   5   7
BRANCH   1  15
ATOM     15  N   UNL     1       2.714   6.203  20.185  0.00  0.00    +0.000 N 
ATOM     16  H   UNL     1       3.169   6.367  21.079  0.00  0.00    +0.000 HD
BRANCH  15  21
ATOM     17  C   UNL     1       0.769   2.333  18.730  0.00  0.00    +0.000 C 
ATOM     18  C   UNL     1       2.175   2.698  19.213  0.00  0.00    +0.000 C 
ATOM     19  C   UNL     1       3.200   1.722  18.645  0.00  0.00    +0.000 C 
ATOM     20  C   UNL     1       2.531   4.136  18.858  0.00  0.00    +0.000 C 
ATOM     21  C   UNL     1       2.015   4.927  20.048  0.00  0.00    +0.000 C 
ATOM     22  C   UNL     1       2.352   3.951  21.176  0.00  0.00    +0.000 C 
ATOM     23  O   UNL     1       2.190   2.621  20.651  0.00  0.00    +0.000 OA
ENDBRANCH  15  21
ENDBRANCH   1  15
TORSDOF 3
ENDMDL
MODEL 3
REMARK VINA RESULT:      -7.6      2.735      4.697
REMARK  Name = 
REMARK  5 active torsions:
REMARK  status: ('A' for Active; 'I' for Inactive)
REMARK    1  A    between atoms: C_1  and  C_2
REMARK    2  A    between atoms: C_2  and  C_3
REMARK    3  A    between atoms: C_5  and  N_6
REMARK    4  A    between atoms: N_6  and  C_7
REMARK    5  A    between atoms: C_11  and  N_12
REMARK                            x       y       z     vdW  Elec       q    Type
REMARK                         _______ _______ _______ _____ _____    ______ ____
ROOT
ATOM      1  C   UNL     1       2.207   6.811  19.809  0.00  0.00    +0.000 A 
ATOM      2  C   UNL     1       1.612   8.005  19.404  0.00  0.00    +0.000 A 
ATOM      3  C   UNL     1       2.061   8.672  18.267  0.00  0.00    +0.000 A 
ATOM      4  C   UNL     1       3.146   8.171  17.548  0.00  0.00    +0.000 A 
ATOM      5  C   UNL     1       3.828   7.026  17.970  0.00  0.00    +0.000 A 
ATOM      6  C   UNL     1       3.341   6.370  19.114  0.00  0.00    +0.000 A 
ENDROOT
BRANCH   5   7
ATOM      7  N   UNL     1       4.899   6.509  17.263  0.00  0.00    +0.000 N 
ATOM      8  C   UNL     1       4.731   5.361  16.370  0.00  0.00    +0.000 C 
ATOM      9  C   UNL     1       5.741   4.307  16.760  0.00  0.00    +0.000 C 
ATOM     10  S   UNL     1       7.373   4.973  16.579  0.00  0.00    +0.000 S 
ATOM     11  O   UNL     1       8.290   4.077  17.247  0.00  0.00    +0.000 OA
ATOM     12  O   UNL     1       7.571   5.314  15.181  0.00  0.00    +0.000 OA
ATOM     13  C   UNL     1       7.314   6.485  17.520  0.00  0.00    +0.000 C 
ATOM     14  C   UNL     1       6.117   7.305  17.095  0.00  0.00    +0.000 C 
ENDBRANCH   5   7
BRANCH   1  15
ATOM     15  N   UNL     1       1.726   6.007  20.845  0.00  0.00    +0.000 N 
ATOM     16  H   UNL     1       1.143   6.514  21.506  0.00  0.00    +0.000 HD
BRANCH  15  21
ATOM     17  C   UNL     1       0.483   2.019  18.995  0.00  0.00    +0.000 C 
ATOM     18  C   UNL     1       1.833   2.676  19.294  0.00  0.00    +0.000 C 
ATOM     19  C   UNL     1       2.911   2.112  18.373  0.00  0.00    +0.000 C 
ATOM     20  C   UNL     1       1.752   4.193  19.180  0.00  0.00    +0.000 C 
ATOM     21  C   UNL     1       1.336   4.625  20.576  0.00  0.00    +0.000 C 
ATOM     22  C   UNL     1       2.132   3.620  21.409  0.00  0.00    +0.000 C 
ATOM     23  O   UNL     1       2.178   2.390  20.662  0.00  0.00    +0.000 OA
ENDBRANCH  15  21
ENDBRANCH   1  15
TORSDOF 3
ENDMDL
MODEL 4
REMARK VINA RESULT:      -7.5      0.919      1.126
REMARK  Name = 
REMARK  5 active torsions:
REMARK  status: ('A' for Active; 'I' for Inactive)
REMARK    1  A    between atoms: C_1  and  C_2
REMARK    2  A    between atoms: C_2  and  C_3
REMARK    3  A    between atoms: C_5  and  N_6
REMARK    4  A    between atoms: N_6  and  C_7
REMARK    5  A    between atoms: C_11  and  N_12
REMARK                            x       y       z     vdW  Elec       q    Type
REMARK                         _______ _______ _______ _____ _____    ______ ____
ROOT
ATOM      1  C   UNL     1       1.734   5.813  20.459  0.00  0.00    +0.000 A 
ATOM      2  C   UNL     1       0.957   4.655  20.434  0.00  0.00    +0.000 A 
ATOM      3  C   UNL     1       1.224   3.643  19.516  0.00  0.00    +0.000 A 
ATOM      4  C   UNL     1       2.245   3.802  18.579  0.00  0.00    +0.000 A 
ATOM      5  C   UNL     1       2.988   4.983  18.512  0.00  0.00    +0.000 A 
ATOM      6  C   UNL     1       2.703   5.981  19.461  0.00  0.00    +0.000 A 
ENDROOT
BRANCH   5   7
ATOM      7  N   UNL     1       4.013   5.154  17.597  0.00  0.00    +0.000 N 
ATOM      8  C   UNL     1       4.136   4.281  16.429  0.00  0.00    +0.000 C 
ATOM      9  C   UNL     1       5.534   3.710  16.411  0.00  0.00    +0.000 C 
ATOM     10  S   UNL     1       6.701   5.037  16.291  0.00  0.00    +0.000 S 
ATOM     11  O   UNL     1       8.010   4.502  16.592  0.00  0.00    +0.000 OA
ATOM     12  O   UNL     1       6.467   5.736  15.039  0.00  0.00    +0.000 OA
ATOM     13  C   UNL     1       6.240   6.120  17.630  0.00  0.00    +0.000 C 
ATOM     14  C   UNL     1       4.759   6.414  17.562  0.00  0.00    +0.000 C 
ENDBRANCH   5   7
BRANCH   1  15
ATOM     15  N   UNL     1       1.629   6.807  21.436  0.00  0.00    +0.000 N 
ATOM     16  H   UNL     1       2.364   6.758  22.136  0.00  0.00    +0.000 HD
BRANCH  15  21
ATOM     17  C   UNL     1      -0.725  10.580  20.388  0.00  0.00    +0.000 C 
ATOM     18  C   UNL     1      -0.199   9.986  21.697  0.00  0.00    +0.000 C 
ATOM     19  C   UNL     1      -1.024  10.491  22.876  0.00  0.00    +0.000 C 
ATOM     20  C   UNL     1      -0.181   8.463  21.651  0.00  0.00    +0.000 C 
ATOM     21  C   UNL     1       1.185   8.149  21.066  0.00  0.00    +0.000 C 
ATOM     22  C   UNL     1       2.015   9.244  21.735  0.00  0.00    +0.000 C 
ATOM     23  O   UNL     1       1.170  10.403  21.860  0.00  0.00    +0.000 OA
ENDBRANCH  15  21
ENDBRANCH   1  15
TORSDOF 3
ENDMDL
MODEL 5
REMARK VINA RESULT:      -7.4      0.634      1.495
REMARK  Name = 
REMARK  5 active torsions:
REMARK  status: ('A' for Active; 'I' for Inactive)
REMARK    1  A    between atoms: C_1  and  C_2
REMARK    2  A    between atoms: C_2  and  C_3
REMARK    3  A    between atoms: C_5  and  N_6
REMARK    4  A    between atoms: N_6  and  C_7
REMARK    5  A    between atoms: C_11  and  N_12
REMARK                            x       y       z     vdW  Elec       q    Type
REMARK                         _______ _______ _______ _____ _____    ______ ____
ROOT
ATOM      1  C   UNL     1       1.715   5.638  20.495  0.00  0.00    +0.000 A 
ATOM      2  C   UNL     1       0.888   4.541  20.258  0.00  0.00    +0.000 A 
ATOM      3  C   UNL     1       1.274   3.539  19.371  0.00  0.00    +0.000 A 
ATOM      4  C   UNL     1       2.477   3.651  18.673  0.00  0.00    +0.000 A 
ATOM      5  C   UNL     1       3.292   4.777  18.813  0.00  0.00    +0.000 A 
ATOM      6  C   UNL     1       2.880   5.764  19.726  0.00  0.00    +0.000 A 
ENDROOT
BRANCH   5   7
ATOM      7  N   UNL     1       4.495   4.900  18.138  0.00  0.00    +0.000 N 
ATOM      8  C   UNL     1       5.758   4.511  18.767  0.00  0.00    +0.000 C 
ATOM      9  C   UNL     1       6.711   5.679  18.675  0.00  0.00    +0.000 C 
ATOM     10  S   UNL     1       6.987   6.069  16.969  0.00  0.00    +0.000 S 
ATOM     11  O   UNL     1       7.633   7.361  16.912  0.00  0.00    +0.000 OA
ATOM     12  O   UNL     1       7.600   4.915  16.333  0.00  0.00    +0.000 OA
ATOM     13  C   UNL     1       5.341   6.259  16.312  0.00  0.00    +0.000 C 
ATOM     14  C   UNL     1       4.502   5.058  16.682  0.00  0.00    +0.000 C 
ENDBRANCH   5   7
BRANCH   1  15
ATOM     15  N   UNL     1       1.473   6.607  21.472  0.00  0.00    +0.000 N 
ATOM     16  H   UNL     1       2.080   6.517  22.282  0.00  0.00    +0.000 HD
BRANCH  15  21
ATOM     17  C   UNL     1      -0.594  10.513  20.311  0.00  0.00    +0.000 C 
ATOM     18  C   UNL     1      -0.155   9.898  21.642  0.00  0.00    +0.000 C 
ATOM     19  C   UNL     1      -0.989  10.466  22.787  0.00  0.00    +0.000 C 
ATOM     20  C   UNL     1      -0.233   8.377  21.608  0.00  0.00    +0.000 C 
ATOM     21  C   UNL     1       1.130   7.971  21.076  0.00  0.00    +0.000 C 
ATOM     22  C   UNL     1       2.004   9.017  21.768  0.00  0.00    +0.000 C 
ATOM     23  O   UNL     1       1.231  10.228  21.854  0.00  0.00    +0.000 OA
ENDBRANCH  15  21
ENDBRANCH   1  15
TORSDOF 3
ENDMDL
MODEL 6
REMARK VINA RESULT:      -7.4      1.466      1.934
REMARK  Name = 
REMARK  5 active torsions:
REMARK  status: ('A' for Active; 'I' for Inactive)
REMARK    1  A    between atoms: C_1  and  C_2
REMARK    2  A    between atoms: C_2  and  C_3
REMARK    3  A    between atoms: C_5  and  N_6
REMARK    4  A    between atoms: N_6  and  C_7
REMARK    5  A    between atoms: C_11  and  N_12
REMARK                            x       y       z     vdW  Elec       q    Type
REMARK                         _______ _______ _______ _____ _____    ______ ____
ROOT
ATOM      1  C   UNL     1       2.024   6.359  20.327  0.00  0.00    +0.000 A 
ATOM      2  C   UNL     1       1.130   5.295  20.446  0.00  0.00    +0.000 A 
ATOM      3  C   UNL     1       1.465   4.030  19.969  0.00  0.00    +0.000 A 
ATOM      4  C   UNL     1       2.685   3.829  19.323  0.00  0.00    +0.000 A 
ATOM      5  C   UNL     1       3.571   4.887  19.104  0.00  0.00    +0.000 A 
ATOM      6  C   UNL     1       3.209   6.148  19.609  0.00  0.00    +0.000 A 
ENDROOT
BRANCH   5   7
ATOM      7  N   UNL     1       4.791   4.703  18.476  0.00  0.00    +0.000 N 
ATOM      8  C   UNL     1       6.022   5.260  19.038  0.00  0.00    +0.000 C 
ATOM      9  C   UNL     1       6.702   6.080  17.967  0.00  0.00    +0.000 C 
ATOM     10  S   UNL     1       7.092   5.031  16.594  0.00  0.00    +0.000 S 
ATOM     11  O   UNL     1       7.444   5.880  15.478  0.00  0.00    +0.000 OA
ATOM     12  O   UNL     1       8.014   4.007  17.053  0.00  0.00    +0.000 OA
ATOM     13  C   UNL     1       5.537   4.250  16.210  0.00  0.00    +0.000 C 
ATOM     14  C   UNL     1       4.941   3.654  17.464  0.00  0.00    +0.000 C 
ENDBRANCH   5   7
BRANCH   1  15
ATOM     15  N   UNL     1       1.829   7.615  20.906  0.00  0.00    +0.000 N 
ATOM     16  H   UNL     1       2.671   7.994  21.330  0.00  0.00    +0.000 HD
BRANCH  15  21
ATOM     17  C   UNL     1      -1.074  10.993  19.887  0.00  0.00    +0.000 C 
ATOM     18  C   UNL     1       0.448  10.904  20.014  0.00  0.00    +0.000 C 
ATOM     19  C   UNL     1       1.034  12.276  20.332  0.00  0.00    +0.000 C 
ATOM     20  C   UNL     1       0.862   9.875  21.058  0.00  0.00    +0.000 C 
ATOM     21  C   UNL     1       0.945   8.584  20.262  0.00  0.00    +0.000 C 
ATOM     22  C   UNL     1       1.520   9.121  18.952  0.00  0.00    +0.000 C 
ATOM     23  O   UNL     1       0.978  10.440  18.757  0.00  0.00    +0.000 OA
ENDBRANCH  15  21
ENDBRANCH   1  15
TORSDOF 3
ENDMDL
MODEL 7
REMARK VINA RESULT:      -7.3      1.101      1.872
REMARK  Name = 
REMARK  5 active torsions:
REMARK  status: ('A' for Active; 'I' for Inactive)
REMARK    1  A    between atoms: C_1  and  C_2
REMARK    2  A    between atoms: C_2  and  C_3
REMARK    3  A    between atoms: C_5  and  N_6
REMARK    4  A    between atoms: N_6  and  C_7
REMARK    5  A    between atoms: C_11  and  N_12
REMARK                            x       y       z     vdW  Elec       q    Type
REMARK                         _______ _______ _______ _____ _____    ______ ____
ROOT
ATOM      1  C   UNL     1       1.785   5.843  20.459  0.00  0.00    +0.000 A 
ATOM      2  C   UNL     1       0.999   4.692  20.411  0.00  0.00    +0.000 A 
ATOM      3  C   UNL     1       1.417   3.578  19.688  0.00  0.00    +0.000 A 
ATOM      4  C   UNL     1       2.609   3.623  18.965  0.00  0.00    +0.000 A 
ATOM      5  C   UNL     1       3.381   4.786  18.913  0.00  0.00    +0.000 A 
ATOM      6  C   UNL     1       2.938   5.889  19.664  0.00  0.00    +0.000 A 
ENDROOT
BRANCH   5   7
ATOM      7  N   UNL     1       4.572   4.845  18.210  0.00  0.00    +0.000 N 
ATOM      8  C   UNL     1       5.844   4.504  18.849  0.00  0.00    +0.000 C 
ATOM      9  C   UNL     1       6.800   5.655  18.643  0.00  0.00    +0.000 C 
ATOM     10  S   UNL     1       7.049   5.897  16.905  0.00  0.00    +0.000 S 
ATOM     11  O   UNL     1       7.699   7.177  16.728  0.00  0.00    +0.000 OA
ATOM     12  O   UNL     1       7.647   4.691  16.360  0.00  0.00    +0.000 OA
ATOM     13  C   UNL     1       5.393   6.040  16.262  0.00  0.00    +0.000 C 
ATOM     14  C   UNL     1       4.556   4.879  16.746  0.00  0.00    +0.000 C 
ENDBRANCH   5   7
BRANCH   1  15
ATOM     15  N   UNL     1       1.513   6.945  21.274  0.00  0.00    +0.000 N 
ATOM     16  H   UNL     1       1.812   6.813  22.236  0.00  0.00    +0.000 HD
BRANCH  15  21
ATOM     17  C   UNL     1       1.438  10.765  18.768  0.00  0.00    +0.000 C 
ATOM     18  C   UNL     1       0.481  10.146  19.790  0.00  0.00    +0.000 C 
ATOM     19  C   UNL     1      -0.941  10.648  19.555  0.00  0.00    +0.000 C 
ATOM     20  C   UNL     1       0.539   8.625  19.759  0.00  0.00    +0.000 C 
ATOM     21  C   UNL     1       1.651   8.298  20.740  0.00  0.00    +0.000 C 
ATOM     22  C   UNL     1       1.393   9.373  21.796  0.00  0.00    +0.000 C 
ATOM     23  O   UNL     1       0.913  10.541  21.106  0.00  0.00    +0.000 OA
ENDBRANCH  15  21
ENDBRANCH   1  15
TORSDOF 3
ENDMDL
MODEL 8
REMARK VINA RESULT:      -7.3      4.077      8.003
REMARK  Name = 
REMARK  5 active torsions:
REMARK  status: ('A' for Active; 'I' for Inactive)
REMARK    1  A    between atoms: C_1  and  C_2
REMARK    2  A    between atoms: C_2  and  C_3
REMARK    3  A    between atoms: C_5  and  N_6
REMARK    4  A    between atoms: N_6  and  C_7
REMARK    5  A    between atoms: C_11  and  N_12
REMARK                            x       y       z     vdW  Elec       q    Type
REMARK                         _______ _______ _______ _____ _____    ______ ____
ROOT
ATOM      1  C   UNL     1       2.229   7.341  19.568  0.00  0.00    +0.000 A 
ATOM      2  C   UNL     1       2.638   7.752  18.300  0.00  0.00    +0.000 A 
ATOM      3  C   UNL     1       2.220   8.975  17.782  0.00  0.00    +0.000 A 
ATOM      4  C   UNL     1       1.346   9.780  18.513  0.00  0.00    +0.000 A 
ATOM      5  C   UNL     1       0.841   9.364  19.748  0.00  0.00    +0.000 A 
ATOM      6  C   UNL     1       1.293   8.131  20.249  0.00  0.00    +0.000 A 
ENDROOT
BRANCH   5   7
ATOM      7  N   UNL     1      -0.017  10.155  20.492  0.00  0.00    +0.000 N 
ATOM      8  C   UNL     1      -0.626  11.357  19.920  0.00  0.00    +0.000 C 
ATOM      9  C   UNL     1      -0.333  12.518  20.839  0.00  0.00    +0.000 C 
ATOM     10  S   UNL     1      -1.039  12.191  22.430  0.00  0.00    +0.000 S 
ATOM     11  O   UNL     1      -0.486  13.147  23.363  0.00  0.00    +0.000 OA
ATOM     12  O   UNL     1      -2.479  12.072  22.272  0.00  0.00    +0.000 OA
ATOM     13  C   UNL     1      -0.390  10.586  22.853  0.00  0.00    +0.000 C 
ATOM     14  C   UNL     1      -0.628   9.622  21.713  0.00  0.00    +0.000 C 
ENDBRANCH   5   7
BRANCH   1  15
ATOM     15  N   UNL     1       2.716   6.204  20.219  0.00  0.00    +0.000 N 
ATOM     16  H   UNL     1       3.097   6.404  21.140  0.00  0.00    +0.000 HD
BRANCH  15  21
ATOM     17  C   UNL     1       0.768   2.342  18.748  0.00  0.00    +0.000 C 
ATOM     18  C   UNL     1       2.177   2.707  19.224  0.00  0.00    +0.000 C 
ATOM     19  C   UNL     1       3.200   1.736  18.641  0.00  0.00    +0.000 C 
ATOM     20  C   UNL     1       2.527   4.148  18.877  0.00  0.00    +0.000 C 
ATOM     21  C   UNL     1       2.019   4.928  20.077  0.00  0.00    +0.000 C 
ATOM     22  C   UNL     1       2.365   3.945  21.195  0.00  0.00    +0.000 C 
ATOM     23  O   UNL     1       2.202   2.618  20.662  0.00  0.00    +0.000 OA
ENDBRANCH  15  21
ENDBRANCH   1  15
TORSDOF 3
ENDMDL
MODEL 9
REMARK VINA RESULT:      -7.1      2.726      3.598
REMARK  Name = 
REMARK  5 active torsions:
REMARK  status: ('A' for Active; 'I' for Inactive)
REMARK    1  A    between atoms: C_1  and  C_2
REMARK    2  A    between atoms: C_2  and  C_3
REMARK    3  A    between atoms: C_5  and  N_6
REMARK    4  A    between atoms: N_6  and  C_7
REMARK    5  A    between atoms: C_11  and  N_12
REMARK                            x       y       z     vdW  Elec       q    Type
REMARK                         _______ _______ _______ _____ _____    ______ ____
ROOT
ATOM      1  C   UNL     1       1.059   8.637  19.993  0.00  0.00    +0.000 A 
ATOM      2  C   UNL     1       1.350   9.404  18.866  0.00  0.00    +0.000 A 
ATOM      3  C   UNL     1       2.209   8.922  17.882  0.00  0.00    +0.000 A 
ATOM      4  C   UNL     1       2.826   7.681  18.042  0.00  0.00    +0.000 A 
ATOM      5  C   UNL     1       2.632   6.920  19.198  0.00  0.00    +0.000 A 
ATOM      6  C   UNL     1       1.749   7.430  20.166  0.00  0.00    +0.000 A 
ENDROOT
BRANCH   5   7
ATOM      7  N   UNL     1       3.226   5.682  19.369  0.00  0.00    +0.000 N 
ATOM      8  C   UNL     1       4.576   5.416  18.870  0.00  0.00    +0.000 C 
ATOM      9  C   UNL     1       4.525   4.181  18.002  0.00  0.00    +0.000 C 
ATOM     10  S   UNL     1       3.967   2.811  18.977  0.00  0.00    +0.000 S 
ATOM     11  O   UNL     1       3.626   1.736  18.072  0.00  0.00    +0.000 OA
ATOM     12  O   UNL     1       4.928   2.592  20.044  0.00  0.00    +0.000 OA
ATOM     13  C   UNL     1       2.452   3.405  19.704  0.00  0.00    +0.000 C 
ATOM     14  C   UNL     1       2.691   4.745  20.360  0.00  0.00    +0.000 C 
ENDBRANCH   5   7
BRANCH   1  15
ATOM     15  N   UNL     1       0.101   8.981  20.950  0.00  0.00    +0.000 N 
ATOM     16  H   UNL     1      -0.151   8.207  21.559  0.00  0.00    +0.000 HD
BRANCH  15  21
ATOM     17  C   UNL     1      -0.097  13.438  21.938  0.00  0.00    +0.000 C 
ATOM     18  C   UNL     1      -1.112  12.292  21.989  0.00  0.00    +0.000 C 
ATOM     19  C   UNL     1      -2.532  12.839  21.882  0.00  0.00    +0.000 C 
ATOM     20  C   UNL     1      -0.839  11.257  20.905  0.00  0.00    +0.000 C 
ATOM     21  C   UNL     1       0.135  10.302  21.573  0.00  0.00    +0.000 C 
ATOM     22  C   UNL     1      -0.437  10.294  22.991  0.00  0.00    +0.000 C 
ATOM     23  O   UNL     1      -0.957  11.611  23.248  0.00  0.00    +0.000 OA
ENDBRANCH  15  21
ENDBRANCH   1  15
TORSDOF 3
ENDMDL
