MODEL 1
REMARK VINA RESULT:      -7.3      0.000      0.000
REMARK  Name = 
REMARK  5 active torsions:
REMARK  status: ('A' for Active; 'I' for Inactive)
REMARK    1  A    between atoms: C_1  and  C_2
REMARK    2  A    between atoms: C_2  and  C_3
REMARK    3  A    between atoms: C_2  and  O_4
REMARK    4  A    between atoms: O_4  and  C_5
REMARK    5  A    between atoms: C_10  and  C_11
REMARK                            x       y       z     vdW  Elec       q    Type
REMARK                         _______ _______ _______ _____ _____    ______ ____
ROOT
ATOM      1  C   UNL     1       3.407   4.638  19.554  0.00  0.00    +0.000 A 
ATOM      2  C   UNL     1       3.361   6.005  19.270  0.00  0.00    +0.000 A 
ATOM      3  C   UNL     1       3.859   6.516  18.068  0.00  0.00    +0.000 A 
ATOM      4  C   UNL     1       4.436   5.633  17.149  0.00  0.00    +0.000 A 
ATOM      5  N   UNL     1       4.998   5.908  15.934  0.00  0.00    +0.000 NA
ATOM      6  C   UNL     1       5.443   4.752  15.474  0.00  0.00    +0.000 A 
ATOM      7  N   UNL     1       5.136   3.735  16.355  0.00  0.00    +0.000 N 
ATOM      8  C   UNL     1       4.495   4.277  17.442  0.00  0.00    +0.000 A 
ATOM      9  C   UNL     1       3.980   3.739  18.631  0.00  0.00    +0.000 A 
ATOM     10  H   UNL     1       5.387   2.768  16.206  0.00  0.00    +0.000 HD
ENDROOT
BRANCH   6  11
ATOM     11  C   UNL     1       6.178   4.552  14.228  0.00  0.00    +0.000 A 
ATOM     12  C   UNL     1       5.747   3.610  13.298  0.00  0.00    +0.000 A 
ATOM     13  C   UNL     1       6.451   3.472  12.108  0.00  0.00    +0.000 A 
ATOM     14  C   UNL     1       7.562   4.274  11.885  0.00  0.00    +0.000 A 
ATOM     15  C   UNL     1       7.922   5.187  12.866  0.00  0.00    +0.000 A 
ATOM     16  N   UNL     1       7.261   5.348  14.039  0.00  0.00    +0.000 NA
ENDBRANCH   6  11
BRANCH   1  17
ATOM     17  O   UNL     1       2.919   4.056  20.699  0.00  0.00    +0.000 OA
BRANCH  17  19
ATOM     18  C   UNL     1       1.662   2.473  21.986  0.00  0.00    +0.000 C 
ATOM     19  C   UNL     1       1.996   2.964  20.580  0.00  0.00    +0.000 C 
ATOM     20  C   UNL     1       0.727   3.428  19.867  0.00  0.00    +0.000 C 
ENDBRANCH  17  19
ENDBRANCH   1  17
TORSDOF 3
ENDMDL
MODEL 2
REMARK VINA RESULT:      -7.3      2.699      7.261
REMARK  Name = 
REMARK  5 active torsions:
REMARK  status: ('A' for Active; 'I' for Inactive)
REMARK    1  A    between atoms: C_1  and  C_2
REMARK    2  A    between atoms: C_2  and  C_3
REMARK    3  A    between atoms: C_2  and  O_4
REMARK    4  A    between atoms: O_4  and  C_5
REMARK    5  A    between atoms: C_10  and  C_11
REMARK                            x       y       z     vdW  Elec       q    Type
REMARK                         _______ _______ _______ _____ _____    ______ ____
ROOT
ATOM      1  C   UNL     1       6.412   4.334  14.442  0.00  0.00    +0.000 A 
ATOM      2  C   UNL     1       7.323   4.902  15.337  0.00  0.00    +0.000 A 
ATOM      3  C   UNL     1       7.062   4.948  16.709  0.00  0.00    +0.000 A 
ATOM      4  C   UNL     1       5.850   4.436  17.182  0.00  0.00    +0.000 A 
ATOM      5  N   UNL     1       5.378   4.394  18.463  0.00  0.00    +0.000 NA
ATOM      6  C   UNL     1       4.172   3.861  18.387  0.00  0.00    +0.000 A 
ATOM      7  N   UNL     1       3.880   3.523  17.081  0.00  0.00    +0.000 N 
ATOM      8  C   UNL     1       4.940   3.888  16.287  0.00  0.00    +0.000 A 
ATOM      9  C   UNL     1       5.191   3.808  14.909  0.00  0.00    +0.000 A 
ATOM     10  H   UNL     1       3.007   3.105  16.791  0.00  0.00    +0.000 HD
ENDROOT
BRANCH   6  11
ATOM     11  C   UNL     1       3.248   3.670  19.500  0.00  0.00    +0.000 A 
ATOM     12  C   UNL     1       2.069   4.407  19.574  0.00  0.00    +0.000 A 
ATOM     13  C   UNL     1       1.196   4.172  20.630  0.00  0.00    +0.000 A 
ATOM     14  C   UNL     1       1.527   3.214  21.578  0.00  0.00    +0.000 A 
ATOM     15  C   UNL     1       2.723   2.526  21.428  0.00  0.00    +0.000 A 
ATOM     16  N   UNL     1       3.599   2.729  20.414  0.00  0.00    +0.000 NA
ENDBRANCH   6  11
BRANCH   1  17
ATOM     17  O   UNL     1       6.605   4.230  13.086  0.00  0.00    +0.000 OA
BRANCH  17  19
ATOM     18  C   UNL     1       4.819   3.488  11.670  0.00  0.00    +0.000 C 
ATOM     19  C   UNL     1       6.093   3.076  12.402  0.00  0.00    +0.000 C 
ATOM     20  C   UNL     1       7.130   2.557  11.407  0.00  0.00    +0.000 C 
ENDBRANCH  17  19
ENDBRANCH   1  17
TORSDOF 3
ENDMDL
MODEL 3
REMARK VINA RESULT:      -7.1      2.750      7.229
REMARK  Name = 
REMARK  5 active torsions:
REMARK  status: ('A' for Active; 'I' for Inactive)
REMARK    1  A    between atoms: C_1  and  C_2
REMARK    2  A    between atoms: C_2  and  C_3
REMARK    3  A    between atoms: C_2  and  O_4
REMARK    4  A    between atoms: O_4  and  C_5
REMARK    5  A    between atoms: C_10  and  C_11
REMARK                            x       y       z     vdW  Elec       q    Type
REMARK                         _______ _______ _______ _____ _____    ______ ____
ROOT
ATOM      1  C   UNL     1       6.394   4.282  14.209  0.00  0.00    +0.000 A 
ATOM      2  C   UNL     1       7.354   4.902  15.014  0.00  0.00    +0.000 A 
ATOM      3  C   UNL     1       7.186   5.008  16.397  0.00  0.00    +0.000 A 
ATOM      4  C   UNL     1       6.017   4.501  16.974  0.00  0.00    +0.000 A 
ATOM      5  N   UNL     1       5.634   4.512  18.285  0.00  0.00    +0.000 NA
ATOM      6  C   UNL     1       4.434   3.960  18.315  0.00  0.00    +0.000 A 
ATOM      7  N   UNL     1       4.060   3.557  17.049  0.00  0.00    +0.000 N 
ATOM      8  C   UNL     1       5.058   3.900  16.169  0.00  0.00    +0.000 A 
ATOM      9  C   UNL     1       5.216   3.761  14.782  0.00  0.00    +0.000 A 
ATOM     10  H   UNL     1       3.176   3.115  16.838  0.00  0.00    +0.000 HD
ENDROOT
BRANCH   6  11
ATOM     11  C   UNL     1       3.591   3.807  19.497  0.00  0.00    +0.000 A 
ATOM     12  C   UNL     1       3.583   2.610  20.208  0.00  0.00    +0.000 A 
ATOM     13  C   UNL     1       2.795   2.513  21.349  0.00  0.00    +0.000 A 
ATOM     14  C   UNL     1       2.039   3.609  21.741  0.00  0.00    +0.000 A 
ATOM     15  C   UNL     1       2.105   4.763  20.973  0.00  0.00    +0.000 A 
ATOM     16  N   UNL     1       2.861   4.893  19.855  0.00  0.00    +0.000 NA
ENDBRANCH   6  11
BRANCH   1  17
ATOM     17  O   UNL     1       6.496   4.117  12.849  0.00  0.00    +0.000 OA
BRANCH  17  19
ATOM     18  C   UNL     1       4.690   3.337  11.480  0.00  0.00    +0.000 C 
ATOM     19  C   UNL     1       5.944   2.934  12.252  0.00  0.00    +0.000 C 
ATOM     20  C   UNL     1       6.965   2.300  11.310  0.00  0.00    +0.000 C 
ENDBRANCH  17  19
ENDBRANCH   1  17
TORSDOF 3
ENDMDL
MODEL 4
REMARK VINA RESULT:      -6.9      2.608      7.227
REMARK  Name = 
REMARK  5 active torsions:
REMARK  status: ('A' for Active; 'I' for Inactive)
REMARK    1  A    between atoms: C_1  and  C_2
REMARK    2  A    between atoms: C_2  and  C_3
REMARK    3  A    between atoms: C_2  and  O_4
REMARK    4  A    between atoms: O_4  and  C_5
REMARK    5  A    between atoms: C_10  and  C_11
REMARK                            x       y       z     vdW  Elec       q    Type
REMARK                         _______ _______ _______ _____ _____    ______ ____
ROOT
ATOM      1  C   UNL     1       6.045   4.551  14.494  0.00  0.00    +0.000 A 
ATOM      2  C   UNL     1       5.762   5.871  14.855  0.00  0.00    +0.000 A 
ATOM      3  C   UNL     1       5.059   6.170  16.026  0.00  0.00    +0.000 A 
ATOM      4  C   UNL     1       4.614   5.117  16.832  0.00  0.00    +0.000 A 
ATOM      5  N   UNL     1       3.900   5.171  17.995  0.00  0.00    +0.000 NA
ATOM      6  C   UNL     1       3.684   3.916  18.345  0.00  0.00    +0.000 A 
ATOM      7  N   UNL     1       4.285   3.058  17.445  0.00  0.00    +0.000 N 
ATOM      8  C   UNL     1       4.883   3.806  16.461  0.00  0.00    +0.000 A 
ATOM      9  C   UNL     1       5.607   3.483  15.304  0.00  0.00    +0.000 A 
ATOM     10  H   UNL     1       4.243   2.051  17.516  0.00  0.00    +0.000 HD
ENDROOT
BRANCH   6  11
ATOM     11  C   UNL     1       2.905   3.469  19.496  0.00  0.00    +0.000 A 
ATOM     12  C   UNL     1       3.505   2.721  20.506  0.00  0.00    +0.000 A 
ATOM     13  C   UNL     1       2.741   2.344  21.604  0.00  0.00    +0.000 A 
ATOM     14  C   UNL     1       1.405   2.719  21.657  0.00  0.00    +0.000 A 
ATOM     15  C   UNL     1       0.889   3.463  20.606  0.00  0.00    +0.000 A 
ATOM     16  N   UNL     1       1.602   3.848  19.520  0.00  0.00    +0.000 NA
ENDBRANCH   6  11
BRANCH   1  17
ATOM     17  O   UNL     1       6.749   4.177  13.375  0.00  0.00    +0.000 OA
BRANCH  17  19
ATOM     18  C   UNL     1       4.911   3.673  11.921  0.00  0.00    +0.000 C 
ATOM     19  C   UNL     1       6.208   3.149  12.531  0.00  0.00    +0.000 C 
ATOM     20  C   UNL     1       7.207   2.801  11.429  0.00  0.00    +0.000 C 
ENDBRANCH  17  19
ENDBRANCH   1  17
TORSDOF 3
ENDMDL
MODEL 5
REMARK VINA RESULT:      -6.9      2.587      7.177
REMARK  Name = 
REMARK  5 active torsions:
REMARK  status: ('A' for Active; 'I' for Inactive)
REMARK    1  A    between atoms: C_1  and  C_2
REMARK    2  A    between atoms: C_2  and  C_3
REMARK    3  A    between atoms: C_2  and  O_4
REMARK    4  A    between atoms: O_4  and  C_5
REMARK    5  A    between atoms: C_10  and  C_11
REMARK                            x       y       z     vdW  Elec       q    Type
REMARK                         _______ _______ _______ _____ _____    ______ ____
ROOT
ATOM      1  C   UNL     1       6.295   4.358  14.480  0.00  0.00    +0.000 A 
ATOM      2  C   UNL     1       5.950   5.696  14.688  0.00  0.00    +0.000 A 
ATOM      3  C   UNL     1       5.181   6.087  15.789  0.00  0.00    +0.000 A 
ATOM      4  C   UNL     1       4.734   5.106  16.680  0.00  0.00    +0.000 A 
ATOM      5  N   UNL     1       3.963   5.251  17.798  0.00  0.00    +0.000 NA
ATOM      6  C   UNL     1       3.773   4.032  18.267  0.00  0.00    +0.000 A 
ATOM      7  N   UNL     1       4.446   3.110  17.490  0.00  0.00    +0.000 N 
ATOM      8  C   UNL     1       5.065   3.775  16.460  0.00  0.00    +0.000 A 
ATOM      9  C   UNL     1       5.855   3.363  15.377  0.00  0.00    +0.000 A 
ATOM     10  H   UNL     1       4.435   2.114  17.664  0.00  0.00    +0.000 HD
ENDROOT
BRANCH   6  11
ATOM     11  C   UNL     1       2.955   3.675  19.423  0.00  0.00    +0.000 A 
ATOM     12  C   UNL     1       1.639   4.119  19.519  0.00  0.00    +0.000 A 
ATOM     13  C   UNL     1       0.879   3.729  20.616  0.00  0.00    +0.000 A 
ATOM     14  C   UNL     1       1.456   2.916  21.581  0.00  0.00    +0.000 A 
ATOM     15  C   UNL     1       2.775   2.521  21.407  0.00  0.00    +0.000 A 
ATOM     16  N   UNL     1       3.546   2.882  20.352  0.00  0.00    +0.000 NA
ENDBRANCH   6  11
BRANCH   1  17
ATOM     17  O   UNL     1       7.064   3.898  13.440  0.00  0.00    +0.000 OA
BRANCH  17  19
ATOM     18  C   UNL     1       7.151   2.579  11.440  0.00  0.00    +0.000 C 
ATOM     19  C   UNL     1       6.457   3.739  12.148  0.00  0.00    +0.000 C 
ATOM     20  C   UNL     1       4.966   3.447  12.306  0.00  0.00    +0.000 C 
ENDBRANCH  17  19
ENDBRANCH   1  17
TORSDOF 3
ENDMDL
MODEL 6
REMARK VINA RESULT:      -6.8      0.981      1.198
REMARK  Name = 
REMARK  5 active torsions:
REMARK  status: ('A' for Active; 'I' for Inactive)
REMARK    1  A    between atoms: C_1  and  C_2
REMARK    2  A    between atoms: C_2  and  C_3
REMARK    3  A    between atoms: C_2  and  O_4
REMARK    4  A    between atoms: O_4  and  C_5
REMARK    5  A    between atoms: C_10  and  C_11
REMARK                            x       y       z     vdW  Elec       q    Type
REMARK                         _______ _______ _______ _____ _____    ______ ____
ROOT
ATOM      1  C   UNL     1       3.496   4.268  19.293  0.00  0.00    +0.000 A 
ATOM      2  C   UNL     1       4.776   4.432  19.829  0.00  0.00    +0.000 A 
ATOM      3  C   UNL     1       5.894   4.597  19.006  0.00  0.00    +0.000 A 
ATOM      4  C   UNL     1       5.718   4.569  17.618  0.00  0.00    +0.000 A 
ATOM      5  N   UNL     1       6.658   4.687  16.633  0.00  0.00    +0.000 NA
ATOM      6  C   UNL     1       6.005   4.549  15.494  0.00  0.00    +0.000 A 
ATOM      7  N   UNL     1       4.655   4.386  15.732  0.00  0.00    +0.000 N 
ATOM      8  C   UNL     1       4.447   4.389  17.090  0.00  0.00    +0.000 A 
ATOM      9  C   UNL     1       3.308   4.247  17.896  0.00  0.00    +0.000 A 
ATOM     10  H   UNL     1       3.967   4.256  15.003  0.00  0.00    +0.000 HD
ENDROOT
BRANCH   6  11
ATOM     11  C   UNL     1       6.600   4.539  14.161  0.00  0.00    +0.000 A 
ATOM     12  C   UNL     1       6.126   3.668  13.183  0.00  0.00    +0.000 A 
ATOM     13  C   UNL     1       6.693   3.713  11.914  0.00  0.00    +0.000 A 
ATOM     14  C   UNL     1       7.714   4.619  11.664  0.00  0.00    +0.000 A 
ATOM     15  C   UNL     1       8.126   5.449  12.697  0.00  0.00    +0.000 A 
ATOM     16  N   UNL     1       7.598   5.433  13.945  0.00  0.00    +0.000 NA
ENDBRANCH   6  11
BRANCH   1  17
ATOM     17  O   UNL     1       2.347   4.124  20.032  0.00  0.00    +0.000 OA
BRANCH  17  19
ATOM     18  C   UNL     1       1.443   2.671  21.709  0.00  0.00    +0.000 C 
ATOM     19  C   UNL     1       1.816   2.806  20.236  0.00  0.00    +0.000 C 
ATOM     20  C   UNL     1       0.584   2.599  19.357  0.00  0.00    +0.000 C 
ENDBRANCH  17  19
ENDBRANCH   1  17
TORSDOF 3
ENDMDL
MODEL 7
REMARK VINA RESULT:      -6.7      2.569      7.289
REMARK  Name = 
REMARK  5 active torsions:
REMARK  status: ('A' for Active; 'I' for Inactive)
REMARK    1  A    between atoms: C_1  and  C_2
REMARK    2  A    between atoms: C_2  and  C_3
REMARK    3  A    between atoms: C_2  and  O_4
REMARK    4  A    between atoms: O_4  and  C_5
REMARK    5  A    between atoms: C_10  and  C_11
REMARK                            x       y       z     vdW  Elec       q    Type
REMARK                         _______ _______ _______ _____ _____    ______ ____
ROOT
ATOM      1  C   UNL     1       7.091   4.962  15.559  0.00  0.00    +0.000 A 
ATOM      2  C   UNL     1       7.250   6.105  16.348  0.00  0.00    +0.000 A 
ATOM      3  C   UNL     1       6.538   6.271  17.540  0.00  0.00    +0.000 A 
ATOM      4  C   UNL     1       5.633   5.277  17.927  0.00  0.00    +0.000 A 
ATOM      5  N   UNL     1       4.824   5.237  19.028  0.00  0.00    +0.000 NA
ATOM      6  C   UNL     1       4.124   4.122  18.920  0.00  0.00    +0.000 A 
ATOM      7  N   UNL     1       4.502   3.426  17.790  0.00  0.00    +0.000 N 
ATOM      8  C   UNL     1       5.465   4.152  17.132  0.00  0.00    +0.000 A 
ATOM      9  C   UNL     1       6.186   3.953  15.945  0.00  0.00    +0.000 A 
ATOM     10  H   UNL     1       4.092   2.547  17.508  0.00  0.00    +0.000 HD
ENDROOT
BRANCH   6  11
ATOM     11  C   UNL     1       3.078   3.676  19.835  0.00  0.00    +0.000 A 
ATOM     12  C   UNL     1       1.754   4.056  19.632  0.00  0.00    +0.000 A 
ATOM     13  C   UNL     1       0.779   3.582  20.503  0.00  0.00    +0.000 A 
ATOM     14  C   UNL     1       1.156   2.751  21.548  0.00  0.00    +0.000 A 
ATOM     15  C   UNL     1       2.498   2.424  21.678  0.00  0.00    +0.000 A 
ATOM     16  N   UNL     1       3.475   2.867  20.850  0.00  0.00    +0.000 NA
ENDBRANCH   6  11
BRANCH   1  17
ATOM     17  O   UNL     1       7.768   4.715  14.390  0.00  0.00    +0.000 OA
BRANCH  17  19
ATOM     18  C   UNL     1       8.122   5.785  12.275  0.00  0.00    +0.000 C 
ATOM     19  C   UNL     1       7.127   5.018  13.142  0.00  0.00    +0.000 C 
ATOM     20  C   UNL     1       6.706   3.726  12.445  0.00  0.00    +0.000 C 
ENDBRANCH  17  19
ENDBRANCH   1  17
TORSDOF 3
ENDMDL
MODEL 8
REMARK VINA RESULT:      -6.7      0.740      1.411
REMARK  Name = 
REMARK  5 active torsions:
REMARK  status: ('A' for Active; 'I' for Inactive)
REMARK    1  A    between atoms: C_1  and  C_2
REMARK    2  A    between atoms: C_2  and  C_3
REMARK    3  A    between atoms: C_2  and  O_4
REMARK    4  A    between atoms: O_4  and  C_5
REMARK    5  A    between atoms: C_10  and  C_11
REMARK                            x       y       z     vdW  Elec       q    Type
REMARK                         _______ _______ _______ _____ _____    ______ ____
ROOT
ATOM      1  C   UNL     1       3.517   4.144  19.648  0.00  0.00    +0.000 A 
ATOM      2  C   UNL     1       3.465   5.531  19.477  0.00  0.00    +0.000 A 
ATOM      3  C   UNL     1       3.933   6.138  18.308  0.00  0.00    +0.000 A 
ATOM      4  C   UNL     1       4.486   5.333  17.306  0.00  0.00    +0.000 A 
ATOM      5  N   UNL     1       5.017   5.706  16.104  0.00  0.00    +0.000 NA
ATOM      6  C   UNL     1       5.448   4.592  15.540  0.00  0.00    +0.000 A 
ATOM      7  N   UNL     1       5.163   3.506  16.343  0.00  0.00    +0.000 N 
ATOM      8  C   UNL     1       4.550   3.958  17.487  0.00  0.00    +0.000 A 
ATOM      9  C   UNL     1       4.065   3.325  18.640  0.00  0.00    +0.000 A 
ATOM     10  H   UNL     1       5.409   2.555  16.109  0.00  0.00    +0.000 HD
ENDROOT
BRANCH   6  11
ATOM     11  C   UNL     1       6.151   4.495  14.264  0.00  0.00    +0.000 A 
ATOM     12  C   UNL     1       7.273   5.281  14.014  0.00  0.00    +0.000 A 
ATOM     13  C   UNL     1       7.938   5.135  12.803  0.00  0.00    +0.000 A 
ATOM     14  C   UNL     1       7.462   4.214  11.879  0.00  0.00    +0.000 A 
ATOM     15  C   UNL     1       6.337   3.473  12.210  0.00  0.00    +0.000 A 
ATOM     16  N   UNL     1       5.662   3.589  13.380  0.00  0.00    +0.000 NA
ENDBRANCH   6  11
BRANCH   1  17
ATOM     17  O   UNL     1       3.057   3.471  20.753  0.00  0.00    +0.000 OA
BRANCH  17  19
ATOM     18  C   UNL     1       0.887   3.247  19.762  0.00  0.00    +0.000 C 
ATOM     19  C   UNL     1       1.654   3.513  21.055  0.00  0.00    +0.000 C 
ATOM     20  C   UNL     1       1.314   2.451  22.099  0.00  0.00    +0.000 C 
ENDBRANCH  17  19
ENDBRANCH   1  17
TORSDOF 3
ENDMDL
MODEL 9
REMARK VINA RESULT:      -6.7      4.662      8.112
REMARK  Name = 
REMARK  5 active torsions:
REMARK  status: ('A' for Active; 'I' for Inactive)
REMARK    1  A    between atoms: C_1  and  C_2
REMARK    2  A    between atoms: C_2  and  C_3
REMARK    3  A    between atoms: C_2  and  O_4
REMARK    4  A    between atoms: O_4  and  C_5
REMARK    5  A    between atoms: C_10  and  C_11
REMARK                            x       y       z     vdW  Elec       q    Type
REMARK                         _______ _______ _______ _____ _____    ______ ____
ROOT
ATOM      1  C   UNL     1       3.094   4.824  19.120  0.00  0.00    +0.000 A 
ATOM      2  C   UNL     1       3.278   5.662  18.017  0.00  0.00    +0.000 A 
ATOM      3  C   UNL     1       2.856   6.994  18.038  0.00  0.00    +0.000 A 
ATOM      4  C   UNL     1       2.214   7.480  19.182  0.00  0.00    +0.000 A 
ATOM      5  N   UNL     1       1.705   8.726  19.415  0.00  0.00    +0.000 NA
ATOM      6  C   UNL     1       1.161   8.675  20.617  0.00  0.00    +0.000 A 
ATOM      7  N   UNL     1       1.350   7.426  21.175  0.00  0.00    +0.000 N 
ATOM      8  C   UNL     1       2.018   6.639  20.269  0.00  0.00    +0.000 A 
ATOM      9  C   UNL     1       2.455   5.307  20.281  0.00  0.00    +0.000 A 
ATOM     10  H   UNL     1       1.010   7.163  22.089  0.00  0.00    +0.000 HD
ENDROOT
BRANCH   6  11
ATOM     11  C   UNL     1       0.435   9.756  21.276  0.00  0.00    +0.000 A 
ATOM     12  C   UNL     1      -0.316   9.507  22.421  0.00  0.00    +0.000 A 
ATOM     13  C   UNL     1      -0.964  10.568  23.043  0.00  0.00    +0.000 A 
ATOM     14  C   UNL     1      -0.846  11.840  22.500  0.00  0.00    +0.000 A 
ATOM     15  C   UNL     1      -0.079  11.999  21.355  0.00  0.00    +0.000 A 
ATOM     16  N   UNL     1       0.566  10.989  20.722  0.00  0.00    +0.000 NA
ENDBRANCH   6  11
BRANCH   1  17
ATOM     17  O   UNL     1       3.500   3.513  19.188  0.00  0.00    +0.000 OA
BRANCH  17  19
ATOM     18  C   UNL     1       3.709   1.257  18.408  0.00  0.00    +0.000 C 
ATOM     19  C   UNL     1       2.942   2.568  18.262  0.00  0.00    +0.000 C 
ATOM     20  C   UNL     1       1.461   2.351  18.567  0.00  0.00    +0.000 C 
ENDBRANCH  17  19
ENDBRANCH   1  17
TORSDOF 3
ENDMDL
