MODEL 1
REMARK VINA RESULT:      -8.5      0.000      0.000
REMARK  Name = 
REMARK  12 active torsions:
REMARK  status: ('A' for Active; 'I' for Inactive)
REMARK    1  A    between atoms: C_1  and  O_2
REMARK    2  A    between atoms: O_2  and  C_3
REMARK    3  A    between atoms: N_17  and  O_18
REMARK    4  A    between atoms: O_18  and  C_19
REMARK    5  A    between atoms: C_19  and  C_20
REMARK    6  A    between atoms: C_20  and  O_21
REMARK    7  A    between atoms: C_20  and  C_22
REMARK    8  A    between atoms: C_22  and  N_23
REMARK    9  A    between atoms: N_23  and  C_24
REMARK   10  A    between atoms: C_24  and  C_25
REMARK   11  A    between atoms: C_24  and  C_26
REMARK   12  A    between atoms: C_24  and  C_27
REMARK                            x       y       z     vdW  Elec       q    Type
REMARK                         _______ _______ _______ _____ _____    ______ ____
ROOT
ATOM      1  C   UNL     1       3.153   4.158  18.852  0.00  0.00    +0.000 C 
ATOM      2  C   UNL     1       2.587   2.813  18.313  0.00  0.00    +0.000 C 
ATOM      3  C   UNL     1       1.083   2.643  18.553  0.00  0.00    +0.000 C 
ATOM      4  C   UNL     1       0.716   2.838  20.046  0.00  0.00    +0.000 C 
ATOM      5  C   UNL     1       1.497   3.996  20.740  0.00  0.00    +0.000 C 
ATOM      6  C   UNL     1       2.012   4.882  19.623  0.00  0.00    +0.000 C 
ATOM      7  C   UNL     1       2.301   6.343  19.484  0.00  0.00    +0.000 A 
ATOM      8  C   UNL     1       1.697   7.418  20.114  0.00  0.00    +0.000 A 
ATOM      9  C   UNL     1       1.722   8.657  19.461  0.00  0.00    +0.000 A 
ATOM     10  C   UNL     1       2.347   8.793  18.205  0.00  0.00    +0.000 A 
ATOM     11  F   UNL     1       2.262   9.964  17.556  0.00  0.00    +0.000 F 
ATOM     12  C   UNL     1       2.992   7.731  17.589  0.00  0.00    +0.000 A 
ATOM     13  C   UNL     1       2.958   6.526  18.253  0.00  0.00    +0.000 A 
ATOM     14  C   UNL     1       3.490   5.239  17.802  0.00  0.00    +0.000 C 
ATOM     15  N   UNL     1       4.203   5.116  16.728  0.00  0.00    +0.000 NA
ENDROOT
BRANCH   1  17
ATOM     16  C   UNL     1       4.498   2.405  19.917  0.00  0.00    +0.000 C 
ATOM     17  O   UNL     1       4.270   3.785  19.678  0.00  0.00    +0.000 OA
ENDBRANCH   1  17
BRANCH  15  18
ATOM     18  O   UNL     1       4.735   3.826  16.701  0.00  0.00    +0.000 OA
BRANCH  18  19
ATOM     19  C   UNL     1       6.113   3.872  16.363  0.00  0.00    +0.000 C 
BRANCH  19  20
ATOM     20  C   UNL     1       6.305   5.108  15.483  0.00  0.00    +0.000 C 
BRANCH  20  21
ATOM     21  O   UNL     1       7.297   5.993  16.036  0.00  0.00    +0.000 OA
ATOM     22  H   UNL     1       7.388   5.783  16.981  0.00  0.00    +0.000 HD
ENDBRANCH  20  21
BRANCH  20  23
ATOM     23  C   UNL     1       6.746   4.731  14.066  0.00  0.00    +0.000 C 
BRANCH  23  24
ATOM     24  N   UNL     1       6.256   3.412  13.662  0.00  0.00    +0.000 NA
ATOM     25  H   UNL     1       5.376   3.224  14.148  0.00  0.00    +0.000 HD
BRANCH  24  26
ATOM     26  C   UNL     1       6.062   3.234  12.220  0.00  0.00    +0.000 C 
ATOM     27  C   UNL     1       4.642   3.658  11.790  0.00  0.00    +0.000 C 
ATOM     28  C   UNL     1       7.066   4.175  11.520  0.00  0.00    +0.000 C 
ATOM     29  C   UNL     1       6.350   1.794  11.777  0.00  0.00    +0.000 C 
ENDBRANCH  24  26
ENDBRANCH  23  24
ENDBRANCH  20  23
ENDBRANCH  19  20
ENDBRANCH  18  19
ENDBRANCH  15  18
TORSDOF 8
ENDMDL
MODEL 2
REMARK VINA RESULT:      -8.1      1.044      1.490
REMARK  Name = 
REMARK  12 active torsions:
REMARK  status: ('A' for Active; 'I' for Inactive)
REMARK    1  A    between atoms: C_1  and  O_2
REMARK    2  A    between atoms: O_2  and  C_3
REMARK    3  A    between atoms: N_17  and  O_18
REMARK    4  A    between atoms: O_18  and  C_19
REMARK    5  A    between atoms: C_19  and  C_20
REMARK    6  A    between atoms: C_20  and  O_21
REMARK    7  A    between atoms: C_20  and  C_22
REMARK    8  A    between atoms: C_22  and  N_23
REMARK    9  A    between atoms: N_23  and  C_24
REMARK   10  A    between atoms: C_24  and  C_25
REMARK   11  A    between atoms: C_24  and  C_26
REMARK   12  A    between atoms: C_24  and  C_27
REMARK                            x       y       z     vdW  Elec       q    Type
REMARK                         _______ _______ _______ _____ _____    ______ ____
ROOT
ATOM      1  C   UNL     1       3.167   5.258  18.896  0.00  0.00    +0.000 C 
ATOM      2  C   UNL     1       2.809   3.899  18.228  0.00  0.00    +0.000 C 
ATOM      3  C   UNL     1       1.385   3.424  18.535  0.00  0.00    +0.000 C 
ATOM      4  C   UNL     1       1.114   3.378  20.060  0.00  0.00    +0.000 C 
ATOM      5  C   UNL     1       1.729   4.577  20.846  0.00  0.00    +0.000 C 
ATOM      6  C   UNL     1       1.983   5.663  19.819  0.00  0.00    +0.000 C 
ATOM      7  C   UNL     1       1.993   7.159  19.847  0.00  0.00    +0.000 A 
ATOM      8  C   UNL     1       1.261   8.024  20.642  0.00  0.00    +0.000 A 
ATOM      9  C   UNL     1       1.009   9.311  20.149  0.00  0.00    +0.000 A 
ATOM     10  C   UNL     1       1.493   9.701  18.884  0.00  0.00    +0.000 A 
ATOM     11  F   UNL     1       1.146  10.901  18.394  0.00  0.00    +0.000 F 
ATOM     12  C   UNL     1       2.265   8.855  18.102  0.00  0.00    +0.000 A 
ATOM     13  C   UNL     1       2.502   7.598  18.611  0.00  0.00    +0.000 A 
ATOM     14  C   UNL     1       3.217   6.494  17.971  0.00  0.00    +0.000 C 
ATOM     15  N   UNL     1       3.850   6.627  16.849  0.00  0.00    +0.000 NA
ENDROOT
BRANCH   1  17
ATOM     16  C   UNL     1       4.998   3.731  19.476  0.00  0.00    +0.000 C 
ATOM     17  O   UNL     1       4.398   5.011  19.599  0.00  0.00    +0.000 OA
ENDBRANCH   1  17
BRANCH  15  18
ATOM     18  O   UNL     1       4.600   5.472  16.628  0.00  0.00    +0.000 OA
BRANCH  18  19
ATOM     19  C   UNL     1       5.929   5.812  16.265  0.00  0.00    +0.000 C 
BRANCH  19  20
ATOM     20  C   UNL     1       6.589   4.523  15.771  0.00  0.00    +0.000 C 
BRANCH  20  21
ATOM     21  O   UNL     1       5.823   3.366  16.153  0.00  0.00    +0.000 OA
ATOM     22  H   UNL     1       5.879   3.279  17.120  0.00  0.00    +0.000 HD
ENDBRANCH  20  21
BRANCH  20  23
ATOM     23  C   UNL     1       6.735   4.512  14.247  0.00  0.00    +0.000 C 
BRANCH  23  24
ATOM     24  N   UNL     1       6.267   3.259  13.652  0.00  0.00    +0.000 NA
ATOM     25  H   UNL     1       5.346   3.035  14.035  0.00  0.00    +0.000 HD
BRANCH  24  26
ATOM     26  C   UNL     1       6.197   3.252  12.187  0.00  0.00    +0.000 C 
ATOM     27  C   UNL     1       6.531   1.856  11.618  0.00  0.00    +0.000 C 
ATOM     28  C   UNL     1       4.734   3.573  11.814  0.00  0.00    +0.000 C 
ATOM     29  C   UNL     1       7.108   4.318  11.565  0.00  0.00    +0.000 C 
ENDBRANCH  24  26
ENDBRANCH  23  24
ENDBRANCH  20  23
ENDBRANCH  19  20
ENDBRANCH  18  19
ENDBRANCH  15  18
TORSDOF 8
ENDMDL
MODEL 3
REMARK VINA RESULT:      -7.5      1.868      3.187
REMARK  Name = 
REMARK  12 active torsions:
REMARK  status: ('A' for Active; 'I' for Inactive)
REMARK    1  A    between atoms: C_1  and  O_2
REMARK    2  A    between atoms: O_2  and  C_3
REMARK    3  A    between atoms: N_17  and  O_18
REMARK    4  A    between atoms: O_18  and  C_19
REMARK    5  A    between atoms: C_19  and  C_20
REMARK    6  A    between atoms: C_20  and  O_21
REMARK    7  A    between atoms: C_20  and  C_22
REMARK    8  A    between atoms: C_22  and  N_23
REMARK    9  A    between atoms: N_23  and  C_24
REMARK   10  A    between atoms: C_24  and  C_25
REMARK   11  A    between atoms: C_24  and  C_26
REMARK   12  A    between atoms: C_24  and  C_27
REMARK                            x       y       z     vdW  Elec       q    Type
REMARK                         _______ _______ _______ _____ _____    ______ ____
ROOT
ATOM      1  C   UNL     1       3.002   4.177  19.056  0.00  0.00    +0.000 C 
ATOM      2  C   UNL     1       2.504   2.874  18.367  0.00  0.00    +0.000 C 
ATOM      3  C   UNL     1       1.039   2.543  18.674  0.00  0.00    +0.000 C 
ATOM      4  C   UNL     1       0.770   2.500  20.199  0.00  0.00    +0.000 C 
ATOM      5  C   UNL     1       1.508   3.615  21.002  0.00  0.00    +0.000 C 
ATOM      6  C   UNL     1       1.869   4.687  19.992  0.00  0.00    +0.000 C 
ATOM      7  C   UNL     1       2.033   6.173  20.044  0.00  0.00    +0.000 A 
ATOM      8  C   UNL     1       1.396   7.095  20.858  0.00  0.00    +0.000 A 
ATOM      9  C   UNL     1       1.277   8.409  20.387  0.00  0.00    +0.000 A 
ATOM     10  C   UNL     1       1.794   8.769  19.127  0.00  0.00    +0.000 A 
ATOM     11  F   UNL     1       1.570  10.006  18.658  0.00  0.00    +0.000 F 
ATOM     12  C   UNL     1       2.472   7.862  18.327  0.00  0.00    +0.000 A 
ATOM     13  C   UNL     1       2.580   6.579  18.813  0.00  0.00    +0.000 A 
ATOM     14  C   UNL     1       3.176   5.417  18.151  0.00  0.00    +0.000 C 
ATOM     15  N   UNL     1       3.814   5.504  17.028  0.00  0.00    +0.000 NA
ENDROOT
BRANCH   1  17
ATOM     16  C   UNL     1       4.541   2.416  19.796  0.00  0.00    +0.000 C 
ATOM     17  O   UNL     1       4.203   3.793  19.749  0.00  0.00    +0.000 OA
ENDBRANCH   1  17
BRANCH  15  18
ATOM     18  O   UNL     1       4.441   4.282  16.784  0.00  0.00    +0.000 OA
BRANCH  18  19
ATOM     19  C   UNL     1       4.926   4.238  15.451  0.00  0.00    +0.000 C 
BRANCH  19  20
ATOM     20  C   UNL     1       6.424   3.937  15.543  0.00  0.00    +0.000 C 
BRANCH  20  21
ATOM     21  O   UNL     1       7.154   4.598  14.493  0.00  0.00    +0.000 OA
ATOM     22  H   UNL     1       8.023   4.848  14.848  0.00  0.00    +0.000 HD
ENDBRANCH  20  21
BRANCH  20  23
ATOM     23  C   UNL     1       7.010   4.389  16.883  0.00  0.00    +0.000 C 
BRANCH  23  24
ATOM     24  N   UNL     1       7.601   5.726  16.810  0.00  0.00    +0.000 NA
ATOM     25  H   UNL     1       7.378   6.136  15.900  0.00  0.00    +0.000 HD
BRANCH  24  26
ATOM     26  C   UNL     1       7.188   6.650  17.872  0.00  0.00    +0.000 C 
ATOM     27  C   UNL     1       6.019   7.546  17.411  0.00  0.00    +0.000 C 
ATOM     28  C   UNL     1       6.679   5.778  19.041  0.00  0.00    +0.000 C 
ATOM     29  C   UNL     1       8.357   7.506  18.373  0.00  0.00    +0.000 C 
ENDBRANCH  24  26
ENDBRANCH  23  24
ENDBRANCH  20  23
ENDBRANCH  19  20
ENDBRANCH  18  19
ENDBRANCH  15  18
TORSDOF 8
ENDMDL
MODEL 4
REMARK VINA RESULT:      -7.4      1.942      3.164
REMARK  Name = 
REMARK  12 active torsions:
REMARK  status: ('A' for Active; 'I' for Inactive)
REMARK    1  A    between atoms: C_1  and  O_2
REMARK    2  A    between atoms: O_2  and  C_3
REMARK    3  A    between atoms: N_17  and  O_18
REMARK    4  A    between atoms: O_18  and  C_19
REMARK    5  A    between atoms: C_19  and  C_20
REMARK    6  A    between atoms: C_20  and  O_21
REMARK    7  A    between atoms: C_20  and  C_22
REMARK    8  A    between atoms: C_22  and  N_23
REMARK    9  A    between atoms: N_23  and  C_24
REMARK   10  A    between atoms: C_24  and  C_25
REMARK   11  A    between atoms: C_24  and  C_26
REMARK   12  A    between atoms: C_24  and  C_27
REMARK                            x       y       z     vdW  Elec       q    Type
REMARK                         _______ _______ _______ _____ _____    ______ ____
ROOT
ATOM      1  C   UNL     1       3.011   4.054  19.098  0.00  0.00    +0.000 C 
ATOM      2  C   UNL     1       2.419   2.691  18.636  0.00  0.00    +0.000 C 
ATOM      3  C   UNL     1       0.967   2.475  19.079  0.00  0.00    +0.000 C 
ATOM      4  C   UNL     1       0.802   2.660  20.608  0.00  0.00    +0.000 C 
ATOM      5  C   UNL     1       1.635   3.841  21.194  0.00  0.00    +0.000 C 
ATOM      6  C   UNL     1       1.964   4.742  20.020  0.00  0.00    +0.000 C 
ATOM      7  C   UNL     1       2.186   6.212  19.848  0.00  0.00    +0.000 A 
ATOM      8  C   UNL     1       1.642   7.268  20.559  0.00  0.00    +0.000 A 
ATOM      9  C   UNL     1       1.539   8.506  19.913  0.00  0.00    +0.000 A 
ATOM     10  C   UNL     1       1.981   8.661  18.584  0.00  0.00    +0.000 A 
ATOM     11  F   UNL     1       1.772   9.829  17.958  0.00  0.00    +0.000 F 
ATOM     12  C   UNL     1       2.569   7.619  17.882  0.00  0.00    +0.000 A 
ATOM     13  C   UNL     1       2.663   6.414  18.540  0.00  0.00    +0.000 A 
ATOM     14  C   UNL     1       3.168   5.145  18.015  0.00  0.00    +0.000 C 
ATOM     15  N   UNL     1       3.731   5.043  16.854  0.00  0.00    +0.000 NA
ENDROOT
BRANCH   1  17
ATOM     16  C   UNL     1       4.521   2.346  20.004  0.00  0.00    +0.000 C 
ATOM     17  O   UNL     1       4.242   3.716  19.762  0.00  0.00    +0.000 OA
ENDBRANCH   1  17
BRANCH  15  18
ATOM     18  O   UNL     1       4.293   3.771  16.749  0.00  0.00    +0.000 OA
BRANCH  18  19
ATOM     19  C   UNL     1       5.707   3.851  16.838  0.00  0.00    +0.000 C 
BRANCH  19  20
ATOM     20  C   UNL     1       6.193   4.459  15.521  0.00  0.00    +0.000 C 
BRANCH  20  21
ATOM     21  O   UNL     1       5.274   4.180  14.448  0.00  0.00    +0.000 OA
ATOM     22  H   UNL     1       5.047   5.025  14.025  0.00  0.00    +0.000 HD
ENDBRANCH  20  21
BRANCH  20  23
ATOM     23  C   UNL     1       6.351   5.979  15.624  0.00  0.00    +0.000 C 
BRANCH  23  24
ATOM     24  N   UNL     1       7.588   6.366  16.303  0.00  0.00    +0.000 NA
ATOM     25  H   UNL     1       8.139   6.955  15.674  0.00  0.00    +0.000 HD
BRANCH  24  26
ATOM     26  C   UNL     1       7.408   7.059  17.582  0.00  0.00    +0.000 C 
ATOM     27  C   UNL     1       8.237   8.360  17.636  0.00  0.00    +0.000 C 
ATOM     28  C   UNL     1       5.916   7.449  17.665  0.00  0.00    +0.000 C 
ATOM     29  C   UNL     1       7.746   6.157  18.775  0.00  0.00    +0.000 C 
ENDBRANCH  24  26
ENDBRANCH  23  24
ENDBRANCH  20  23
ENDBRANCH  19  20
ENDBRANCH  18  19
ENDBRANCH  15  18
TORSDOF 8
ENDMDL
MODEL 5
REMARK VINA RESULT:      -7.4      3.442      7.346
REMARK  Name = 
REMARK  12 active torsions:
REMARK  status: ('A' for Active; 'I' for Inactive)
REMARK    1  A    between atoms: C_1  and  O_2
REMARK    2  A    between atoms: O_2  and  C_3
REMARK    3  A    between atoms: N_17  and  O_18
REMARK    4  A    between atoms: O_18  and  C_19
REMARK    5  A    between atoms: C_19  and  C_20
REMARK    6  A    between atoms: C_20  and  O_21
REMARK    7  A    between atoms: C_20  and  C_22
REMARK    8  A    between atoms: C_22  and  N_23
REMARK    9  A    between atoms: N_23  and  C_24
REMARK   10  A    between atoms: C_24  and  C_25
REMARK   11  A    between atoms: C_24  and  C_26
REMARK   12  A    between atoms: C_24  and  C_27
REMARK                            x       y       z     vdW  Elec       q    Type
REMARK                         _______ _______ _______ _____ _____    ______ ____
ROOT
ATOM      1  C   UNL     1       4.725   5.793  17.260  0.00  0.00    +0.000 C 
ATOM      2  C   UNL     1       5.072   6.623  15.991  0.00  0.00    +0.000 C 
ATOM      3  C   UNL     1       5.231   5.769  14.728  0.00  0.00    +0.000 C 
ATOM      4  C   UNL     1       6.254   4.625  14.936  0.00  0.00    +0.000 C 
ATOM      5  C   UNL     1       6.164   3.946  16.337  0.00  0.00    +0.000 C 
ATOM      6  C   UNL     1       4.789   4.286  16.878  0.00  0.00    +0.000 C 
ATOM      7  C   UNL     1       3.813   3.603  17.783  0.00  0.00    +0.000 A 
ATOM      8  C   UNL     1       3.599   2.249  17.977  0.00  0.00    +0.000 A 
ATOM      9  C   UNL     1       2.331   1.843  18.412  0.00  0.00    +0.000 A 
ATOM     10  C   UNL     1       1.315   2.791  18.644  0.00  0.00    +0.000 A 
ATOM     11  F   UNL     1       0.082   2.365  18.956  0.00  0.00    +0.000 F 
ATOM     12  C   UNL     1       1.536   4.153  18.495  0.00  0.00    +0.000 A 
ATOM     13  C   UNL     1       2.791   4.526  18.071  0.00  0.00    +0.000 A 
ATOM     14  C   UNL     1       3.268   5.876  17.767  0.00  0.00    +0.000 C 
ATOM     15  N   UNL     1       2.562   6.936  17.998  0.00  0.00    +0.000 NA
ENDROOT
BRANCH   1  17
ATOM     16  C   UNL     1       6.799   6.981  17.813  0.00  0.00    +0.000 C 
ATOM     17  O   UNL     1       5.702   6.189  18.239  0.00  0.00    +0.000 OA
ENDBRANCH   1  17
BRANCH  15  18
ATOM     18  O   UNL     1       3.374   8.054  17.810  0.00  0.00    +0.000 OA
BRANCH  18  19
ATOM     19  C   UNL     1       2.582   9.231  17.748  0.00  0.00    +0.000 C 
BRANCH  19  20
ATOM     20  C   UNL     1       1.257   8.899  18.436  0.00  0.00    +0.000 C 
BRANCH  20  21
ATOM     21  O   UNL     1       1.434   8.726  19.854  0.00  0.00    +0.000 OA
ATOM     22  H   UNL     1       1.985   7.937  19.990  0.00  0.00    +0.000 HD
ENDBRANCH  20  21
BRANCH  20  23
ATOM     23  C   UNL     1       0.217  10.004  18.222  0.00  0.00    +0.000 C 
BRANCH  23  24
ATOM     24  N   UNL     1      -0.814   9.619  17.258  0.00  0.00    +0.000 NA
ATOM     25  H   UNL     1      -1.080   8.647  17.430  0.00  0.00    +0.000 HD
BRANCH  24  26
ATOM     26  C   UNL     1      -2.017  10.459  17.263  0.00  0.00    +0.000 C 
ATOM     27  C   UNL     1      -2.464  10.804  15.827  0.00  0.00    +0.000 C 
ATOM     28  C   UNL     1      -3.137   9.620  17.916  0.00  0.00    +0.000 C 
ATOM     29  C   UNL     1      -1.819  11.738  18.086  0.00  0.00    +0.000 C 
ENDBRANCH  24  26
ENDBRANCH  23  24
ENDBRANCH  20  23
ENDBRANCH  19  20
ENDBRANCH  18  19
ENDBRANCH  15  18
TORSDOF 8
ENDMDL
MODEL 6
REMARK VINA RESULT:      -7.4      1.193      1.648
REMARK  Name = 
REMARK  12 active torsions:
REMARK  status: ('A' for Active; 'I' for Inactive)
REMARK    1  A    between atoms: C_1  and  O_2
REMARK    2  A    between atoms: O_2  and  C_3
REMARK    3  A    between atoms: N_17  and  O_18
REMARK    4  A    between atoms: O_18  and  C_19
REMARK    5  A    between atoms: C_19  and  C_20
REMARK    6  A    between atoms: C_20  and  O_21
REMARK    7  A    between atoms: C_20  and  C_22
REMARK    8  A    between atoms: C_22  and  N_23
REMARK    9  A    between atoms: N_23  and  C_24
REMARK   10  A    between atoms: C_24  and  C_25
REMARK   11  A    between atoms: C_24  and  C_26
REMARK   12  A    between atoms: C_24  and  C_27
REMARK                            x       y       z     vdW  Elec       q    Type
REMARK                         _______ _______ _______ _____ _____    ______ ____
ROOT
ATOM      1  C   UNL     1       3.701   4.436  18.363  0.00  0.00    +0.000 C 
ATOM      2  C   UNL     1       3.408   3.272  17.373  0.00  0.00    +0.000 C 
ATOM      3  C   UNL     1       2.076   2.562  17.644  0.00  0.00    +0.000 C 
ATOM      4  C   UNL     1       1.976   2.077  19.112  0.00  0.00    +0.000 C 
ATOM      5  C   UNL     1       2.552   3.088  20.150  0.00  0.00    +0.000 C 
ATOM      6  C   UNL     1       2.588   4.432  19.450  0.00  0.00    +0.000 C 
ATOM      7  C   UNL     1       2.455   5.855  19.891  0.00  0.00    +0.000 A 
ATOM      8  C   UNL     1       1.732   6.380  20.948  0.00  0.00    +0.000 A 
ATOM      9  C   UNL     1       1.305   7.710  20.852  0.00  0.00    +0.000 A 
ATOM     10  C   UNL     1       1.611   8.481  19.713  0.00  0.00    +0.000 A 
ATOM     11  F   UNL     1       1.099   9.716  19.602  0.00  0.00    +0.000 F 
ATOM     12  C   UNL     1       2.374   7.976  18.670  0.00  0.00    +0.000 A 
ATOM     13  C   UNL     1       2.785   6.668  18.790  0.00  0.00    +0.000 A 
ATOM     14  C   UNL     1       3.532   5.871  17.816  0.00  0.00    +0.000 C 
ATOM     15  N   UNL     1       4.025   6.376  16.731  0.00  0.00    +0.000 NA
ENDROOT
BRANCH   1  17
ATOM     16  C   UNL     1       5.746   5.230  19.460  0.00  0.00    +0.000 C 
ATOM     17  O   UNL     1       5.018   4.163  18.875  0.00  0.00    +0.000 OA
ENDBRANCH   1  17
BRANCH  15  18
ATOM     18  O   UNL     1       4.856   5.423  16.142  0.00  0.00    +0.000 OA
BRANCH  18  19
ATOM     19  C   UNL     1       6.192   5.898  16.097  0.00  0.00    +0.000 C 
BRANCH  19  20
ATOM     20  C   UNL     1       7.059   4.719  15.652  0.00  0.00    +0.000 C 
BRANCH  20  21
ATOM     21  O   UNL     1       6.578   3.480  16.204  0.00  0.00    +0.000 OA
ATOM     22  H   UNL     1       6.001   3.695  16.956  0.00  0.00    +0.000 HD
ENDBRANCH  20  21
BRANCH  20  23
ATOM     23  C   UNL     1       7.082   4.578  14.127  0.00  0.00    +0.000 C 
BRANCH  23  24
ATOM     24  N   UNL     1       6.253   3.467  13.657  0.00  0.00    +0.000 NA
ATOM     25  H   UNL     1       5.311   3.573  14.040  0.00  0.00    +0.000 HD
BRANCH  24  26
ATOM     26  C   UNL     1       6.171   3.323  12.200  0.00  0.00    +0.000 C 
ATOM     27  C   UNL     1       6.502   1.881  11.761  0.00  0.00    +0.000 C 
ATOM     28  C   UNL     1       4.704   3.608  11.811  0.00  0.00    +0.000 C 
ATOM     29  C   UNL     1       7.074   4.327  11.473  0.00  0.00    +0.000 C 
ENDBRANCH  24  26
ENDBRANCH  23  24
ENDBRANCH  20  23
ENDBRANCH  19  20
ENDBRANCH  18  19
ENDBRANCH  15  18
TORSDOF 8
ENDMDL
MODEL 7
REMARK VINA RESULT:      -7.3      1.941      3.202
REMARK  Name = 
REMARK  12 active torsions:
REMARK  status: ('A' for Active; 'I' for Inactive)
REMARK    1  A    between atoms: C_1  and  O_2
REMARK    2  A    between atoms: O_2  and  C_3
REMARK    3  A    between atoms: N_17  and  O_18
REMARK    4  A    between atoms: O_18  and  C_19
REMARK    5  A    between atoms: C_19  and  C_20
REMARK    6  A    between atoms: C_20  and  O_21
REMARK    7  A    between atoms: C_20  and  C_22
REMARK    8  A    between atoms: C_22  and  N_23
REMARK    9  A    between atoms: N_23  and  C_24
REMARK   10  A    between atoms: C_24  and  C_25
REMARK   11  A    between atoms: C_24  and  C_26
REMARK   12  A    between atoms: C_24  and  C_27
REMARK                            x       y       z     vdW  Elec       q    Type
REMARK                         _______ _______ _______ _____ _____    ______ ____
ROOT
ATOM      1  C   UNL     1       2.830   4.221  19.067  0.00  0.00    +0.000 C 
ATOM      2  C   UNL     1       2.287   2.966  18.324  0.00  0.00    +0.000 C 
ATOM      3  C   UNL     1       0.825   2.646  18.656  0.00  0.00    +0.000 C 
ATOM      4  C   UNL     1       0.600   2.524  20.185  0.00  0.00    +0.000 C 
ATOM      5  C   UNL     1       1.383   3.580  21.023  0.00  0.00    +0.000 C 
ATOM      6  C   UNL     1       1.735   4.699  20.062  0.00  0.00    +0.000 C 
ATOM      7  C   UNL     1       1.930   6.177  20.190  0.00  0.00    +0.000 A 
ATOM      8  C   UNL     1       1.336   7.065  21.070  0.00  0.00    +0.000 A 
ATOM      9  C   UNL     1       1.229   8.404  20.675  0.00  0.00    +0.000 A 
ATOM     10  C   UNL     1       1.716   8.823  19.421  0.00  0.00    +0.000 A 
ATOM     11  F   UNL     1       1.504  10.088  19.027  0.00  0.00    +0.000 F 
ATOM     12  C   UNL     1       2.353   7.948  18.553  0.00  0.00    +0.000 A 
ATOM     13  C   UNL     1       2.449   6.639  18.966  0.00  0.00    +0.000 A 
ATOM     14  C   UNL     1       3.002   5.505  18.225  0.00  0.00    +0.000 C 
ATOM     15  N   UNL     1       3.610   5.641  17.090  0.00  0.00    +0.000 NA
ENDROOT
BRANCH   1  17
ATOM     16  C   UNL     1       4.368   2.398  19.642  0.00  0.00    +0.000 C 
ATOM     17  O   UNL     1       4.043   3.778  19.701  0.00  0.00    +0.000 OA
ENDBRANCH   1  17
BRANCH  15  18
ATOM     18  O   UNL     1       4.204   4.423  16.762  0.00  0.00    +0.000 OA
BRANCH  18  19
ATOM     19  C   UNL     1       4.686   4.456  15.427  0.00  0.00    +0.000 C 
BRANCH  19  20
ATOM     20  C   UNL     1       6.074   3.813  15.449  0.00  0.00    +0.000 C 
BRANCH  20  21
ATOM     21  O   UNL     1       6.441   3.319  14.148  0.00  0.00    +0.000 OA
ATOM     22  H   UNL     1       6.729   4.078  13.613  0.00  0.00    +0.000 HD
ENDBRANCH  20  21
BRANCH  20  23
ATOM     23  C   UNL     1       7.150   4.807  15.897  0.00  0.00    +0.000 C 
BRANCH  23  24
ATOM     24  N   UNL     1       6.641   5.783  16.861  0.00  0.00    +0.000 NA
ATOM     25  H   UNL     1       5.638   5.628  16.989  0.00  0.00    +0.000 HD
BRANCH  24  26
ATOM     26  C   UNL     1       7.304   5.774  18.169  0.00  0.00    +0.000 C 
ATOM     27  C   UNL     1       8.347   4.639  18.259  0.00  0.00    +0.000 C 
ATOM     28  C   UNL     1       8.058   7.116  18.290  0.00  0.00    +0.000 C 
ATOM     29  C   UNL     1       6.297   5.671  19.321  0.00  0.00    +0.000 C 
ENDBRANCH  24  26
ENDBRANCH  23  24
ENDBRANCH  20  23
ENDBRANCH  19  20
ENDBRANCH  18  19
ENDBRANCH  15  18
TORSDOF 8
ENDMDL
MODEL 8
REMARK VINA RESULT:      -7.2      3.281      7.557
REMARK  Name = 
REMARK  12 active torsions:
REMARK  status: ('A' for Active; 'I' for Inactive)
REMARK    1  A    between atoms: C_1  and  O_2
REMARK    2  A    between atoms: O_2  and  C_3
REMARK    3  A    between atoms: N_17  and  O_18
REMARK    4  A    between atoms: O_18  and  C_19
REMARK    5  A    between atoms: C_19  and  C_20
REMARK    6  A    between atoms: C_20  and  O_21
REMARK    7  A    between atoms: C_20  and  C_22
REMARK    8  A    between atoms: C_22  and  N_23
REMARK    9  A    between atoms: N_23  and  C_24
REMARK   10  A    between atoms: C_24  and  C_25
REMARK   11  A    between atoms: C_24  and  C_26
REMARK   12  A    between atoms: C_24  and  C_27
REMARK                            x       y       z     vdW  Elec       q    Type
REMARK                         _______ _______ _______ _____ _____    ______ ____
ROOT
ATOM      1  C   UNL     1       4.755   5.667  17.255  0.00  0.00    +0.000 C 
ATOM      2  C   UNL     1       5.109   6.524  16.006  0.00  0.00    +0.000 C 
ATOM      3  C   UNL     1       5.267   5.698  14.724  0.00  0.00    +0.000 C 
ATOM      4  C   UNL     1       6.285   4.545  14.909  0.00  0.00    +0.000 C 
ATOM      5  C   UNL     1       6.188   3.835  16.294  0.00  0.00    +0.000 C 
ATOM      6  C   UNL     1       4.813   4.169  16.839  0.00  0.00    +0.000 C 
ATOM      7  C   UNL     1       3.832   3.470  17.726  0.00  0.00    +0.000 A 
ATOM      8  C   UNL     1       3.612   2.113  17.889  0.00  0.00    +0.000 A 
ATOM      9  C   UNL     1       2.341   1.703  18.312  0.00  0.00    +0.000 A 
ATOM     10  C   UNL     1       1.328   2.650  18.563  0.00  0.00    +0.000 A 
ATOM     11  F   UNL     1       0.093   2.222  18.862  0.00  0.00    +0.000 F 
ATOM     12  C   UNL     1       1.556   4.014  18.445  0.00  0.00    +0.000 A 
ATOM     13  C   UNL     1       2.813   4.391  18.033  0.00  0.00    +0.000 A 
ATOM     14  C   UNL     1       3.298   5.745  17.760  0.00  0.00    +0.000 C 
ATOM     15  N   UNL     1       2.595   6.803  18.013  0.00  0.00    +0.000 NA
ENDROOT
BRANCH   1  17
ATOM     16  C   UNL     1       6.833   6.833  17.839  0.00  0.00    +0.000 C 
ATOM     17  O   UNL     1       5.732   6.036  18.245  0.00  0.00    +0.000 OA
ENDBRANCH   1  17
BRANCH  15  18
ATOM     18  O   UNL     1       3.413   7.921  17.852  0.00  0.00    +0.000 OA
BRANCH  18  19
ATOM     19  C   UNL     1       2.623   9.097  17.760  0.00  0.00    +0.000 C 
BRANCH  19  20
ATOM     20  C   UNL     1       1.338   8.820  18.543  0.00  0.00    +0.000 C 
BRANCH  20  21
ATOM     21  O   UNL     1       1.608   8.651  19.947  0.00  0.00    +0.000 OA
ATOM     22  H   UNL     1       2.356   8.037  20.033  0.00  0.00    +0.000 HD
ENDBRANCH  20  21
BRANCH  20  23
ATOM     23  C   UNL     1       0.327   9.960  18.391  0.00  0.00    +0.000 C 
BRANCH  23  24
ATOM     24  N   UNL     1       0.975  11.258  18.193  0.00  0.00    +0.000 NA
ATOM     25  H   UNL     1       0.811  11.565  17.232  0.00  0.00    +0.000 HD
BRANCH  24  26
ATOM     26  C   UNL     1       0.553  12.313  19.119  0.00  0.00    +0.000 C 
ATOM     27  C   UNL     1      -0.222  11.728  20.319  0.00  0.00    +0.000 C 
ATOM     28  C   UNL     1       1.843  12.963  19.664  0.00  0.00    +0.000 C 
ATOM     29  C   UNL     1      -0.280  13.393  18.416  0.00  0.00    +0.000 C 
ENDBRANCH  24  26
ENDBRANCH  23  24
ENDBRANCH  20  23
ENDBRANCH  19  20
ENDBRANCH  18  19
ENDBRANCH  15  18
TORSDOF 8
ENDMDL
MODEL 9
REMARK VINA RESULT:      -7.2      3.351      7.565
REMARK  Name = 
REMARK  12 active torsions:
REMARK  status: ('A' for Active; 'I' for Inactive)
REMARK    1  A    between atoms: C_1  and  O_2
REMARK    2  A    between atoms: O_2  and  C_3
REMARK    3  A    between atoms: N_17  and  O_18
REMARK    4  A    between atoms: O_18  and  C_19
REMARK    5  A    between atoms: C_19  and  C_20
REMARK    6  A    between atoms: C_20  and  O_21
REMARK    7  A    between atoms: C_20  and  C_22
REMARK    8  A    between atoms: C_22  and  N_23
REMARK    9  A    between atoms: N_23  and  C_24
REMARK   10  A    between atoms: C_24  and  C_25
REMARK   11  A    between atoms: C_24  and  C_26
REMARK   12  A    between atoms: C_24  and  C_27
REMARK                            x       y       z     vdW  Elec       q    Type
REMARK                         _______ _______ _______ _____ _____    ______ ____
ROOT
ATOM      1  C   UNL     1       4.768   5.710  17.202  0.00  0.00    +0.000 C 
ATOM      2  C   UNL     1       5.122   6.502  15.910  0.00  0.00    +0.000 C 
ATOM      3  C   UNL     1       5.267   5.613  14.669  0.00  0.00    +0.000 C 
ATOM      4  C   UNL     1       6.277   4.462  14.906  0.00  0.00    +0.000 C 
ATOM      5  C   UNL     1       6.182   3.822  16.325  0.00  0.00    +0.000 C 
ATOM      6  C   UNL     1       4.813   4.193  16.860  0.00  0.00    +0.000 C 
ATOM      7  C   UNL     1       3.831   3.546  17.785  0.00  0.00    +0.000 A 
ATOM      8  C   UNL     1       3.602   2.201  18.016  0.00  0.00    +0.000 A 
ATOM      9  C   UNL     1       2.330   1.822  18.464  0.00  0.00    +0.000 A 
ATOM     10  C   UNL     1       1.326   2.788  18.673  0.00  0.00    +0.000 A 
ATOM     11  F   UNL     1       0.088   2.385  18.999  0.00  0.00    +0.000 F 
ATOM     12  C   UNL     1       1.563   4.142  18.487  0.00  0.00    +0.000 A 
ATOM     13  C   UNL     1       2.821   4.489  18.051  0.00  0.00    +0.000 A 
ATOM     14  C   UNL     1       3.314   5.824  17.710  0.00  0.00    +0.000 C 
ATOM     15  N   UNL     1       2.621   6.899  17.914  0.00  0.00    +0.000 NA
ENDROOT
BRANCH   1  17
ATOM     16  C   UNL     1       6.808   6.964  17.735  0.00  0.00    +0.000 C 
ATOM     17  O   UNL     1       5.753   6.120  18.168  0.00  0.00    +0.000 OA
ENDBRANCH   1  17
BRANCH  15  18
ATOM     18  O   UNL     1       3.446   8.001  17.694  0.00  0.00    +0.000 OA
BRANCH  18  19
ATOM     19  C   UNL     1       2.731   9.204  17.931  0.00  0.00    +0.000 C 
BRANCH  19  20
ATOM     20  C   UNL     1       1.354   8.795  18.460  0.00  0.00    +0.000 C 
BRANCH  20  21
ATOM     21  O   UNL     1       1.326   8.799  19.899  0.00  0.00    +0.000 OA
ATOM     22  H   UNL     1       1.192   9.716  20.191  0.00  0.00    +0.000 HD
ENDBRANCH  20  21
BRANCH  20  23
ATOM     23  C   UNL     1       0.255   9.738  17.963  0.00  0.00    +0.000 C 
BRANCH  23  24
ATOM     24  N   UNL     1       0.529  11.137  18.295  0.00  0.00    +0.000 NA
ATOM     25  H   UNL     1       0.955  11.591  17.484  0.00  0.00    +0.000 HD
BRANCH  24  26
ATOM     26  C   UNL     1      -0.636  11.914  18.730  0.00  0.00    +0.000 C 
ATOM     27  C   UNL     1      -0.446  13.418  18.439  0.00  0.00    +0.000 C 
ATOM     28  C   UNL     1      -1.834  11.422  17.888  0.00  0.00    +0.000 C 
ATOM     29  C   UNL     1      -0.954  11.689  20.213  0.00  0.00    +0.000 C 
ENDBRANCH  24  26
ENDBRANCH  23  24
ENDBRANCH  20  23
ENDBRANCH  19  20
ENDBRANCH  18  19
ENDBRANCH  15  18
TORSDOF 8
ENDMDL
