MODEL 1
REMARK VINA RESULT:      -6.7      0.000      0.000
REMARK  Name = 
REMARK  5 active torsions:
REMARK  status: ('A' for Active; 'I' for Inactive)
REMARK    1  A    between atoms: C_2  and  O_3
REMARK    2  A    between atoms: C_2  and  C_4
REMARK    3  A    between atoms: C_9  and  C_11
REMARK    4  A    between atoms: C_11  and  C_12
REMARK    5  A    between atoms: C_12  and  S_13
REMARK                            x       y       z     vdW  Elec       q    Type
REMARK                         _______ _______ _______ _____ _____    ______ ____
ROOT
ATOM      1  C   UNL     1       5.926   5.579  18.326  0.00  0.00    +0.000 C 
ATOM      2  C   UNL     1       4.830   5.247  19.364  0.00  0.00    +0.000 C 
ATOM      3  C   UNL     1       3.905   4.201  18.721  0.00  0.00    +0.000 C 
ATOM      4  C   UNL     1       4.409   4.063  17.283  0.00  0.00    +0.000 C 
ATOM      5  N   UNL     1       5.793   4.522  17.307  0.00  0.00    +0.000 N 
ATOM      6  C   UNL     1       6.607   4.477  16.189  0.00  0.00    +0.000 C 
ATOM      7  O   UNL     1       7.722   4.993  16.220  0.00  0.00    +0.000 OA
ATOM      8  S   UNL     1       2.161   4.749  18.774  0.00  0.00    +0.000 S 
ATOM      9  C   UNL     1       1.488   3.374  19.746  0.00  0.00    +0.000 C 
ATOM     10  C   UNL     1       2.581   2.776  20.607  0.00  0.00    +0.000 C 
ATOM     11  S   UNL     1       4.046   2.582  19.571  0.00  0.00    +0.000 S 
ENDROOT
BRANCH   1  13
ATOM     12  O   UNL     1       7.490   5.227  20.147  0.00  0.00    +0.000 OA
ATOM     13  C   UNL     1       7.227   5.831  19.113  0.00  0.00    +0.000 C 
BRANCH  13  14
ATOM     14  O   UNL     1       8.065   6.744  18.593  0.00  0.00    +0.000 OA
ATOM     15  H   UNL     1       7.615   7.603  18.437  0.00  0.00    +0.000 HD
ENDBRANCH  13  14
ENDBRANCH   1  13
BRANCH   6  16
ATOM     16  C   UNL     1       6.082   3.704  14.991  0.00  0.00    +0.000 C 
BRANCH  16  17
ATOM     17  C   UNL     1       6.552   4.286  13.668  0.00  0.00    +0.000 C 
BRANCH  17  18
ATOM     18  S   UNL     1       5.909   3.275  12.295  0.00  0.00    +0.000 S 
ATOM     19  H   UNL     1       5.122   2.477  13.033  0.00  0.00    +0.000 HD
ENDBRANCH  17  18
ENDBRANCH  16  17
ENDBRANCH   6  16
TORSDOF 5
ENDMDL
MODEL 2
REMARK VINA RESULT:      -6.4      0.915      1.044
REMARK  Name = 
REMARK  5 active torsions:
REMARK  status: ('A' for Active; 'I' for Inactive)
REMARK    1  A    between atoms: C_2  and  O_3
REMARK    2  A    between atoms: C_2  and  C_4
REMARK    3  A    between atoms: C_9  and  C_11
REMARK    4  A    between atoms: C_11  and  C_12
REMARK    5  A    between atoms: C_12  and  S_13
REMARK                            x       y       z     vdW  Elec       q    Type
REMARK                         _______ _______ _______ _____ _____    ______ ____
ROOT
ATOM      1  C   UNL     1       6.228   5.214  17.874  0.00  0.00    +0.000 C 
ATOM      2  C   UNL     1       5.222   4.852  18.990  0.00  0.00    +0.000 C 
ATOM      3  C   UNL     1       3.985   4.253  18.302  0.00  0.00    +0.000 C 
ATOM      4  C   UNL     1       4.252   4.415  16.805  0.00  0.00    +0.000 C 
ATOM      5  N   UNL     1       5.699   4.538  16.676  0.00  0.00    +0.000 N 
ATOM      6  C   UNL     1       6.327   4.631  15.446  0.00  0.00    +0.000 C 
ATOM      7  O   UNL     1       7.533   4.864  15.389  0.00  0.00    +0.000 OA
ATOM      8  S   UNL     1       2.463   5.128  18.814  0.00  0.00    +0.000 S 
ATOM      9  C   UNL     1       1.584   3.716  19.537  0.00  0.00    +0.000 C 
ATOM     10  C   UNL     1       2.584   2.680  20.008  0.00  0.00    +0.000 C 
ATOM     11  S   UNL     1       3.808   2.470  18.697  0.00  0.00    +0.000 S 
ENDROOT
BRANCH   1  13
ATOM     12  O   UNL     1       8.075   5.556  19.410  0.00  0.00    +0.000 OA
ATOM     13  C   UNL     1       7.637   4.950  18.438  0.00  0.00    +0.000 C 
BRANCH  13  14
ATOM     14  O   UNL     1       8.358   4.005  17.809  0.00  0.00    +0.000 OA
ATOM     15  H   UNL     1       9.319   4.109  17.980  0.00  0.00    +0.000 HD
ENDBRANCH  13  14
ENDBRANCH   1  13
BRANCH   6  16
ATOM     16  C   UNL     1       5.474   4.355  14.219  0.00  0.00    +0.000 C 
BRANCH  16  17
ATOM     17  C   UNL     1       6.255   3.680  13.104  0.00  0.00    +0.000 C 
BRANCH  17  18
ATOM     18  S   UNL     1       5.098   3.052  11.844  0.00  0.00    +0.000 S 
ATOM     19  H   UNL     1       4.183   2.559  12.693  0.00  0.00    +0.000 HD
ENDBRANCH  17  18
ENDBRANCH  16  17
ENDBRANCH   6  16
TORSDOF 5
ENDMDL
MODEL 3
REMARK VINA RESULT:      -6.2      1.057      1.137
REMARK  Name = 
REMARK  5 active torsions:
REMARK  status: ('A' for Active; 'I' for Inactive)
REMARK    1  A    between atoms: C_2  and  O_3
REMARK    2  A    between atoms: C_2  and  C_4
REMARK    3  A    between atoms: C_9  and  C_11
REMARK    4  A    between atoms: C_11  and  C_12
REMARK    5  A    between atoms: C_12  and  S_13
REMARK                            x       y       z     vdW  Elec       q    Type
REMARK                         _______ _______ _______ _____ _____    ______ ____
ROOT
ATOM      1  C   UNL     1       5.856   6.184  17.161  0.00  0.00    +0.000 C 
ATOM      2  C   UNL     1       4.879   5.962  18.338  0.00  0.00    +0.000 C 
ATOM      3  C   UNL     1       4.072   4.693  18.017  0.00  0.00    +0.000 C 
ATOM      4  C   UNL     1       4.505   4.299  16.604  0.00  0.00    +0.000 C 
ATOM      5  N   UNL     1       5.810   4.918  16.408  0.00  0.00    +0.000 N 
ATOM      6  C   UNL     1       6.555   4.723  15.258  0.00  0.00    +0.000 C 
ATOM      7  O   UNL     1       7.589   5.365  15.080  0.00  0.00    +0.000 OA
ATOM      8  S   UNL     1       2.275   5.021  18.105  0.00  0.00    +0.000 S 
ATOM      9  C   UNL     1       1.857   3.827  19.405  0.00  0.00    +0.000 C 
ATOM     10  C   UNL     1       3.072   3.575  20.275  0.00  0.00    +0.000 C 
ATOM     11  S   UNL     1       4.486   3.335  19.179  0.00  0.00    +0.000 S 
ENDROOT
BRANCH   1  13
ATOM     12  O   UNL     1       7.631   6.345  18.807  0.00  0.00    +0.000 OA
ATOM     13  C   UNL     1       7.153   6.763  17.758  0.00  0.00    +0.000 C 
BRANCH  13  14
ATOM     14  O   UNL     1       7.740   7.747  17.055  0.00  0.00    +0.000 OA
ATOM     15  H   UNL     1       8.274   7.392  16.312  0.00  0.00    +0.000 HD
ENDBRANCH  13  14
ENDBRANCH   1  13
BRANCH   6  16
ATOM     16  C   UNL     1       6.073   3.643  14.304  0.00  0.00    +0.000 C 
BRANCH  16  17
ATOM     17  C   UNL     1       6.525   3.883  12.873  0.00  0.00    +0.000 C 
BRANCH  17  18
ATOM     18  S   UNL     1       5.577   2.808  11.747  0.00  0.00    +0.000 S 
ATOM     19  H   UNL     1       6.173   1.653  12.082  0.00  0.00    +0.000 HD
ENDBRANCH  17  18
ENDBRANCH  16  17
ENDBRANCH   6  16
TORSDOF 5
ENDMDL
MODEL 4
REMARK VINA RESULT:      -5.6      2.574      4.183
REMARK  Name = 
REMARK  5 active torsions:
REMARK  status: ('A' for Active; 'I' for Inactive)
REMARK    1  A    between atoms: C_2  and  O_3
REMARK    2  A    between atoms: C_2  and  C_4
REMARK    3  A    between atoms: C_9  and  C_11
REMARK    4  A    between atoms: C_11  and  C_12
REMARK    5  A    between atoms: C_12  and  S_13
REMARK                            x       y       z     vdW  Elec       q    Type
REMARK                         _______ _______ _______ _____ _____    ______ ____
ROOT
ATOM      1  C   UNL     1       5.901   4.185  16.427  0.00  0.00    +0.000 C 
ATOM      2  C   UNL     1       4.602   3.602  17.029  0.00  0.00    +0.000 C 
ATOM      3  C   UNL     1       4.339   4.355  18.343  0.00  0.00    +0.000 C 
ATOM      4  C   UNL     1       5.564   5.250  18.534  0.00  0.00    +0.000 C 
ATOM      5  N   UNL     1       6.141   5.413  17.205  0.00  0.00    +0.000 N 
ATOM      6  C   UNL     1       7.236   6.227  16.968  0.00  0.00    +0.000 C 
ATOM      7  O   UNL     1       7.768   6.233  15.860  0.00  0.00    +0.000 OA
ATOM      8  S   UNL     1       4.133   3.189  19.736  0.00  0.00    +0.000 S 
ATOM      9  C   UNL     1       2.450   3.660  20.221  0.00  0.00    +0.000 C 
ATOM     10  C   UNL     1       1.719   4.240  19.027  0.00  0.00    +0.000 C 
ATOM     11  S   UNL     1       2.837   5.402  18.216  0.00  0.00    +0.000 S 
ENDROOT
BRANCH   1  13
ATOM     12  O   UNL     1       5.018   4.990  14.316  0.00  0.00    +0.000 OA
ATOM     13  C   UNL     1       5.729   4.177  14.896  0.00  0.00    +0.000 C 
BRANCH  13  14
ATOM     14  O   UNL     1       6.414   3.233  14.228  0.00  0.00    +0.000 OA
ATOM     15  H   UNL     1       5.822   2.529  13.885  0.00  0.00    +0.000 HD
ENDBRANCH  13  14
ENDBRANCH   1  13
BRANCH   6  16
ATOM     16  C   UNL     1       7.670   7.138  18.104  0.00  0.00    +0.000 C 
BRANCH  16  17
ATOM     17  C   UNL     1       7.804   8.588  17.671  0.00  0.00    +0.000 C 
BRANCH  17  18
ATOM     18  S   UNL     1       8.886   9.475  18.838  0.00  0.00    +0.000 S 
ATOM     19  H   UNL     1       9.964   8.689  18.692  0.00  0.00    +0.000 HD
ENDBRANCH  17  18
ENDBRANCH  16  17
ENDBRANCH   6  16
TORSDOF 5
ENDMDL
MODEL 5
REMARK VINA RESULT:      -5.6      3.625      6.159
REMARK  Name = 
REMARK  5 active torsions:
REMARK  status: ('A' for Active; 'I' for Inactive)
REMARK    1  A    between atoms: C_2  and  O_3
REMARK    2  A    between atoms: C_2  and  C_4
REMARK    3  A    between atoms: C_9  and  C_11
REMARK    4  A    between atoms: C_11  and  C_12
REMARK    5  A    between atoms: C_12  and  S_13
REMARK                            x       y       z     vdW  Elec       q    Type
REMARK                         _______ _______ _______ _____ _____    ______ ____
ROOT
ATOM      1  C   UNL     1       3.039   3.841  19.046  0.00  0.00    +0.000 C 
ATOM      2  C   UNL     1       4.315   3.514  18.237  0.00  0.00    +0.000 C 
ATOM      3  C   UNL     1       4.928   4.856  17.806  0.00  0.00    +0.000 C 
ATOM      4  C   UNL     1       3.917   5.912  18.255  0.00  0.00    +0.000 C 
ATOM      5  N   UNL     1       3.143   5.286  19.320  0.00  0.00    +0.000 N 
ATOM      6  C   UNL     1       2.168   5.969  20.026  0.00  0.00    +0.000 C 
ATOM      7  O   UNL     1       1.452   5.367  20.824  0.00  0.00    +0.000 OA
ATOM      8  S   UNL     1       5.193   4.903  15.997  0.00  0.00    +0.000 S 
ATOM      9  C   UNL     1       6.989   5.154  16.005  0.00  0.00    +0.000 C 
ATOM     10  C   UNL     1       7.576   4.598  17.287  0.00  0.00    +0.000 C 
ATOM     11  S   UNL     1       6.530   5.153  18.650  0.00  0.00    +0.000 S 
ENDROOT
BRANCH   1  13
ATOM     12  O   UNL     1       3.916   2.277  20.680  0.00  0.00    +0.000 OA
ATOM     13  C   UNL     1       2.928   2.780  20.157  0.00  0.00    +0.000 C 
BRANCH  13  14
ATOM     14  O   UNL     1       1.681   2.443  20.532  0.00  0.00    +0.000 OA
ATOM     15  H   UNL     1       1.620   2.301  21.501  0.00  0.00    +0.000 HD
ENDBRANCH  13  14
ENDBRANCH   1  13
BRANCH   6  16
ATOM     16  C   UNL     1       2.098   7.473  19.817  0.00  0.00    +0.000 C 
BRANCH  16  17
ATOM     17  C   UNL     1       1.342   8.183  20.928  0.00  0.00    +0.000 C 
BRANCH  17  18
ATOM     18  S   UNL     1       0.554   9.686  20.264  0.00  0.00    +0.000 S 
ATOM     19  H   UNL     1       1.475   9.952  19.324  0.00  0.00    +0.000 HD
ENDBRANCH  17  18
ENDBRANCH  16  17
ENDBRANCH   6  16
TORSDOF 5
ENDMDL
MODEL 6
REMARK VINA RESULT:      -5.4      1.002      1.002
REMARK  Name = 
REMARK  5 active torsions:
REMARK  status: ('A' for Active; 'I' for Inactive)
REMARK    1  A    between atoms: C_2  and  O_3
REMARK    2  A    between atoms: C_2  and  C_4
REMARK    3  A    between atoms: C_9  and  C_11
REMARK    4  A    between atoms: C_11  and  C_12
REMARK    5  A    between atoms: C_12  and  S_13
REMARK                            x       y       z     vdW  Elec       q    Type
REMARK                         _______ _______ _______ _____ _____    ______ ____
ROOT
ATOM      1  C   UNL     1       6.052   5.502  18.622  0.00  0.00    +0.000 C 
ATOM      2  C   UNL     1       4.948   5.209  19.663  0.00  0.00    +0.000 C 
ATOM      3  C   UNL     1       4.018   4.152  19.044  0.00  0.00    +0.000 C 
ATOM      4  C   UNL     1       4.528   3.970  17.614  0.00  0.00    +0.000 C 
ATOM      5  N   UNL     1       5.915   4.419  17.632  0.00  0.00    +0.000 N 
ATOM      6  C   UNL     1       6.735   4.336  16.520  0.00  0.00    +0.000 C 
ATOM      7  O   UNL     1       7.854   4.843  16.543  0.00  0.00    +0.000 OA
ATOM      8  S   UNL     1       2.278   4.715  19.073  0.00  0.00    +0.000 S 
ATOM      9  C   UNL     1       1.589   3.373  20.079  0.00  0.00    +0.000 C 
ATOM     10  C   UNL     1       2.673   2.790  20.963  0.00  0.00    +0.000 C 
ATOM     11  S   UNL     1       4.142   2.556  19.940  0.00  0.00    +0.000 S 
ENDROOT
BRANCH   1  13
ATOM     12  O   UNL     1       7.611   5.179  20.453  0.00  0.00    +0.000 OA
ATOM     13  C   UNL     1       7.350   5.766  19.408  0.00  0.00    +0.000 C 
BRANCH  13  14
ATOM     14  O   UNL     1       8.192   6.670  18.876  0.00  0.00    +0.000 OA
ATOM     15  H   UNL     1       8.376   7.404  19.501  0.00  0.00    +0.000 HD
ENDBRANCH  13  14
ENDBRANCH   1  13
BRANCH   6  16
ATOM     16  C   UNL     1       6.210   3.534  15.341  0.00  0.00    +0.000 C 
BRANCH  16  17
ATOM     17  C   UNL     1       5.794   4.413  14.174  0.00  0.00    +0.000 C 
BRANCH  17  18
ATOM     18  S   UNL     1       5.360   6.074  14.787  0.00  0.00    +0.000 S 
ATOM     19  H   UNL     1       5.234   6.664  13.589  0.00  0.00    +0.000 HD
ENDBRANCH  17  18
ENDBRANCH  16  17
ENDBRANCH   6  16
TORSDOF 5
ENDMDL
MODEL 7
REMARK VINA RESULT:      -5.2      3.387      5.775
REMARK  Name = 
REMARK  5 active torsions:
REMARK  status: ('A' for Active; 'I' for Inactive)
REMARK    1  A    between atoms: C_2  and  O_3
REMARK    2  A    between atoms: C_2  and  C_4
REMARK    3  A    between atoms: C_9  and  C_11
REMARK    4  A    between atoms: C_11  and  C_12
REMARK    5  A    between atoms: C_12  and  S_13
REMARK                            x       y       z     vdW  Elec       q    Type
REMARK                         _______ _______ _______ _____ _____    ______ ____
ROOT
ATOM      1  C   UNL     1       3.458   6.714  19.173  0.00  0.00    +0.000 C 
ATOM      2  C   UNL     1       4.513   6.653  18.045  0.00  0.00    +0.000 C 
ATOM      3  C   UNL     1       5.053   5.215  18.013  0.00  0.00    +0.000 C 
ATOM      4  C   UNL     1       4.401   4.524  19.211  0.00  0.00    +0.000 C 
ATOM      5  N   UNL     1       3.204   5.301  19.508  0.00  0.00    +0.000 N 
ATOM      6  C   UNL     1       2.310   4.933  20.499  0.00  0.00    +0.000 C 
ATOM      7  O   UNL     1       1.386   5.685  20.801  0.00  0.00    +0.000 OA
ATOM      8  S   UNL     1       6.878   5.199  18.136  0.00  0.00    +0.000 S 
ATOM      9  C   UNL     1       7.236   4.371  16.562  0.00  0.00    +0.000 C 
ATOM     10  C   UNL     1       6.104   4.620  15.586  0.00  0.00    +0.000 C 
ATOM     11  S   UNL     1       4.553   4.355  16.471  0.00  0.00    +0.000 S 
ENDROOT
BRANCH   1  13
ATOM     12  O   UNL     1       2.090   7.842  17.518  0.00  0.00    +0.000 OA
ATOM     13  C   UNL     1       2.354   7.680  18.705  0.00  0.00    +0.000 C 
BRANCH  13  14
ATOM     14  O   UNL     1       1.685   8.330  19.673  0.00  0.00    +0.000 OA
ATOM     15  H   UNL     1       1.639   9.294  19.497  0.00  0.00    +0.000 HD
ENDBRANCH  13  14
ENDBRANCH   1  13
BRANCH   6  16
ATOM     16  C   UNL     1       2.492   3.552  21.107  0.00  0.00    +0.000 C 
BRANCH  16  17
ATOM     17  C   UNL     1       1.309   2.636  20.840  0.00  0.00    +0.000 C 
BRANCH  17  18
ATOM     18  S   UNL     1       1.066   2.462  19.042  0.00  0.00    +0.000 S 
ATOM     19  H   UNL     1       1.993   3.356  18.664  0.00  0.00    +0.000 HD
ENDBRANCH  17  18
ENDBRANCH  16  17
ENDBRANCH   6  16
TORSDOF 5
ENDMDL
MODEL 8
REMARK VINA RESULT:      -5.1      3.775      6.267
REMARK  Name = 
REMARK  5 active torsions:
REMARK  status: ('A' for Active; 'I' for Inactive)
REMARK    1  A    between atoms: C_2  and  O_3
REMARK    2  A    between atoms: C_2  and  C_4
REMARK    3  A    between atoms: C_9  and  C_11
REMARK    4  A    between atoms: C_11  and  C_12
REMARK    5  A    between atoms: C_12  and  S_13
REMARK                            x       y       z     vdW  Elec       q    Type
REMARK                         _______ _______ _______ _____ _____    ______ ____
ROOT
ATOM      1  C   UNL     1       2.625   3.799  18.119  0.00  0.00    +0.000 C 
ATOM      2  C   UNL     1       3.961   3.819  17.342  0.00  0.00    +0.000 C 
ATOM      3  C   UNL     1       4.741   5.053  17.823  0.00  0.00    +0.000 C 
ATOM      4  C   UNL     1       3.777   5.787  18.757  0.00  0.00    +0.000 C 
ATOM      5  N   UNL     1       2.819   4.781  19.200  0.00  0.00    +0.000 N 
ATOM      6  C   UNL     1       1.825   5.062  20.122  0.00  0.00    +0.000 C 
ATOM      7  O   UNL     1       0.962   4.222  20.368  0.00  0.00    +0.000 OA
ATOM      8  S   UNL     1       5.242   6.102  16.411  0.00  0.00    +0.000 S 
ATOM      9  C   UNL     1       7.036   6.033  16.661  0.00  0.00    +0.000 C 
ATOM     10  C   UNL     1       7.401   4.757  17.393  0.00  0.00    +0.000 C 
ATOM     11  S   UNL     1       6.240   4.564  18.762  0.00  0.00    +0.000 S 
ENDROOT
BRANCH   1  13
ATOM     12  O   UNL     1       3.141   1.453  18.460  0.00  0.00    +0.000 OA
ATOM     13  C   UNL     1       2.278   2.320  18.376  0.00  0.00    +0.000 C 
BRANCH  13  14
ATOM     14  O   UNL     1       0.972   2.035  18.518  0.00  0.00    +0.000 OA
ATOM     15  H   UNL     1       0.647   1.456  17.794  0.00  0.00    +0.000 HD
ENDBRANCH  13  14
ENDBRANCH   1  13
BRANCH   6  16
ATOM     16  C   UNL     1       1.916   6.397  20.842  0.00  0.00    +0.000 C 
BRANCH  16  17
ATOM     17  C   UNL     1       1.521   7.567  19.956  0.00  0.00    +0.000 C 
BRANCH  17  18
ATOM     18  S   UNL     1       0.907   8.935  20.992  0.00  0.00    +0.000 S 
ATOM     19  H   UNL     1       2.014   9.691  20.939  0.00  0.00    +0.000 HD
ENDBRANCH  17  18
ENDBRANCH  16  17
ENDBRANCH   6  16
TORSDOF 5
ENDMDL
MODEL 9
REMARK VINA RESULT:      -5.0      3.946      5.938
REMARK  Name = 
REMARK  5 active torsions:
REMARK  status: ('A' for Active; 'I' for Inactive)
REMARK    1  A    between atoms: C_2  and  O_3
REMARK    2  A    between atoms: C_2  and  C_4
REMARK    3  A    between atoms: C_9  and  C_11
REMARK    4  A    between atoms: C_11  and  C_12
REMARK    5  A    between atoms: C_12  and  S_13
REMARK                            x       y       z     vdW  Elec       q    Type
REMARK                         _______ _______ _______ _____ _____    ______ ____
ROOT
ATOM      1  C   UNL     1       2.846   5.114  18.793  0.00  0.00    +0.000 C 
ATOM      2  C   UNL     1       4.091   4.341  18.299  0.00  0.00    +0.000 C 
ATOM      3  C   UNL     1       4.948   5.336  17.500  0.00  0.00    +0.000 C 
ATOM      4  C   UNL     1       4.109   6.613  17.434  0.00  0.00    +0.000 C 
ATOM      5  N   UNL     1       3.180   6.529  18.555  0.00  0.00    +0.000 N 
ATOM      6  C   UNL     1       2.298   7.551  18.863  0.00  0.00    +0.000 C 
ATOM      7  O   UNL     1       1.447   7.385  19.734  0.00  0.00    +0.000 OA
ATOM      8  S   UNL     1       5.318   4.686  15.831  0.00  0.00    +0.000 S 
ATOM      9  C   UNL     1       7.127   4.670  15.955  0.00  0.00    +0.000 C 
ATOM     10  C   UNL     1       7.537   4.540  17.409  0.00  0.00    +0.000 C 
ATOM     11  S   UNL     1       6.527   5.691  18.364  0.00  0.00    +0.000 S 
ENDROOT
BRANCH   1  13
ATOM     12  O   UNL     1       2.114   3.398  20.344  0.00  0.00    +0.000 OA
ATOM     13  C   UNL     1       2.492   4.553  20.183  0.00  0.00    +0.000 C 
BRANCH  13  14
ATOM     14  O   UNL     1       2.634   5.401  21.217  0.00  0.00    +0.000 OA
ATOM     15  H   UNL     1       3.051   6.245  20.939  0.00  0.00    +0.000 HD
ENDBRANCH  13  14
ENDBRANCH   1  13
BRANCH   6  16
ATOM     16  C   UNL     1       2.499   8.871  18.137  0.00  0.00    +0.000 C 
BRANCH  16  17
ATOM     17  C   UNL     1       1.200   9.634  17.941  0.00  0.00    +0.000 C 
BRANCH  17  18
ATOM     18  S   UNL     1       1.154  11.060  19.074  0.00  0.00    +0.000 S 
ATOM     19  H   UNL     1       2.477  11.281  19.113  0.00  0.00    +0.000 HD
ENDBRANCH  17  18
ENDBRANCH  16  17
ENDBRANCH   6  16
TORSDOF 5
ENDMDL
