MODEL 1
REMARK VINA RESULT:      -7.7      0.000      0.000
REMARK  Name = 
REMARK  7 active torsions:
REMARK  status: ('A' for Active; 'I' for Inactive)
REMARK    1  A    between atoms: C_1  and  C_2
REMARK    2  A    between atoms: C_2  and  O_3
REMARK    3  A    between atoms: O_3  and  C_4
REMARK    4  A    between atoms: C_10  and  C_12
REMARK    5  A    between atoms: C_12  and  N_13
REMARK    6  A    between atoms: C_14  and  C_16
REMARK    7  A    between atoms: C_20  and  C_21
REMARK                            x       y       z     vdW  Elec       q    Type
REMARK                         _______ _______ _______ _____ _____    ______ ____
ROOT
ATOM      1  N   UNL     1       3.310   7.121  18.443  0.00  0.00    +0.000 N 
ATOM      2  C   UNL     1       3.478   5.787  18.144  0.00  0.00    +0.000 C 
ATOM      3  O   UNL     1       2.575   4.968  18.217  0.00  0.00    +0.000 OA
ATOM      4  H   UNL     1       4.106   7.740  18.317  0.00  0.00    +0.000 HD
ENDROOT
BRANCH   2   5
ATOM      5  C   UNL     1       4.856   5.378  17.719  0.00  0.00    +0.000 A 
ATOM      6  C   UNL     1       5.822   5.193  18.700  0.00  0.00    +0.000 A 
ATOM      7  C   UNL     1       7.097   4.820  18.302  0.00  0.00    +0.000 A 
ATOM      8  C   UNL     1       7.353   4.638  16.945  0.00  0.00    +0.000 A 
ATOM      9  C   UNL     1       6.327   4.821  16.011  0.00  0.00    +0.000 A 
ATOM     10  N   UNL     1       5.076   5.205  16.387  0.00  0.00    +0.000 NA
BRANCH   9  11
ATOM     11  C   UNL     1       6.531   4.583  14.565  0.00  0.00    +0.000 A 
ATOM     12  C   UNL     1       7.554   5.234  13.846  0.00  0.00    +0.000 A 
ATOM     13  C   UNL     1       7.758   4.993  12.483  0.00  0.00    +0.000 A 
ATOM     14  C   UNL     1       6.943   4.092  11.808  0.00  0.00    +0.000 A 
ATOM     15  C   UNL     1       5.924   3.435  12.492  0.00  0.00    +0.000 A 
ATOM     16  C   UNL     1       5.722   3.679  13.854  0.00  0.00    +0.000 A 
ENDBRANCH   9  11
ENDBRANCH   2   5
BRANCH   1  17
ATOM     17  C   UNL     1       2.043   7.662  18.907  0.00  0.00    +0.000 C 
BRANCH  17  24
ATOM     18  C   UNL     1      -1.011  12.781  21.317  0.00  0.00    +0.000 C 
ATOM     19  O   UNL     1      -1.183  13.917  20.888  0.00  0.00    +0.000 OA
ATOM     20  N   UNL     1      -0.613  11.716  20.540  0.00  0.00    +0.000 N 
ATOM     21  C   UNL     1      -0.299  11.922  19.125  0.00  0.00    +0.000 C 
ATOM     22  C   UNL     1       1.114  11.419  18.792  0.00  0.00    +0.000 C 
ATOM     23  N   UNL     1       1.321  10.045  19.272  0.00  0.00    +0.000 N 
ATOM     24  C   UNL     1       1.857   9.099  18.413  0.00  0.00    +0.000 C 
ATOM     25  O   UNL     1       2.110   9.365  17.233  0.00  0.00    +0.000 OA
ATOM     26  C   UNL     1       1.016   9.850  20.697  0.00  0.00    +0.000 C 
ATOM     27  C   UNL     1      -0.392  10.358  21.046  0.00  0.00    +0.000 C 
BRANCH  18  28
ATOM     28  O   UNL     1      -1.107  12.448  22.631  0.00  0.00    +0.000 OA
BRANCH  28  30
ATOM     29  C   UNL     1      -3.295  12.264  23.566  0.00  0.00    +0.000 C 
ATOM     30  C   UNL     1      -2.093  13.173  23.375  0.00  0.00    +0.000 C 
ENDBRANCH  28  30
ENDBRANCH  18  28
ENDBRANCH  17  24
ENDBRANCH   1  17
TORSDOF 6
ENDMDL
MODEL 2
REMARK VINA RESULT:      -7.6      2.927      4.460
REMARK  Name = 
REMARK  7 active torsions:
REMARK  status: ('A' for Active; 'I' for Inactive)
REMARK    1  A    between atoms: C_1  and  C_2
REMARK    2  A    between atoms: C_2  and  O_3
REMARK    3  A    between atoms: O_3  and  C_4
REMARK    4  A    between atoms: C_10  and  C_12
REMARK    5  A    between atoms: C_12  and  N_13
REMARK    6  A    between atoms: C_14  and  C_16
REMARK    7  A    between atoms: C_20  and  C_21
REMARK                            x       y       z     vdW  Elec       q    Type
REMARK                         _______ _______ _______ _____ _____    ______ ____
ROOT
ATOM      1  N   UNL     1       3.643   2.977  17.833  0.00  0.00    +0.000 N 
ATOM      2  C   UNL     1       4.751   3.356  18.555  0.00  0.00    +0.000 C 
ATOM      3  O   UNL     1       4.955   2.994  19.705  0.00  0.00    +0.000 OA
ATOM      4  H   UNL     1       3.572   3.292  16.869  0.00  0.00    +0.000 HD
ENDROOT
BRANCH   2   5
ATOM      5  C   UNL     1       5.719   4.259  17.850  0.00  0.00    +0.000 A 
ATOM      6  C   UNL     1       6.445   5.168  18.609  0.00  0.00    +0.000 A 
ATOM      7  C   UNL     1       7.334   6.005  17.953  0.00  0.00    +0.000 A 
ATOM      8  C   UNL     1       7.469   5.896  16.571  0.00  0.00    +0.000 A 
ATOM      9  C   UNL     1       6.721   4.942  15.871  0.00  0.00    +0.000 A 
ATOM     10  N   UNL     1       5.831   4.126  16.501  0.00  0.00    +0.000 NA
BRANCH   9  11
ATOM     11  C   UNL     1       6.870   4.744  14.412  0.00  0.00    +0.000 A 
ATOM     12  C   UNL     1       7.764   5.522  13.648  0.00  0.00    +0.000 A 
ATOM     13  C   UNL     1       7.919   5.320  12.273  0.00  0.00    +0.000 A 
ATOM     14  C   UNL     1       7.183   4.332  11.629  0.00  0.00    +0.000 A 
ATOM     15  C   UNL     1       6.292   3.549  12.358  0.00  0.00    +0.000 A 
ATOM     16  C   UNL     1       6.138   3.755  13.733  0.00  0.00    +0.000 A 
ENDBRANCH   9  11
ENDBRANCH   2   5
BRANCH   1  17
ATOM     17  C   UNL     1       2.597   2.136  18.393  0.00  0.00    +0.000 C 
BRANCH  17  24
ATOM     18  C   UNL     1       1.591   8.320  19.836  0.00  0.00    +0.000 C 
ATOM     19  O   UNL     1       1.071   8.868  20.802  0.00  0.00    +0.000 OA
ATOM     20  N   UNL     1       2.014   7.010  19.829  0.00  0.00    +0.000 N 
ATOM     21  C   UNL     1       1.786   6.163  21.001  0.00  0.00    +0.000 C 
ATOM     22  C   UNL     1       1.026   4.883  20.623  0.00  0.00    +0.000 C 
ATOM     23  N   UNL     1       1.659   4.200  19.486  0.00  0.00    +0.000 N 
ATOM     24  C   UNL     1       1.909   2.839  19.566  0.00  0.00    +0.000 C 
ATOM     25  O   UNL     1       1.669   2.195  20.593  0.00  0.00    +0.000 OA
ATOM     26  C   UNL     1       1.871   5.053  18.308  0.00  0.00    +0.000 C 
ATOM     27  C   UNL     1       2.623   6.342  18.675  0.00  0.00    +0.000 C 
BRANCH  18  28
ATOM     28  O   UNL     1       1.735   8.911  18.621  0.00  0.00    +0.000 OA
BRANCH  28  30
ATOM     29  C   UNL     1      -0.310   9.933  17.932  0.00  0.00    +0.000 C 
ATOM     30  C   UNL     1       1.086  10.181  18.477  0.00  0.00    +0.000 C 
ENDBRANCH  28  30
ENDBRANCH  18  28
ENDBRANCH  17  24
ENDBRANCH   1  17
TORSDOF 6
ENDMDL
MODEL 3
REMARK VINA RESULT:      -7.4      3.400      5.837
REMARK  Name = 
REMARK  7 active torsions:
REMARK  status: ('A' for Active; 'I' for Inactive)
REMARK    1  A    between atoms: C_1  and  C_2
REMARK    2  A    between atoms: C_2  and  O_3
REMARK    3  A    between atoms: O_3  and  C_4
REMARK    4  A    between atoms: C_10  and  C_12
REMARK    5  A    between atoms: C_12  and  N_13
REMARK    6  A    between atoms: C_14  and  C_16
REMARK    7  A    between atoms: C_20  and  C_21
REMARK                            x       y       z     vdW  Elec       q    Type
REMARK                         _______ _______ _______ _____ _____    ______ ____
ROOT
ATOM      1  N   UNL     1       1.093   9.103  19.319  0.00  0.00    +0.000 N 
ATOM      2  C   UNL     1       2.005   9.072  18.288  0.00  0.00    +0.000 C 
ATOM      3  O   UNL     1       2.184  10.011  17.527  0.00  0.00    +0.000 OA
ATOM      4  H   UNL     1       1.036   8.292  19.929  0.00  0.00    +0.000 HD
ENDROOT
BRANCH   2   5
ATOM      5  C   UNL     1       2.783   7.800  18.138  0.00  0.00    +0.000 A 
ATOM      6  C   UNL     1       3.822   7.768  17.215  0.00  0.00    +0.000 A 
ATOM      7  C   UNL     1       4.536   6.588  17.074  0.00  0.00    +0.000 A 
ATOM      8  C   UNL     1       4.192   5.493  17.864  0.00  0.00    +0.000 A 
ATOM      9  C   UNL     1       3.148   5.601  18.789  0.00  0.00    +0.000 A 
ATOM     10  N   UNL     1       2.426   6.749  18.924  0.00  0.00    +0.000 NA
BRANCH   9  11
ATOM     11  C   UNL     1       2.782   4.489  19.693  0.00  0.00    +0.000 A 
ATOM     12  C   UNL     1       3.689   3.452  19.994  0.00  0.00    +0.000 A 
ATOM     13  C   UNL     1       3.348   2.411  20.865  0.00  0.00    +0.000 A 
ATOM     14  C   UNL     1       2.091   2.386  21.457  0.00  0.00    +0.000 A 
ATOM     15  C   UNL     1       1.174   3.395  21.177  0.00  0.00    +0.000 A 
ATOM     16  C   UNL     1       1.517   4.433  20.305  0.00  0.00    +0.000 A 
ENDBRANCH   9  11
ENDBRANCH   2   5
BRANCH   1  17
ATOM     17  C   UNL     1       0.237  10.252  19.568  0.00  0.00    +0.000 C 
BRANCH  17  24
ATOM     18  C   UNL     1       3.062  15.986  18.879  0.00  0.00    +0.000 C 
ATOM     19  O   UNL     1       3.626  16.729  19.675  0.00  0.00    +0.000 OA
ATOM     20  N   UNL     1       2.797  14.657  19.122  0.00  0.00    +0.000 N 
ATOM     21  C   UNL     1       3.129  14.071  20.421  0.00  0.00    +0.000 C 
ATOM     22  C   UNL     1       1.899  13.413  21.064  0.00  0.00    +0.000 C 
ATOM     23  N   UNL     1       1.233  12.494  20.129  0.00  0.00    +0.000 N 
ATOM     24  C   UNL     1       0.902  11.217  20.553  0.00  0.00    +0.000 C 
ATOM     25  O   UNL     1       1.207  10.808  21.679  0.00  0.00    +0.000 OA
ATOM     26  C   UNL     1       0.890  13.094  18.832  0.00  0.00    +0.000 C 
ATOM     27  C   UNL     1       2.111  13.765  18.182  0.00  0.00    +0.000 C 
BRANCH  18  28
ATOM     28  O   UNL     1       2.548  16.403  17.692  0.00  0.00    +0.000 OA
BRANCH  28  30
ATOM     29  C   UNL     1       0.311  17.083  18.170  0.00  0.00    +0.000 C 
ATOM     30  C   UNL     1       1.697  17.553  17.764  0.00  0.00    +0.000 C 
ENDBRANCH  28  30
ENDBRANCH  18  28
ENDBRANCH  17  24
ENDBRANCH   1  17
TORSDOF 6
ENDMDL
MODEL 4
REMARK VINA RESULT:      -7.4      1.781      2.476
REMARK  Name = 
REMARK  7 active torsions:
REMARK  status: ('A' for Active; 'I' for Inactive)
REMARK    1  A    between atoms: C_1  and  C_2
REMARK    2  A    between atoms: C_2  and  O_3
REMARK    3  A    between atoms: O_3  and  C_4
REMARK    4  A    between atoms: C_10  and  C_12
REMARK    5  A    between atoms: C_12  and  N_13
REMARK    6  A    between atoms: C_14  and  C_16
REMARK    7  A    between atoms: C_20  and  C_21
REMARK                            x       y       z     vdW  Elec       q    Type
REMARK                         _______ _______ _______ _____ _____    ______ ____
ROOT
ATOM      1  N   UNL     1       2.236   6.682  19.699  0.00  0.00    +0.000 N 
ATOM      2  C   UNL     1       1.990   5.378  20.065  0.00  0.00    +0.000 C 
ATOM      3  O   UNL     1       1.384   5.072  21.081  0.00  0.00    +0.000 OA
ATOM      4  H   UNL     1       2.713   6.847  18.817  0.00  0.00    +0.000 HD
ENDROOT
BRANCH   2   5
ATOM      5  C   UNL     1       2.518   4.325  19.137  0.00  0.00    +0.000 A 
ATOM      6  C   UNL     1       1.906   3.077  19.141  0.00  0.00    +0.000 A 
ATOM      7  C   UNL     1       2.400   2.104  18.286  0.00  0.00    +0.000 A 
ATOM      8  C   UNL     1       3.476   2.416  17.459  0.00  0.00    +0.000 A 
ATOM      9  C   UNL     1       4.031   3.700  17.491  0.00  0.00    +0.000 A 
ATOM     10  N   UNL     1       3.567   4.660  18.339  0.00  0.00    +0.000 NA
BRANCH   9  11
ATOM     11  C   UNL     1       5.135   4.102  16.591  0.00  0.00    +0.000 A 
ATOM     12  C   UNL     1       6.376   4.541  17.094  0.00  0.00    +0.000 A 
ATOM     13  C   UNL     1       7.425   4.901  16.242  0.00  0.00    +0.000 A 
ATOM     14  C   UNL     1       7.257   4.828  14.865  0.00  0.00    +0.000 A 
ATOM     15  C   UNL     1       6.041   4.399  14.339  0.00  0.00    +0.000 A 
ATOM     16  C   UNL     1       4.993   4.041  15.194  0.00  0.00    +0.000 A 
ENDBRANCH   9  11
ENDBRANCH   2   5
BRANCH   1  17
ATOM     17  C   UNL     1       1.821   7.812  20.515  0.00  0.00    +0.000 C 
BRANCH  17  24
ATOM     18  C   UNL     1      -1.584  13.143  21.668  0.00  0.00    +0.000 C 
ATOM     19  O   UNL     1      -1.970  14.050  20.939  0.00  0.00    +0.000 OA
ATOM     20  N   UNL     1      -1.145  11.921  21.212  0.00  0.00    +0.000 N 
ATOM     21  C   UNL     1      -1.051  11.669  19.773  0.00  0.00    +0.000 C 
ATOM     22  C   UNL     1       0.362  11.213  19.379  0.00  0.00    +0.000 C 
ATOM     23  N   UNL     1       0.823  10.104  20.227  0.00  0.00    +0.000 N 
ATOM     24  C   UNL     1       1.370   8.979  19.632  0.00  0.00    +0.000 C 
ATOM     25  O   UNL     1       1.426   8.856  18.404  0.00  0.00    +0.000 OA
ATOM     26  C   UNL     1       0.739  10.370  21.670  0.00  0.00    +0.000 C 
ATOM     27  C   UNL     1      -0.668  10.836  22.076  0.00  0.00    +0.000 C 
BRANCH  18  28
ATOM     28  O   UNL     1      -1.457  13.262  23.016  0.00  0.00    +0.000 OA
BRANCH  28  30
ATOM     29  C   UNL     1      -3.563  12.453  23.797  0.00  0.00    +0.000 C 
ATOM     30  C   UNL     1      -2.646  13.661  23.709  0.00  0.00    +0.000 C 
ENDBRANCH  28  30
ENDBRANCH  18  28
ENDBRANCH  17  24
ENDBRANCH   1  17
TORSDOF 6
ENDMDL
MODEL 5
REMARK VINA RESULT:      -7.3      3.501      5.708
REMARK  Name = 
REMARK  7 active torsions:
REMARK  status: ('A' for Active; 'I' for Inactive)
REMARK    1  A    between atoms: C_1  and  C_2
REMARK    2  A    between atoms: C_2  and  O_3
REMARK    3  A    between atoms: O_3  and  C_4
REMARK    4  A    between atoms: C_10  and  C_12
REMARK    5  A    between atoms: C_12  and  N_13
REMARK    6  A    between atoms: C_14  and  C_16
REMARK    7  A    between atoms: C_20  and  C_21
REMARK                            x       y       z     vdW  Elec       q    Type
REMARK                         _______ _______ _______ _____ _____    ______ ____
ROOT
ATOM      1  N   UNL     1       0.840   9.426  19.042  0.00  0.00    +0.000 N 
ATOM      2  C   UNL     1       1.935   9.399  18.208  0.00  0.00    +0.000 C 
ATOM      3  O   UNL     1       2.339  10.382  17.605  0.00  0.00    +0.000 OA
ATOM      4  H   UNL     1       0.597   8.572  19.536  0.00  0.00    +0.000 HD
ENDROOT
BRANCH   2   5
ATOM      5  C   UNL     1       2.622   8.074  18.068  0.00  0.00    +0.000 A 
ATOM      6  C   UNL     1       3.729   7.990  17.232  0.00  0.00    +0.000 A 
ATOM      7  C   UNL     1       4.358   6.762  17.101  0.00  0.00    +0.000 A 
ATOM      8  C   UNL     1       3.865   5.672  17.813  0.00  0.00    +0.000 A 
ATOM      9  C   UNL     1       2.758   5.832  18.654  0.00  0.00    +0.000 A 
ATOM     10  N   UNL     1       2.119   7.028  18.778  0.00  0.00    +0.000 NA
BRANCH   9  11
ATOM     11  C   UNL     1       2.231   4.721  19.478  0.00  0.00    +0.000 A 
ATOM     12  C   UNL     1       1.448   3.692  18.917  0.00  0.00    +0.000 A 
ATOM     13  C   UNL     1       0.967   2.632  19.693  0.00  0.00    +0.000 A 
ATOM     14  C   UNL     1       1.261   2.577  21.051  0.00  0.00    +0.000 A 
ATOM     15  C   UNL     1       2.031   3.580  21.632  0.00  0.00    +0.000 A 
ATOM     16  C   UNL     1       2.509   4.639  20.854  0.00  0.00    +0.000 A 
ENDBRANCH   9  11
ENDBRANCH   2   5
BRANCH   1  17
ATOM     17  C   UNL     1       0.048  10.628  19.249  0.00  0.00    +0.000 C 
BRANCH  17  24
ATOM     18  C   UNL     1      -5.704  13.483  19.590  0.00  0.00    +0.000 C 
ATOM     19  O   UNL     1      -6.688  13.444  18.861  0.00  0.00    +0.000 OA
ATOM     20  N   UNL     1      -4.676  12.568  19.545  0.00  0.00    +0.000 N 
ATOM     21  C   UNL     1      -4.685  11.508  18.536  0.00  0.00    +0.000 C 
ATOM     22  C   UNL     1      -3.391  11.518  17.708  0.00  0.00    +0.000 C 
ATOM     23  N   UNL     1      -2.202  11.531  18.572  0.00  0.00    +0.000 N 
ATOM     24  C   UNL     1      -1.176  10.632  18.329  0.00  0.00    +0.000 C 
ATOM     25  O   UNL     1      -1.260   9.777  17.440  0.00  0.00    +0.000 OA
ATOM     26  C   UNL     1      -2.193  12.607  19.574  0.00  0.00    +0.000 C 
ATOM     27  C   UNL     1      -3.488  12.614  20.403  0.00  0.00    +0.000 C 
BRANCH  18  28
ATOM     28  O   UNL     1      -5.459  14.485  20.474  0.00  0.00    +0.000 OA
BRANCH  28  30
ATOM     29  C   UNL     1      -5.494  16.754  19.732  0.00  0.00    +0.000 C 
ATOM     30  C   UNL     1      -6.309  15.632  20.350  0.00  0.00    +0.000 C 
ENDBRANCH  28  30
ENDBRANCH  18  28
ENDBRANCH  17  24
ENDBRANCH   1  17
TORSDOF 6
ENDMDL
MODEL 6
REMARK VINA RESULT:      -7.3      3.359      5.386
REMARK  Name = 
REMARK  7 active torsions:
REMARK  status: ('A' for Active; 'I' for Inactive)
REMARK    1  A    between atoms: C_1  and  C_2
REMARK    2  A    between atoms: C_2  and  O_3
REMARK    3  A    between atoms: O_3  and  C_4
REMARK    4  A    between atoms: C_10  and  C_12
REMARK    5  A    between atoms: C_12  and  N_13
REMARK    6  A    between atoms: C_14  and  C_16
REMARK    7  A    between atoms: C_20  and  C_21
REMARK                            x       y       z     vdW  Elec       q    Type
REMARK                         _______ _______ _______ _____ _____    ______ ____
ROOT
ATOM      1  N   UNL     1       1.939  10.451  18.767  0.00  0.00    +0.000 N 
ATOM      2  C   UNL     1       1.370   9.381  18.113  0.00  0.00    +0.000 C 
ATOM      3  O   UNL     1       0.234   9.402  17.663  0.00  0.00    +0.000 OA
ATOM      4  H   UNL     1       2.904  10.361  19.074  0.00  0.00    +0.000 HD
ENDROOT
BRANCH   2   5
ATOM      5  C   UNL     1       2.229   8.160  17.978  0.00  0.00    +0.000 A 
ATOM      6  C   UNL     1       3.465   8.288  17.356  0.00  0.00    +0.000 A 
ATOM      7  C   UNL     1       4.253   7.155  17.228  0.00  0.00    +0.000 A 
ATOM      8  C   UNL     1       3.782   5.945  17.732  0.00  0.00    +0.000 A 
ATOM      9  C   UNL     1       2.535   5.892  18.365  0.00  0.00    +0.000 A 
ATOM     10  N   UNL     1       1.743   6.993  18.482  0.00  0.00    +0.000 NA
BRANCH   9  11
ATOM     11  C   UNL     1       2.015   4.645  18.970  0.00  0.00    +0.000 A 
ATOM     12  C   UNL     1       1.895   3.456  18.223  0.00  0.00    +0.000 A 
ATOM     13  C   UNL     1       1.421   2.273  18.801  0.00  0.00    +0.000 A 
ATOM     14  C   UNL     1       1.059   2.253  20.143  0.00  0.00    +0.000 A 
ATOM     15  C   UNL     1       1.165   3.413  20.905  0.00  0.00    +0.000 A 
ATOM     16  C   UNL     1       1.638   4.595  20.324  0.00  0.00    +0.000 A 
ENDBRANCH   9  11
ENDBRANCH   2   5
BRANCH   1  17
ATOM     17  C   UNL     1       1.219  11.690  19.008  0.00  0.00    +0.000 C 
BRANCH  17  24
ATOM     18  C   UNL     1      -4.678  12.490  21.444  0.00  0.00    +0.000 C 
ATOM     19  O   UNL     1      -5.093  12.555  22.596  0.00  0.00    +0.000 OA
ATOM     20  N   UNL     1      -3.355  12.638  21.093  0.00  0.00    +0.000 N 
ATOM     21  C   UNL     1      -2.339  12.817  22.131  0.00  0.00    +0.000 C 
ATOM     22  C   UNL     1      -1.228  11.764  22.008  0.00  0.00    +0.000 C 
ATOM     23  N   UNL     1      -0.699  11.699  20.638  0.00  0.00    +0.000 N 
ATOM     24  C   UNL     1       0.671  11.726  20.438  0.00  0.00    +0.000 C 
ATOM     25  O   UNL     1       1.462  11.863  21.379  0.00  0.00    +0.000 OA
ATOM     26  C   UNL     1      -1.724  11.506  19.603  0.00  0.00    +0.000 C 
ATOM     27  C   UNL     1      -2.848  12.548  19.720  0.00  0.00    +0.000 C 
BRANCH  18  28
ATOM     28  O   UNL     1      -5.459  12.175  20.378  0.00  0.00    +0.000 OA
BRANCH  28  30
ATOM     29  C   UNL     1      -7.349  10.717  20.426  0.00  0.00    +0.000 C 
ATOM     30  C   UNL     1      -6.867  12.142  20.639  0.00  0.00    +0.000 C 
ENDBRANCH  28  30
ENDBRANCH  18  28
ENDBRANCH  17  24
ENDBRANCH   1  17
TORSDOF 6
ENDMDL
MODEL 7
REMARK VINA RESULT:      -7.3      3.484      5.549
REMARK  Name = 
REMARK  7 active torsions:
REMARK  status: ('A' for Active; 'I' for Inactive)
REMARK    1  A    between atoms: C_1  and  C_2
REMARK    2  A    between atoms: C_2  and  O_3
REMARK    3  A    between atoms: O_3  and  C_4
REMARK    4  A    between atoms: C_10  and  C_12
REMARK    5  A    between atoms: C_12  and  N_13
REMARK    6  A    between atoms: C_14  and  C_16
REMARK    7  A    between atoms: C_20  and  C_21
REMARK                            x       y       z     vdW  Elec       q    Type
REMARK                         _______ _______ _______ _____ _____    ______ ____
ROOT
ATOM      1  N   UNL     1       0.896   9.464  19.140  0.00  0.00    +0.000 N 
ATOM      2  C   UNL     1       1.936   9.421  18.239  0.00  0.00    +0.000 C 
ATOM      3  O   UNL     1       2.291  10.389  17.582  0.00  0.00    +0.000 OA
ATOM      4  H   UNL     1       0.694   8.622  19.672  0.00  0.00    +0.000 HD
ENDROOT
BRANCH   2   5
ATOM      5  C   UNL     1       2.627   8.098  18.094  0.00  0.00    +0.000 A 
ATOM      6  C   UNL     1       3.735   8.021  17.259  0.00  0.00    +0.000 A 
ATOM      7  C   UNL     1       4.368   6.795  17.123  0.00  0.00    +0.000 A 
ATOM      8  C   UNL     1       3.876   5.701  17.831  0.00  0.00    +0.000 A 
ATOM      9  C   UNL     1       2.768   5.854  18.671  0.00  0.00    +0.000 A 
ATOM     10  N   UNL     1       2.126   7.049  18.799  0.00  0.00    +0.000 NA
BRANCH   9  11
ATOM     11  C   UNL     1       2.243   4.739  19.490  0.00  0.00    +0.000 A 
ATOM     12  C   UNL     1       2.587   4.596  20.850  0.00  0.00    +0.000 A 
ATOM     13  C   UNL     1       2.074   3.552  21.628  0.00  0.00    +0.000 A 
ATOM     14  C   UNL     1       1.203   2.629  21.063  0.00  0.00    +0.000 A 
ATOM     15  C   UNL     1       0.847   2.744  19.722  0.00  0.00    +0.000 A 
ATOM     16  C   UNL     1       1.362   3.788  18.946  0.00  0.00    +0.000 A 
ENDBRANCH   9  11
ENDBRANCH   2   5
BRANCH   1  17
ATOM     17  C   UNL     1       0.106  10.664  19.362  0.00  0.00    +0.000 C 
BRANCH  17  24
ATOM     18  C   UNL     1      -5.650  13.507  19.724  0.00  0.00    +0.000 C 
ATOM     19  O   UNL     1      -6.629  13.484  18.988  0.00  0.00    +0.000 OA
ATOM     20  N   UNL     1      -4.621  12.594  19.667  0.00  0.00    +0.000 N 
ATOM     21  C   UNL     1      -4.622  11.556  18.635  0.00  0.00    +0.000 C 
ATOM     22  C   UNL     1      -3.322  11.585  17.816  0.00  0.00    +0.000 C 
ATOM     23  N   UNL     1      -2.139  11.581  18.689  0.00  0.00    +0.000 N 
ATOM     24  C   UNL     1      -1.111  10.688  18.433  0.00  0.00    +0.000 C 
ATOM     25  O   UNL     1      -1.188   9.853  17.525  0.00  0.00    +0.000 OA
ATOM     26  C   UNL     1      -2.139  12.634  19.714  0.00  0.00    +0.000 C 
ATOM     27  C   UNL     1      -3.439  12.622  20.534  0.00  0.00    +0.000 C 
BRANCH  18  28
ATOM     28  O   UNL     1      -5.412  14.490  20.632  0.00  0.00    +0.000 OA
BRANCH  28  30
ATOM     29  C   UNL     1      -5.734  15.191  22.891  0.00  0.00    +0.000 C 
ATOM     30  C   UNL     1      -6.410  14.637  21.650  0.00  0.00    +0.000 C 
ENDBRANCH  28  30
ENDBRANCH  18  28
ENDBRANCH  17  24
ENDBRANCH   1  17
TORSDOF 6
ENDMDL
MODEL 8
REMARK VINA RESULT:      -7.3      3.024      4.917
REMARK  Name = 
REMARK  7 active torsions:
REMARK  status: ('A' for Active; 'I' for Inactive)
REMARK    1  A    between atoms: C_1  and  C_2
REMARK    2  A    between atoms: C_2  and  O_3
REMARK    3  A    between atoms: O_3  and  C_4
REMARK    4  A    between atoms: C_10  and  C_12
REMARK    5  A    between atoms: C_12  and  N_13
REMARK    6  A    between atoms: C_14  and  C_16
REMARK    7  A    between atoms: C_20  and  C_21
REMARK                            x       y       z     vdW  Elec       q    Type
REMARK                         _______ _______ _______ _____ _____    ______ ____
ROOT
ATOM      1  N   UNL     1       0.787   9.140  19.882  0.00  0.00    +0.000 N 
ATOM      2  C   UNL     1       1.747   8.706  18.997  0.00  0.00    +0.000 C 
ATOM      3  O   UNL     1       2.123   9.368  18.041  0.00  0.00    +0.000 OA
ATOM      4  H   UNL     1       0.563   8.542  20.672  0.00  0.00    +0.000 HD
ENDROOT
BRANCH   2   5
ATOM      5  C   UNL     1       2.322   7.347  19.265  0.00  0.00    +0.000 A 
ATOM      6  C   UNL     1       1.769   6.587  20.289  0.00  0.00    +0.000 A 
ATOM      7  C   UNL     1       2.307   5.334  20.537  0.00  0.00    +0.000 A 
ATOM      8  C   UNL     1       3.365   4.887  19.751  0.00  0.00    +0.000 A 
ATOM      9  C   UNL     1       3.860   5.695  18.722  0.00  0.00    +0.000 A 
ATOM     10  N   UNL     1       3.354   6.936  18.479  0.00  0.00    +0.000 NA
BRANCH   9  11
ATOM     11  C   UNL     1       4.943   5.244  17.820  0.00  0.00    +0.000 A 
ATOM     12  C   UNL     1       6.298   5.296  18.207  0.00  0.00    +0.000 A 
ATOM     13  C   UNL     1       7.319   4.851  17.362  0.00  0.00    +0.000 A 
ATOM     14  C   UNL     1       7.007   4.339  16.107  0.00  0.00    +0.000 A 
ATOM     15  C   UNL     1       5.679   4.277  15.697  0.00  0.00    +0.000 A 
ATOM     16  C   UNL     1       4.660   4.724  16.545  0.00  0.00    +0.000 A 
ENDBRANCH   9  11
ENDBRANCH   2   5
BRANCH   1  17
ATOM     17  C   UNL     1       0.111  10.419  19.733  0.00  0.00    +0.000 C 
BRANCH  17  24
ATOM     18  C   UNL     1       3.619  15.687  18.603  0.00  0.00    +0.000 C 
ATOM     19  O   UNL     1       4.151  16.501  19.350  0.00  0.00    +0.000 OA
ATOM     20  N   UNL     1       3.179  14.446  19.004  0.00  0.00    +0.000 N 
ATOM     21  C   UNL     1       3.268  14.059  20.412  0.00  0.00    +0.000 C 
ATOM     22  C   UNL     1       1.898  13.628  20.957  0.00  0.00    +0.000 C 
ATOM     23  N   UNL     1       1.265  12.627  20.086  0.00  0.00    +0.000 N 
ATOM     24  C   UNL     1       0.742  11.473  20.646  0.00  0.00    +0.000 C 
ATOM     25  O   UNL     1       0.847  11.233  21.854  0.00  0.00    +0.000 OA
ATOM     26  C   UNL     1       1.167  13.029  18.675  0.00  0.00    +0.000 C 
ATOM     27  C   UNL     1       2.530  13.473  18.120  0.00  0.00    +0.000 C 
BRANCH  18  28
ATOM     28  O   UNL     1       3.317  15.943  17.303  0.00  0.00    +0.000 OA
BRANCH  28  30
ATOM     29  C   UNL     1       1.387  17.299  17.666  0.00  0.00    +0.000 C 
ATOM     30  C   UNL     1       2.772  17.243  17.046  0.00  0.00    +0.000 C 
ENDBRANCH  28  30
ENDBRANCH  18  28
ENDBRANCH  17  24
ENDBRANCH   1  17
TORSDOF 6
ENDMDL
MODEL 9
REMARK VINA RESULT:      -7.3      3.178      5.397
REMARK  Name = 
REMARK  7 active torsions:
REMARK  status: ('A' for Active; 'I' for Inactive)
REMARK    1  A    between atoms: C_1  and  C_2
REMARK    2  A    between atoms: C_2  and  O_3
REMARK    3  A    between atoms: O_3  and  C_4
REMARK    4  A    between atoms: C_10  and  C_12
REMARK    5  A    between atoms: C_12  and  N_13
REMARK    6  A    between atoms: C_14  and  C_16
REMARK    7  A    between atoms: C_20  and  C_21
REMARK                            x       y       z     vdW  Elec       q    Type
REMARK                         _______ _______ _______ _____ _____    ______ ____
ROOT
ATOM      1  N   UNL     1       1.103   9.433  19.235  0.00  0.00    +0.000 N 
ATOM      2  C   UNL     1       2.037   9.341  18.227  0.00  0.00    +0.000 C 
ATOM      3  O   UNL     1       2.322  10.276  17.494  0.00  0.00    +0.000 OA
ATOM      4  H   UNL     1       0.956   8.617  19.823  0.00  0.00    +0.000 HD
ENDROOT
BRANCH   2   5
ATOM      5  C   UNL     1       2.700   8.006  18.065  0.00  0.00    +0.000 A 
ATOM      6  C   UNL     1       3.785   7.909  17.203  0.00  0.00    +0.000 A 
ATOM      7  C   UNL     1       4.392   6.672  17.052  0.00  0.00    +0.000 A 
ATOM      8  C   UNL     1       3.899   5.586  17.771  0.00  0.00    +0.000 A 
ATOM      9  C   UNL     1       2.814   5.759  18.638  0.00  0.00    +0.000 A 
ATOM     10  N   UNL     1       2.197   6.965  18.782  0.00  0.00    +0.000 NA
BRANCH   9  11
ATOM     11  C   UNL     1       2.289   4.653  19.469  0.00  0.00    +0.000 A 
ATOM     12  C   UNL     1       2.556   4.577  20.851  0.00  0.00    +0.000 A 
ATOM     13  C   UNL     1       2.043   3.541  21.640  0.00  0.00    +0.000 A 
ATOM     14  C   UNL     1       1.248   2.558  21.062  0.00  0.00    +0.000 A 
ATOM     15  C   UNL     1       0.969   2.607  19.699  0.00  0.00    +0.000 A 
ATOM     16  C   UNL     1       1.485   3.643  18.913  0.00  0.00    +0.000 A 
ENDBRANCH   9  11
ENDBRANCH   2   5
BRANCH   1  17
ATOM     17  C   UNL     1       0.349  10.650  19.490  0.00  0.00    +0.000 C 
BRANCH  17  24
ATOM     18  C   UNL     1      -3.456  14.520  22.938  0.00  0.00    +0.000 C 
ATOM     19  O   UNL     1      -3.572  14.701  24.145  0.00  0.00    +0.000 OA
ATOM     20  N   UNL     1      -2.377  13.895  22.353  0.00  0.00    +0.000 N 
ATOM     21  C   UNL     1      -1.315  13.335  23.191  0.00  0.00    +0.000 C 
ATOM     22  C   UNL     1      -1.088  11.848  22.879  0.00  0.00    +0.000 C 
ATOM     23  N   UNL     1      -0.914  11.623  21.437  0.00  0.00    +0.000 N 
ATOM     24  C   UNL     1       0.152  10.857  20.994  0.00  0.00    +0.000 C 
ATOM     25  O   UNL     1       0.997  10.407  21.776  0.00  0.00    +0.000 OA
ATOM     26  C   UNL     1      -1.991  12.176  20.604  0.00  0.00    +0.000 C 
ATOM     27  C   UNL     1      -2.235  13.662  20.913  0.00  0.00    +0.000 C 
BRANCH  18  28
ATOM     28  O   UNL     1      -4.418  14.835  22.031  0.00  0.00    +0.000 OA
BRANCH  28  30
ATOM     29  C   UNL     1      -6.764  15.277  22.040  0.00  0.00    +0.000 C 
ATOM     30  C   UNL     1      -5.693  14.221  22.254  0.00  0.00    +0.000 C 
ENDBRANCH  28  30
ENDBRANCH  18  28
ENDBRANCH  17  24
ENDBRANCH   1  17
TORSDOF 6
ENDMDL
