MODEL 1
REMARK VINA RESULT:      -7.8      0.000      0.000
REMARK  Name = 
REMARK  11 active torsions:
REMARK  status: ('A' for Active; 'I' for Inactive)
REMARK    1  A    between atoms: C_1  and  N_2
REMARK    2  A    between atoms: C_3  and  C_5
REMARK    3  A    between atoms: C_5  and  C_6
REMARK    4  A    between atoms: C_5  and  N_13
REMARK    5  A    between atoms: C_6  and  C_7
REMARK    6  A    between atoms: C_14  and  C_16
REMARK    7  A    between atoms: C_16  and  N_17
REMARK    8  A    between atoms: C_16  and  C_21
REMARK    9  A    between atoms: C_18  and  C_19
REMARK   10  A    between atoms: C_21  and  C_22
REMARK   11  A    between atoms: C_21  and  C_23
REMARK                            x       y       z     vdW  Elec       q    Type
REMARK                         _______ _______ _______ _____ _____    ______ ____
ROOT
ATOM      1  C   UNL     1       2.797   6.831  18.346  0.00  0.00    +0.000 C 
ENDROOT
BRANCH   1   4
ATOM      2  C   UNL     1       0.925   9.849  19.776  0.00  0.00    +0.000 C 
ATOM      3  N   UNL     1       1.583   8.589  19.576  0.00  0.00    +0.000 N 
ATOM      4  C   UNL     1       2.197   8.257  18.385  0.00  0.00    +0.000 C 
ATOM      5  O   UNL     1       2.153   8.992  17.401  0.00  0.00    +0.000 OA
ATOM      6  H   UNL     1       1.403   7.831  20.226  0.00  0.00    +0.000 HD
ENDBRANCH   1   4
BRANCH   1   7
ATOM      7  N   UNL     1       3.927   6.754  17.413  0.00  0.00    +0.000 N 
ATOM      8  C   UNL     1       4.941   5.839  17.541  0.00  0.00    +0.000 C 
ATOM      9  O   UNL     1       5.007   5.062  18.492  0.00  0.00    +0.000 OA
ATOM     10  H   UNL     1       4.107   7.566  16.819  0.00  0.00    +0.000 HD
BRANCH   8  11
ATOM     11  C   UNL     1       6.084   5.961  16.515  0.00  0.00    +0.000 C 
BRANCH  11  12
ATOM     12  N   UNL     1       5.836   5.005  15.422  0.00  0.00    +0.000 N 
ATOM     13  C   UNL     1       6.659   4.845  14.332  0.00  0.00    +0.000 C 
ATOM     14  C   UNL     1       6.236   3.759  13.377  0.00  0.00    +0.000 C 
ATOM     15  O   UNL     1       7.687   5.501  14.163  0.00  0.00    +0.000 OA
ATOM     16  H   UNL     1       5.142   4.290  15.602  0.00  0.00    +0.000 HD
ENDBRANCH  11  12
BRANCH  11  17
ATOM     17  C   UNL     1       7.500   5.921  17.133  0.00  0.00    +0.000 C 
ATOM     18  C   UNL     1       7.666   7.022  18.186  0.00  0.00    +0.000 C 
ATOM     19  C   UNL     1       7.782   4.566  17.798  0.00  0.00    +0.000 C 
ENDBRANCH  11  17
ENDBRANCH   8  11
ENDBRANCH   1   7
BRANCH   1  20
ATOM     20  C   UNL     1       1.702   5.809  17.980  0.00  0.00    +0.000 C 
BRANCH  20  21
ATOM     21  C   UNL     1       1.640   4.650  18.951  0.00  0.00    +0.000 A 
ATOM     22  C   UNL     1       1.648   4.876  20.334  0.00  0.00    +0.000 A 
ATOM     23  C   UNL     1       1.692   3.804  21.226  0.00  0.00    +0.000 A 
ATOM     24  C   UNL     1       1.714   2.496  20.745  0.00  0.00    +0.000 A 
ATOM     25  C   UNL     1       1.674   2.259  19.372  0.00  0.00    +0.000 A 
ATOM     26  C   UNL     1       1.635   3.330  18.478  0.00  0.00    +0.000 A 
ENDBRANCH  20  21
ENDBRANCH   1  20
TORSDOF 7
ENDMDL
MODEL 2
REMARK VINA RESULT:      -7.7      1.573      2.613
REMARK  Name = 
REMARK  11 active torsions:
REMARK  status: ('A' for Active; 'I' for Inactive)
REMARK    1  A    between atoms: C_1  and  N_2
REMARK    2  A    between atoms: C_3  and  C_5
REMARK    3  A    between atoms: C_5  and  C_6
REMARK    4  A    between atoms: C_5  and  N_13
REMARK    5  A    between atoms: C_6  and  C_7
REMARK    6  A    between atoms: C_14  and  C_16
REMARK    7  A    between atoms: C_16  and  N_17
REMARK    8  A    between atoms: C_16  and  C_21
REMARK    9  A    between atoms: C_18  and  C_19
REMARK   10  A    between atoms: C_21  and  C_22
REMARK   11  A    between atoms: C_21  and  C_23
REMARK                            x       y       z     vdW  Elec       q    Type
REMARK                         _______ _______ _______ _____ _____    ______ ____
ROOT
ATOM      1  C   UNL     1       3.155   6.378  18.658  0.00  0.00    +0.000 C 
ENDROOT
BRANCH   1   4
ATOM      2  C   UNL     1       1.001   9.214  20.061  0.00  0.00    +0.000 C 
ATOM      3  N   UNL     1       1.798   8.035  19.878  0.00  0.00    +0.000 N 
ATOM      4  C   UNL     1       2.387   7.721  18.669  0.00  0.00    +0.000 C 
ATOM      5  O   UNL     1       2.203   8.396  17.659  0.00  0.00    +0.000 OA
ATOM      6  H   UNL     1       1.746   7.294  20.570  0.00  0.00    +0.000 HD
ENDBRANCH   1   4
BRANCH   1   7
ATOM      7  N   UNL     1       4.253   6.401  17.684  0.00  0.00    +0.000 N 
ATOM      8  C   UNL     1       5.421   5.703  17.858  0.00  0.00    +0.000 C 
ATOM      9  O   UNL     1       5.656   5.062  18.881  0.00  0.00    +0.000 OA
ATOM     10  H   UNL     1       4.263   7.161  17.000  0.00  0.00    +0.000 HD
BRANCH   8  11
ATOM     11  C   UNL     1       6.492   5.912  16.770  0.00  0.00    +0.000 C 
BRANCH  11  12
ATOM     12  N   UNL     1       6.955   7.310  16.832  0.00  0.00    +0.000 N 
ATOM     13  C   UNL     1       7.800   7.804  17.798  0.00  0.00    +0.000 C 
ATOM     14  C   UNL     1       8.188   9.249  17.616  0.00  0.00    +0.000 C 
ATOM     15  O   UNL     1       8.246   7.117  18.716  0.00  0.00    +0.000 OA
ATOM     16  H   UNL     1       6.809   7.866  15.998  0.00  0.00    +0.000 HD
ENDBRANCH  11  12
BRANCH  11  17
ATOM     17  C   UNL     1       6.083   5.403  15.370  0.00  0.00    +0.000 C 
ATOM     18  C   UNL     1       7.320   5.099  14.518  0.00  0.00    +0.000 C 
ATOM     19  C   UNL     1       5.233   4.127  15.464  0.00  0.00    +0.000 C 
ENDBRANCH  11  17
ENDBRANCH   8  11
ENDBRANCH   1   7
BRANCH   1  20
ATOM     20  C   UNL     1       2.182   5.217  18.373  0.00  0.00    +0.000 C 
BRANCH  20  21
ATOM     21  C   UNL     1       2.196   4.166  19.462  0.00  0.00    +0.000 A 
ATOM     22  C   UNL     1       1.159   4.099  20.403  0.00  0.00    +0.000 A 
ATOM     23  C   UNL     1       1.224   3.196  21.464  0.00  0.00    +0.000 A 
ATOM     24  C   UNL     1       2.317   2.340  21.587  0.00  0.00    +0.000 A 
ATOM     25  C   UNL     1       3.338   2.375  20.639  0.00  0.00    +0.000 A 
ATOM     26  C   UNL     1       3.278   3.281  19.579  0.00  0.00    +0.000 A 
ENDBRANCH  20  21
ENDBRANCH   1  20
TORSDOF 7
ENDMDL
MODEL 3
REMARK VINA RESULT:      -7.7      1.468      2.685
REMARK  Name = 
REMARK  11 active torsions:
REMARK  status: ('A' for Active; 'I' for Inactive)
REMARK    1  A    between atoms: C_1  and  N_2
REMARK    2  A    between atoms: C_3  and  C_5
REMARK    3  A    between atoms: C_5  and  C_6
REMARK    4  A    between atoms: C_5  and  N_13
REMARK    5  A    between atoms: C_6  and  C_7
REMARK    6  A    between atoms: C_14  and  C_16
REMARK    7  A    between atoms: C_16  and  N_17
REMARK    8  A    between atoms: C_16  and  C_21
REMARK    9  A    between atoms: C_18  and  C_19
REMARK   10  A    between atoms: C_21  and  C_22
REMARK   11  A    between atoms: C_21  and  C_23
REMARK                            x       y       z     vdW  Elec       q    Type
REMARK                         _______ _______ _______ _____ _____    ______ ____
ROOT
ATOM      1  C   UNL     1       2.979   6.644  18.458  0.00  0.00    +0.000 C 
ENDROOT
BRANCH   1   4
ATOM      2  C   UNL     1       1.062   9.865  19.234  0.00  0.00    +0.000 C 
ATOM      3  N   UNL     1       1.669   8.566  19.275  0.00  0.00    +0.000 N 
ATOM      4  C   UNL     1       2.469   8.091  18.255  0.00  0.00    +0.000 C 
ATOM      5  O   UNL     1       2.648   8.725  17.217  0.00  0.00    +0.000 OA
ATOM      6  H   UNL     1       1.329   7.884  19.947  0.00  0.00    +0.000 HD
ENDBRANCH   1   4
BRANCH   1   7
ATOM      7  N   UNL     1       4.263   6.433  17.778  0.00  0.00    +0.000 N 
ATOM      8  C   UNL     1       5.222   5.569  18.243  0.00  0.00    +0.000 C 
ATOM      9  O   UNL     1       5.097   4.961  19.305  0.00  0.00    +0.000 OA
ATOM     10  H   UNL     1       4.562   7.138  17.101  0.00  0.00    +0.000 HD
BRANCH   8  11
ATOM     11  C   UNL     1       6.537   5.538  17.442  0.00  0.00    +0.000 C 
BRANCH  11  12
ATOM     12  N   UNL     1       6.959   6.926  17.182  0.00  0.00    +0.000 N 
ATOM     13  C   UNL     1       7.856   7.621  17.959  0.00  0.00    +0.000 C 
ATOM     14  C   UNL     1       8.184   9.004  17.457  0.00  0.00    +0.000 C 
ATOM     15  O   UNL     1       8.388   7.145  18.961  0.00  0.00    +0.000 OA
ATOM     16  H   UNL     1       6.737   7.296  16.266  0.00  0.00    +0.000 HD
ENDBRANCH  11  12
BRANCH  11  17
ATOM     17  C   UNL     1       6.511   4.604  16.212  0.00  0.00    +0.000 C 
ATOM     18  C   UNL     1       5.107   4.030  15.993  0.00  0.00    +0.000 C 
ATOM     19  C   UNL     1       6.936   5.346  14.936  0.00  0.00    +0.000 C 
ENDBRANCH  11  17
ENDBRANCH   8  11
ENDBRANCH   1   7
BRANCH   1  20
ATOM     20  C   UNL     1       1.919   5.638  17.971  0.00  0.00    +0.000 C 
BRANCH  20  21
ATOM     21  C   UNL     1       1.809   4.427  18.872  0.00  0.00    +0.000 A 
ATOM     22  C   UNL     1       1.937   3.133  18.348  0.00  0.00    +0.000 A 
ATOM     23  C   UNL     1       1.737   2.017  19.161  0.00  0.00    +0.000 A 
ATOM     24  C   UNL     1       1.422   2.182  20.509  0.00  0.00    +0.000 A 
ATOM     25  C   UNL     1       1.324   3.464  21.048  0.00  0.00    +0.000 A 
ATOM     26  C   UNL     1       1.519   4.582  20.235  0.00  0.00    +0.000 A 
ENDBRANCH  20  21
ENDBRANCH   1  20
TORSDOF 7
ENDMDL
MODEL 4
REMARK VINA RESULT:      -7.6      1.794      2.881
REMARK  Name = 
REMARK  11 active torsions:
REMARK  status: ('A' for Active; 'I' for Inactive)
REMARK    1  A    between atoms: C_1  and  N_2
REMARK    2  A    between atoms: C_3  and  C_5
REMARK    3  A    between atoms: C_5  and  C_6
REMARK    4  A    between atoms: C_5  and  N_13
REMARK    5  A    between atoms: C_6  and  C_7
REMARK    6  A    between atoms: C_14  and  C_16
REMARK    7  A    between atoms: C_16  and  N_17
REMARK    8  A    between atoms: C_16  and  C_21
REMARK    9  A    between atoms: C_18  and  C_19
REMARK   10  A    between atoms: C_21  and  C_22
REMARK   11  A    between atoms: C_21  and  C_23
REMARK                            x       y       z     vdW  Elec       q    Type
REMARK                         _______ _______ _______ _____ _____    ______ ____
ROOT
ATOM      1  C   UNL     1       2.737   7.144  19.249  0.00  0.00    +0.000 C 
ENDROOT
BRANCH   1   4
ATOM      2  C   UNL     1       0.575  10.235  18.594  0.00  0.00    +0.000 C 
ATOM      3  N   UNL     1       1.250   9.109  19.173  0.00  0.00    +0.000 N 
ATOM      4  C   UNL     1       2.165   8.352  18.469  0.00  0.00    +0.000 C 
ATOM      5  O   UNL     1       2.401   8.555  17.280  0.00  0.00    +0.000 OA
ATOM      6  H   UNL     1       0.889   8.709  20.034  0.00  0.00    +0.000 HD
ENDBRANCH   1   4
BRANCH   1   7
ATOM      7  N   UNL     1       3.108   6.053  18.340  0.00  0.00    +0.000 N 
ATOM      8  C   UNL     1       4.352   5.944  17.773  0.00  0.00    +0.000 C 
ATOM      9  O   UNL     1       5.223   6.796  17.934  0.00  0.00    +0.000 OA
ATOM     10  H   UNL     1       2.352   5.518  17.908  0.00  0.00    +0.000 HD
BRANCH   8  11
ATOM     11  C   UNL     1       4.534   4.778  16.783  0.00  0.00    +0.000 C 
BRANCH  11  12
ATOM     12  N   UNL     1       4.531   3.514  17.541  0.00  0.00    +0.000 N 
ATOM     13  C   UNL     1       3.461   2.653  17.606  0.00  0.00    +0.000 C 
ATOM     14  C   UNL     1       3.716   1.390  18.388  0.00  0.00    +0.000 C 
ATOM     15  O   UNL     1       2.391   2.866  17.037  0.00  0.00    +0.000 OA
ATOM     16  H   UNL     1       5.435   3.173  17.844  0.00  0.00    +0.000 HD
ENDBRANCH  11  12
BRANCH  11  17
ATOM     17  C   UNL     1       5.706   4.962  15.792  0.00  0.00    +0.000 C 
ATOM     18  C   UNL     1       7.010   4.416  16.383  0.00  0.00    +0.000 C 
ATOM     19  C   UNL     1       5.435   4.240  14.464  0.00  0.00    +0.000 C 
ENDBRANCH  11  17
ENDBRANCH   8  11
ENDBRANCH   1   7
BRANCH   1  20
ATOM     20  C   UNL     1       1.718   6.669  20.304  0.00  0.00    +0.000 C 
BRANCH  20  21
ATOM     21  C   UNL     1       1.709   5.164  20.466  0.00  0.00    +0.000 A 
ATOM     22  C   UNL     1       0.767   4.378  19.789  0.00  0.00    +0.000 A 
ATOM     23  C   UNL     1       0.696   3.004  20.017  0.00  0.00    +0.000 A 
ATOM     24  C   UNL     1       1.576   2.399  20.913  0.00  0.00    +0.000 A 
ATOM     25  C   UNL     1       2.539   3.165  21.568  0.00  0.00    +0.000 A 
ATOM     26  C   UNL     1       2.608   4.541  21.344  0.00  0.00    +0.000 A 
ENDBRANCH  20  21
ENDBRANCH   1  20
TORSDOF 7
ENDMDL
MODEL 5
REMARK VINA RESULT:      -7.6      2.254      4.578
REMARK  Name = 
REMARK  11 active torsions:
REMARK  status: ('A' for Active; 'I' for Inactive)
REMARK    1  A    between atoms: C_1  and  N_2
REMARK    2  A    between atoms: C_3  and  C_5
REMARK    3  A    between atoms: C_5  and  C_6
REMARK    4  A    between atoms: C_5  and  N_13
REMARK    5  A    between atoms: C_6  and  C_7
REMARK    6  A    between atoms: C_14  and  C_16
REMARK    7  A    between atoms: C_16  and  N_17
REMARK    8  A    between atoms: C_16  and  C_21
REMARK    9  A    between atoms: C_18  and  C_19
REMARK   10  A    between atoms: C_21  and  C_22
REMARK   11  A    between atoms: C_21  and  C_23
REMARK                            x       y       z     vdW  Elec       q    Type
REMARK                         _______ _______ _______ _____ _____    ______ ____
ROOT
ATOM      1  C   UNL     1       3.014   5.524  17.814  0.00  0.00    +0.000 C 
ENDROOT
BRANCH   1   4
ATOM      2  C   UNL     1       1.957   2.259  19.510  0.00  0.00    +0.000 C 
ATOM      3  N   UNL     1       2.377   3.599  19.216  0.00  0.00    +0.000 N 
ATOM      4  C   UNL     1       2.486   4.073  17.924  0.00  0.00    +0.000 C 
ATOM      5  O   UNL     1       2.298   3.352  16.947  0.00  0.00    +0.000 OA
ATOM      6  H   UNL     1       2.828   4.145  19.945  0.00  0.00    +0.000 HD
ENDBRANCH   1   4
BRANCH   1   7
ATOM      7  N   UNL     1       4.354   5.558  17.216  0.00  0.00    +0.000 N 
ATOM      8  C   UNL     1       5.402   4.808  17.689  0.00  0.00    +0.000 C 
ATOM      9  O   UNL     1       5.305   4.106  18.693  0.00  0.00    +0.000 OA
ATOM     10  H   UNL     1       4.584   6.351  16.614  0.00  0.00    +0.000 HD
BRANCH   8  11
ATOM     11  C   UNL     1       6.754   5.035  16.986  0.00  0.00    +0.000 C 
BRANCH  11  12
ATOM     12  N   UNL     1       7.019   6.483  16.936  0.00  0.00    +0.000 N 
ATOM     13  C   UNL     1       7.698   7.180  17.909  0.00  0.00    +0.000 C 
ATOM     14  C   UNL     1       7.906   8.642  17.607  0.00  0.00    +0.000 C 
ATOM     15  O   UNL     1       8.145   6.652  18.926  0.00  0.00    +0.000 OA
ATOM     16  H   UNL     1       6.879   6.933  16.040  0.00  0.00    +0.000 HD
ENDBRANCH  11  12
BRANCH  11  17
ATOM     17  C   UNL     1       6.909   4.279  15.647  0.00  0.00    +0.000 C 
ATOM     18  C   UNL     1       5.683   3.402  15.371  0.00  0.00    +0.000 C 
ATOM     19  C   UNL     1       7.084   5.252  14.472  0.00  0.00    +0.000 C 
ENDBRANCH  11  17
ENDBRANCH   8  11
ENDBRANCH   1   7
BRANCH   1  20
ATOM     20  C   UNL     1       3.005   6.194  19.202  0.00  0.00    +0.000 C 
BRANCH  20  21
ATOM     21  C   UNL     1       2.217   7.486  19.219  0.00  0.00    +0.000 A 
ATOM     22  C   UNL     1       2.112   8.274  18.065  0.00  0.00    +0.000 A 
ATOM     23  C   UNL     1       1.469   9.512  18.109  0.00  0.00    +0.000 A 
ATOM     24  C   UNL     1       0.912   9.967  19.302  0.00  0.00    +0.000 A 
ATOM     25  C   UNL     1       0.983   9.177  20.449  0.00  0.00    +0.000 A 
ATOM     26  C   UNL     1       1.629   7.941  20.408  0.00  0.00    +0.000 A 
ENDBRANCH  20  21
ENDBRANCH   1  20
TORSDOF 7
ENDMDL
MODEL 6
REMARK VINA RESULT:      -7.6      1.127      1.161
REMARK  Name = 
REMARK  11 active torsions:
REMARK  status: ('A' for Active; 'I' for Inactive)
REMARK    1  A    between atoms: C_1  and  N_2
REMARK    2  A    between atoms: C_3  and  C_5
REMARK    3  A    between atoms: C_5  and  C_6
REMARK    4  A    between atoms: C_5  and  N_13
REMARK    5  A    between atoms: C_6  and  C_7
REMARK    6  A    between atoms: C_14  and  C_16
REMARK    7  A    between atoms: C_16  and  N_17
REMARK    8  A    between atoms: C_16  and  C_21
REMARK    9  A    between atoms: C_18  and  C_19
REMARK   10  A    between atoms: C_21  and  C_22
REMARK   11  A    between atoms: C_21  and  C_23
REMARK                            x       y       z     vdW  Elec       q    Type
REMARK                         _______ _______ _______ _____ _____    ______ ____
ROOT
ATOM      1  C   UNL     1       2.881   6.711  18.720  0.00  0.00    +0.000 C 
ENDROOT
BRANCH   1   4
ATOM      2  C   UNL     1       1.347  10.197  18.338  0.00  0.00    +0.000 C 
ATOM      3  N   UNL     1       2.003   8.938  18.131  0.00  0.00    +0.000 N 
ATOM      4  C   UNL     1       2.080   7.974  19.117  0.00  0.00    +0.000 C 
ATOM      5  O   UNL     1       1.654   8.167  20.253  0.00  0.00    +0.000 OA
ATOM      6  H   UNL     1       2.625   8.832  17.336  0.00  0.00    +0.000 HD
ENDBRANCH   1   4
BRANCH   1   7
ATOM      7  N   UNL     1       4.003   7.050  17.835  0.00  0.00    +0.000 N 
ATOM      8  C   UNL     1       5.060   6.204  17.612  0.00  0.00    +0.000 C 
ATOM      9  O   UNL     1       5.175   5.129  18.197  0.00  0.00    +0.000 OA
ATOM     10  H   UNL     1       4.136   8.034  17.595  0.00  0.00    +0.000 HD
BRANCH   8  11
ATOM     11  C   UNL     1       6.183   6.763  16.717  0.00  0.00    +0.000 C 
BRANCH  11  12
ATOM     12  N   UNL     1       6.185   6.016  15.447  0.00  0.00    +0.000 N 
ATOM     13  C   UNL     1       6.922   4.877  15.219  0.00  0.00    +0.000 C 
ATOM     14  C   UNL     1       6.710   4.250  13.865  0.00  0.00    +0.000 C 
ATOM     15  O   UNL     1       7.663   4.376  16.064  0.00  0.00    +0.000 OA
ATOM     16  H   UNL     1       5.442   6.239  14.796  0.00  0.00    +0.000 HD
ENDBRANCH  11  12
BRANCH  11  17
ATOM     17  C   UNL     1       7.553   6.890  17.421  0.00  0.00    +0.000 C 
ATOM     18  C   UNL     1       7.907   8.361  17.662  0.00  0.00    +0.000 C 
ATOM     19  C   UNL     1       7.557   6.162  18.774  0.00  0.00    +0.000 C 
ENDBRANCH  11  17
ENDBRANCH   8  11
ENDBRANCH   1   7
BRANCH   1  20
ATOM     20  C   UNL     1       1.945   5.679  18.062  0.00  0.00    +0.000 C 
BRANCH  20  21
ATOM     21  C   UNL     1       1.742   4.449  18.920  0.00  0.00    +0.000 A 
ATOM     22  C   UNL     1       1.488   4.570  20.293  0.00  0.00    +0.000 A 
ATOM     23  C   UNL     1       1.401   3.434  21.100  0.00  0.00    +0.000 A 
ATOM     24  C   UNL     1       1.550   2.167  20.540  0.00  0.00    +0.000 A 
ATOM     25  C   UNL     1       1.771   2.033  19.170  0.00  0.00    +0.000 A 
ATOM     26  C   UNL     1       1.864   3.168  18.362  0.00  0.00    +0.000 A 
ENDBRANCH  20  21
ENDBRANCH   1  20
TORSDOF 7
ENDMDL
MODEL 7
REMARK VINA RESULT:      -7.6      1.132      1.540
REMARK  Name = 
REMARK  11 active torsions:
REMARK  status: ('A' for Active; 'I' for Inactive)
REMARK    1  A    between atoms: C_1  and  N_2
REMARK    2  A    between atoms: C_3  and  C_5
REMARK    3  A    between atoms: C_5  and  C_6
REMARK    4  A    between atoms: C_5  and  N_13
REMARK    5  A    between atoms: C_6  and  C_7
REMARK    6  A    between atoms: C_14  and  C_16
REMARK    7  A    between atoms: C_16  and  N_17
REMARK    8  A    between atoms: C_16  and  C_21
REMARK    9  A    between atoms: C_18  and  C_19
REMARK   10  A    between atoms: C_21  and  C_22
REMARK   11  A    between atoms: C_21  and  C_23
REMARK                            x       y       z     vdW  Elec       q    Type
REMARK                         _______ _______ _______ _____ _____    ______ ____
ROOT
ATOM      1  C   UNL     1       2.872   6.801  18.676  0.00  0.00    +0.000 C 
ENDROOT
BRANCH   1   4
ATOM      2  C   UNL     1       1.473  10.342  18.278  0.00  0.00    +0.000 C 
ATOM      3  N   UNL     1       2.104   9.068  18.085  0.00  0.00    +0.000 N 
ATOM      4  C   UNL     1       2.083   8.079  19.049  0.00  0.00    +0.000 C 
ATOM      5  O   UNL     1       1.583   8.258  20.157  0.00  0.00    +0.000 OA
ATOM      6  H   UNL     1       2.777   8.961  17.333  0.00  0.00    +0.000 HD
ENDBRANCH   1   4
BRANCH   1   7
ATOM      7  N   UNL     1       4.007   7.114  17.799  0.00  0.00    +0.000 N 
ATOM      8  C   UNL     1       5.059   6.256  17.603  0.00  0.00    +0.000 C 
ATOM      9  O   UNL     1       5.157   5.190  18.207  0.00  0.00    +0.000 OA
ATOM     10  H   UNL     1       4.152   8.094  17.543  0.00  0.00    +0.000 HD
BRANCH   8  11
ATOM     11  C   UNL     1       6.197   6.789  16.711  0.00  0.00    +0.000 C 
BRANCH  11  12
ATOM     12  N   UNL     1       6.195   6.033  15.447  0.00  0.00    +0.000 N 
ATOM     13  C   UNL     1       6.934   4.895  15.224  0.00  0.00    +0.000 C 
ATOM     14  C   UNL     1       6.717   4.258  13.875  0.00  0.00    +0.000 C 
ATOM     15  O   UNL     1       7.681   4.402  16.068  0.00  0.00    +0.000 OA
ATOM     16  H   UNL     1       5.448   6.249  14.798  0.00  0.00    +0.000 HD
ENDBRANCH  11  12
BRANCH  11  17
ATOM     17  C   UNL     1       7.564   6.898  17.424  0.00  0.00    +0.000 C 
ATOM     18  C   UNL     1       7.931   8.364  17.677  0.00  0.00    +0.000 C 
ATOM     19  C   UNL     1       7.554   6.160  18.771  0.00  0.00    +0.000 C 
ENDBRANCH  11  17
ENDBRANCH   8  11
ENDBRANCH   1   7
BRANCH   1  20
ATOM     20  C   UNL     1       1.930   5.772  18.022  0.00  0.00    +0.000 C 
BRANCH  20  21
ATOM     21  C   UNL     1       1.769   4.519  18.855  0.00  0.00    +0.000 A 
ATOM     22  C   UNL     1       1.667   3.262  18.243  0.00  0.00    +0.000 A 
ATOM     23  C   UNL     1       1.418   2.121  19.007  0.00  0.00    +0.000 A 
ATOM     24  C   UNL     1       1.285   2.222  20.391  0.00  0.00    +0.000 A 
ATOM     25  C   UNL     1       1.417   3.463  21.014  0.00  0.00    +0.000 A 
ATOM     26  C   UNL     1       1.661   4.606  20.251  0.00  0.00    +0.000 A 
ENDBRANCH  20  21
ENDBRANCH   1  20
TORSDOF 7
ENDMDL
MODEL 8
REMARK VINA RESULT:      -7.4      1.375      2.376
REMARK  Name = 
REMARK  11 active torsions:
REMARK  status: ('A' for Active; 'I' for Inactive)
REMARK    1  A    between atoms: C_1  and  N_2
REMARK    2  A    between atoms: C_3  and  C_5
REMARK    3  A    between atoms: C_5  and  C_6
REMARK    4  A    between atoms: C_5  and  N_13
REMARK    5  A    between atoms: C_6  and  C_7
REMARK    6  A    between atoms: C_14  and  C_16
REMARK    7  A    between atoms: C_16  and  N_17
REMARK    8  A    between atoms: C_16  and  C_21
REMARK    9  A    between atoms: C_18  and  C_19
REMARK   10  A    between atoms: C_21  and  C_22
REMARK   11  A    between atoms: C_21  and  C_23
REMARK                            x       y       z     vdW  Elec       q    Type
REMARK                         _______ _______ _______ _____ _____    ______ ____
ROOT
ATOM      1  C   UNL     1       2.968   6.591  18.499  0.00  0.00    +0.000 C 
ENDROOT
BRANCH   1   4
ATOM      2  C   UNL     1       1.105   9.891  19.039  0.00  0.00    +0.000 C 
ATOM      3  N   UNL     1       1.679   8.583  19.169  0.00  0.00    +0.000 N 
ATOM      4  C   UNL     1       2.500   8.036  18.203  0.00  0.00    +0.000 C 
ATOM      5  O   UNL     1       2.729   8.610  17.140  0.00  0.00    +0.000 OA
ATOM      6  H   UNL     1       1.300   7.946  19.863  0.00  0.00    +0.000 HD
ENDBRANCH   1   4
BRANCH   1   7
ATOM      7  N   UNL     1       4.201   6.272  17.770  0.00  0.00    +0.000 N 
ATOM      8  C   UNL     1       5.191   5.475  18.287  0.00  0.00    +0.000 C 
ATOM      9  O   UNL     1       5.141   5.028  19.431  0.00  0.00    +0.000 OA
ATOM     10  H   UNL     1       4.452   6.870  16.979  0.00  0.00    +0.000 HD
BRANCH   8  11
ATOM     11  C   UNL     1       6.447   5.317  17.410  0.00  0.00    +0.000 C 
BRANCH  11  12
ATOM     12  N   UNL     1       7.425   6.347  17.803  0.00  0.00    +0.000 N 
ATOM     13  C   UNL     1       7.303   7.684  17.507  0.00  0.00    +0.000 C 
ATOM     14  C   UNL     1       8.394   8.557  18.071  0.00  0.00    +0.000 C 
ATOM     15  O   UNL     1       6.356   8.148  16.871  0.00  0.00    +0.000 OA
ATOM     16  H   UNL     1       8.102   6.076  18.506  0.00  0.00    +0.000 HD
ENDBRANCH  11  12
BRANCH  11  17
ATOM     17  C   UNL     1       6.156   5.212  15.896  0.00  0.00    +0.000 C 
ATOM     18  C   UNL     1       7.445   4.946  15.110  0.00  0.00    +0.000 C 
ATOM     19  C   UNL     1       5.161   4.082  15.594  0.00  0.00    +0.000 C 
ENDBRANCH  11  17
ENDBRANCH   8  11
ENDBRANCH   1   7
BRANCH   1  20
ATOM     20  C   UNL     1       1.845   5.593  18.157  0.00  0.00    +0.000 C 
BRANCH  20  21
ATOM     21  C   UNL     1       1.718   4.487  19.183  0.00  0.00    +0.000 A 
ATOM     22  C   UNL     1       1.875   4.758  20.549  0.00  0.00    +0.000 A 
ATOM     23  C   UNL     1       1.858   3.721  21.483  0.00  0.00    +0.000 A 
ATOM     24  C   UNL     1       1.668   2.406  21.063  0.00  0.00    +0.000 A 
ATOM     25  C   UNL     1       1.479   2.128  19.709  0.00  0.00    +0.000 A 
ATOM     26  C   UNL     1       1.501   3.163  18.773  0.00  0.00    +0.000 A 
ENDBRANCH  20  21
ENDBRANCH   1  20
TORSDOF 7
ENDMDL
MODEL 9
REMARK VINA RESULT:      -7.4      1.690      3.795
REMARK  Name = 
REMARK  11 active torsions:
REMARK  status: ('A' for Active; 'I' for Inactive)
REMARK    1  A    between atoms: C_1  and  N_2
REMARK    2  A    between atoms: C_3  and  C_5
REMARK    3  A    between atoms: C_5  and  C_6
REMARK    4  A    between atoms: C_5  and  N_13
REMARK    5  A    between atoms: C_6  and  C_7
REMARK    6  A    between atoms: C_14  and  C_16
REMARK    7  A    between atoms: C_16  and  N_17
REMARK    8  A    between atoms: C_16  and  C_21
REMARK    9  A    between atoms: C_18  and  C_19
REMARK   10  A    between atoms: C_21  and  C_22
REMARK   11  A    between atoms: C_21  and  C_23
REMARK                            x       y       z     vdW  Elec       q    Type
REMARK                         _______ _______ _______ _____ _____    ______ ____
ROOT
ATOM      1  C   UNL     1       2.567   5.737  18.213  0.00  0.00    +0.000 C 
ENDROOT
BRANCH   1   4
ATOM      2  C   UNL     1       1.475   2.172  19.077  0.00  0.00    +0.000 C 
ATOM      3  N   UNL     1       2.083   3.471  19.054  0.00  0.00    +0.000 N 
ATOM      4  C   UNL     1       1.758   4.423  18.107  0.00  0.00    +0.000 C 
ATOM      5  O   UNL     1       0.980   4.186  17.185  0.00  0.00    +0.000 OA
ATOM      6  H   UNL     1       2.932   3.627  19.588  0.00  0.00    +0.000 HD
ENDBRANCH   1   4
BRANCH   1   7
ATOM      7  N   UNL     1       3.915   5.577  17.656  0.00  0.00    +0.000 N 
ATOM      8  C   UNL     1       4.651   6.627  17.166  0.00  0.00    +0.000 C 
ATOM      9  O   UNL     1       4.200   7.768  17.097  0.00  0.00    +0.000 OA
ATOM     10  H   UNL     1       4.204   4.637  17.376  0.00  0.00    +0.000 HD
BRANCH   8  11
ATOM     11  C   UNL     1       6.013   6.256  16.548  0.00  0.00    +0.000 C 
BRANCH  11  12
ATOM     12  N   UNL     1       5.813   5.135  15.613  0.00  0.00    +0.000 N 
ATOM     13  C   UNL     1       6.637   4.860  14.546  0.00  0.00    +0.000 C 
ATOM     14  C   UNL     1       6.270   3.621  13.770  0.00  0.00    +0.000 C 
ATOM     15  O   UNL     1       7.624   5.540  14.267  0.00  0.00    +0.000 OA
ATOM     16  H   UNL     1       5.162   4.417  15.908  0.00  0.00    +0.000 HD
ENDBRANCH  11  12
BRANCH  11  17
ATOM     17  C   UNL     1       7.150   6.075  17.578  0.00  0.00    +0.000 C 
ATOM     18  C   UNL     1       7.805   7.420  17.909  0.00  0.00    +0.000 C 
ATOM     19  C   UNL     1       6.630   5.454  18.883  0.00  0.00    +0.000 C 
ENDBRANCH  11  17
ENDBRANCH   8  11
ENDBRANCH   1   7
BRANCH   1  20
ATOM     20  C   UNL     1       2.622   6.205  19.680  0.00  0.00    +0.000 C 
BRANCH  20  21
ATOM     21  C   UNL     1       1.900   7.517  19.900  0.00  0.00    +0.000 A 
ATOM     22  C   UNL     1       1.293   7.801  21.130  0.00  0.00    +0.000 A 
ATOM     23  C   UNL     1       0.543   8.966  21.298  0.00  0.00    +0.000 A 
ATOM     24  C   UNL     1       0.405   9.865  20.242  0.00  0.00    +0.000 A 
ATOM     25  C   UNL     1       1.031   9.609  19.023  0.00  0.00    +0.000 A 
ATOM     26  C   UNL     1       1.777   8.442  18.852  0.00  0.00    +0.000 A 
ENDBRANCH  20  21
ENDBRANCH   1  20
TORSDOF 7
ENDMDL
