MODEL 1
REMARK VINA RESULT:      -8.2      0.000      0.000
REMARK  Name = 
REMARK  7 active torsions:
REMARK  status: ('A' for Active; 'I' for Inactive)
REMARK    1  A    between atoms: C_1  and  C_2
REMARK    2  A    between atoms: N_10  and  C_11
REMARK    3  A    between atoms: C_11  and  C_12
REMARK    4  A    between atoms: C_15  and  C_16
REMARK    5  A    between atoms: N_18  and  C_19
REMARK    6  A    between atoms: C_23  and  C_24
REMARK    7  A    between atoms: N_26  and  O_27
REMARK                            x       y       z     vdW  Elec       q    Type
REMARK                         _______ _______ _______ _____ _____    ______ ____
ROOT
ATOM      1  C   UNL     1       0.700  10.197  19.709  0.00  0.00    +0.000 A 
ATOM      2  C   UNL     1       0.640   9.582  20.942  0.00  0.00    +0.000 A 
ATOM      3  C   UNL     1       1.319   8.351  20.809  0.00  0.00    +0.000 A 
ATOM      4  C   UNL     1       1.720   8.241  19.490  0.00  0.00    +0.000 A 
ATOM      5  O   UNL     1       1.345   9.377  18.808  0.00  0.00    +0.000 OA
ENDROOT
BRANCH   4   6
ATOM      6  C   UNL     1       2.452   7.154  18.863  0.00  0.00    +0.000 C 
ATOM      7  O   UNL     1       3.244   7.349  17.938  0.00  0.00    +0.000 OA
ATOM      8  N   UNL     1       2.238   5.877  19.349  0.00  0.00    +0.000 N 
ATOM      9  H   UNL     1       1.777   5.796  20.252  0.00  0.00    +0.000 HD
BRANCH   8  10
ATOM     10  C   UNL     1       3.032   4.759  18.867  0.00  0.00    +0.000 C 
ATOM     11  C   UNL     1       2.430   4.018  17.676  0.00  0.00    +0.000 C 
ATOM     12  C   UNL     1       3.195   2.694  17.627  0.00  0.00    +0.000 C 
ATOM     13  C   UNL     1       3.887   2.534  18.986  0.00  0.00    +0.000 C 
ATOM     14  C   UNL     1       3.308   3.638  19.880  0.00  0.00    +0.000 C 
BRANCH  14  15
ATOM     15  C   UNL     1       2.060   3.142  20.609  0.00  0.00    +0.000 C 
ATOM     16  O   UNL     1       0.921   3.171  20.128  0.00  0.00    +0.000 OA
ATOM     17  N   UNL     1       2.290   2.664  21.870  0.00  0.00    +0.000 N 
ATOM     18  H   UNL     1       3.179   2.672  22.358  0.00  0.00    +0.000 HD
BRANCH  17  19
ATOM     19  O   UNL     1       1.168   2.192  22.583  0.00  0.00    +0.000 OA
ATOM     20  H   UNL     1       0.505   2.905  22.431  0.00  0.00    +0.000 HD
ENDBRANCH  17  19
ENDBRANCH  14  15
ENDBRANCH   8  10
ENDBRANCH   4   6
BRANCH   1  21
ATOM     21  C   UNL     1       0.304  11.563  19.259  0.00  0.00    +0.000 C 
BRANCH  21  31
ATOM     22  C   UNL     1      -1.393  12.979  21.354  0.00  0.00    +0.000 C 
ATOM     23  C   UNL     1      -1.921  12.372  20.105  0.00  0.00    +0.000 A 
ATOM     24  N   UNL     1      -3.185  12.382  19.742  0.00  0.00    +0.000 NA
ATOM     25  C   UNL     1      -3.237  11.719  18.547  0.00  0.00    +0.000 A 
ATOM     26  C   UNL     1      -4.349  11.482  17.723  0.00  0.00    +0.000 A 
ATOM     27  C   UNL     1      -4.171  10.773  16.534  0.00  0.00    +0.000 A 
ATOM     28  C   UNL     1      -2.915  10.271  16.194  0.00  0.00    +0.000 A 
ATOM     29  C   UNL     1      -1.793  10.482  17.014  0.00  0.00    +0.000 A 
ATOM     30  C   UNL     1      -1.978  11.248  18.176  0.00  0.00    +0.000 A 
ATOM     31  N   UNL     1      -1.138  11.734  19.163  0.00  0.00    +0.000 N 
ENDBRANCH  21  31
ENDBRANCH   1  21
TORSDOF 6
ENDMDL
MODEL 2
REMARK VINA RESULT:      -8.1      2.657      9.275
REMARK  Name = 
REMARK  7 active torsions:
REMARK  status: ('A' for Active; 'I' for Inactive)
REMARK    1  A    between atoms: C_1  and  C_2
REMARK    2  A    between atoms: N_10  and  C_11
REMARK    3  A    between atoms: C_11  and  C_12
REMARK    4  A    between atoms: C_15  and  C_16
REMARK    5  A    between atoms: N_18  and  C_19
REMARK    6  A    between atoms: C_23  and  C_24
REMARK    7  A    between atoms: N_26  and  O_27
REMARK                            x       y       z     vdW  Elec       q    Type
REMARK                         _______ _______ _______ _____ _____    ______ ____
ROOT
ATOM      1  C   UNL     1       2.351   6.625  19.728  0.00  0.00    +0.000 A 
ATOM      2  C   UNL     1       2.272   7.448  18.624  0.00  0.00    +0.000 A 
ATOM      3  C   UNL     1       1.788   8.692  19.086  0.00  0.00    +0.000 A 
ATOM      4  C   UNL     1       1.543   8.563  20.441  0.00  0.00    +0.000 A 
ATOM      5  O   UNL     1       1.892   7.292  20.843  0.00  0.00    +0.000 OA
ENDROOT
BRANCH   4   6
ATOM      6  C   UNL     1       1.037   9.567  21.361  0.00  0.00    +0.000 C 
ATOM      7  O   UNL     1       1.462   9.668  22.514  0.00  0.00    +0.000 OA
ATOM      8  N   UNL     1       0.058  10.424  20.894  0.00  0.00    +0.000 N 
ATOM      9  H   UNL     1      -0.081  10.465  19.886  0.00  0.00    +0.000 HD
BRANCH   8  10
ATOM     10  C   UNL     1      -0.399  11.539  21.707  0.00  0.00    +0.000 C 
ATOM     11  C   UNL     1      -1.451  11.175  22.752  0.00  0.00    +0.000 C 
ATOM     12  C   UNL     1      -2.053  12.517  23.169  0.00  0.00    +0.000 C 
ATOM     13  C   UNL     1      -1.652  13.534  22.093  0.00  0.00    +0.000 C 
ATOM     14  C   UNL     1      -1.043  12.711  20.951  0.00  0.00    +0.000 C 
BRANCH  14  15
ATOM     15  C   UNL     1      -2.122  12.287  19.955  0.00  0.00    +0.000 C 
ATOM     16  O   UNL     1      -2.029  11.302  19.212  0.00  0.00    +0.000 OA
ATOM     17  N   UNL     1      -3.223  13.097  19.930  0.00  0.00    +0.000 N 
ATOM     18  H   UNL     1      -3.344  13.956  20.455  0.00  0.00    +0.000 HD
BRANCH  17  19
ATOM     19  O   UNL     1      -4.249  12.744  19.028  0.00  0.00    +0.000 OA
ATOM     20  H   UNL     1      -3.785  12.138  18.405  0.00  0.00    +0.000 HD
ENDBRANCH  17  19
ENDBRANCH  14  15
ENDBRANCH   8  10
ENDBRANCH   4   6
BRANCH   1  21
ATOM     21  C   UNL     1       2.923   5.260  19.911  0.00  0.00    +0.000 C 
BRANCH  21  31
ATOM     22  C   UNL     1       1.627   3.766  17.595  0.00  0.00    +0.000 C 
ATOM     23  C   UNL     1       3.071   4.104  17.682  0.00  0.00    +0.000 A 
ATOM     24  N   UNL     1       3.967   3.813  16.765  0.00  0.00    +0.000 NA
ATOM     25  C   UNL     1       5.157   4.292  17.238  0.00  0.00    +0.000 A 
ATOM     26  C   UNL     1       6.419   4.267  16.623  0.00  0.00    +0.000 A 
ATOM     27  C   UNL     1       7.510   4.819  17.296  0.00  0.00    +0.000 A 
ATOM     28  C   UNL     1       7.354   5.347  18.577  0.00  0.00    +0.000 A 
ATOM     29  C   UNL     1       6.103   5.367  19.216  0.00  0.00    +0.000 A 
ATOM     30  C   UNL     1       5.005   4.862  18.502  0.00  0.00    +0.000 A 
ATOM     31  N   UNL     1       3.644   4.784  18.740  0.00  0.00    +0.000 N 
ENDBRANCH  21  31
ENDBRANCH   1  21
TORSDOF 6
ENDMDL
MODEL 3
REMARK VINA RESULT:      -8.1      0.984      1.228
REMARK  Name = 
REMARK  7 active torsions:
REMARK  status: ('A' for Active; 'I' for Inactive)
REMARK    1  A    between atoms: C_1  and  C_2
REMARK    2  A    between atoms: N_10  and  C_11
REMARK    3  A    between atoms: C_11  and  C_12
REMARK    4  A    between atoms: C_15  and  C_16
REMARK    5  A    between atoms: N_18  and  C_19
REMARK    6  A    between atoms: C_23  and  C_24
REMARK    7  A    between atoms: N_26  and  O_27
REMARK                            x       y       z     vdW  Elec       q    Type
REMARK                         _______ _______ _______ _____ _____    ______ ____
ROOT
ATOM      1  C   UNL     1       0.933   9.783  19.507  0.00  0.00    +0.000 A 
ATOM      2  C   UNL     1       1.429  10.485  18.428  0.00  0.00    +0.000 A 
ATOM      3  C   UNL     1       2.245   9.586  17.706  0.00  0.00    +0.000 A 
ATOM      4  C   UNL     1       2.256   8.390  18.399  0.00  0.00    +0.000 A 
ATOM      5  O   UNL     1       1.446   8.504  19.508  0.00  0.00    +0.000 OA
ENDROOT
BRANCH   4   6
ATOM      6  C   UNL     1       2.952   7.162  18.058  0.00  0.00    +0.000 C 
ATOM      7  O   UNL     1       4.045   7.169  17.487  0.00  0.00    +0.000 OA
ATOM      8  N   UNL     1       2.349   5.968  18.408  0.00  0.00    +0.000 N 
ATOM      9  H   UNL     1       1.588   6.013  19.082  0.00  0.00    +0.000 HD
BRANCH   8  10
ATOM     10  C   UNL     1       3.045   4.705  18.225  0.00  0.00    +0.000 C 
ATOM     11  C   UNL     1       2.230   3.627  17.514  0.00  0.00    +0.000 C 
ATOM     12  C   UNL     1       2.983   2.328  17.806  0.00  0.00    +0.000 C 
ATOM     13  C   UNL     1       3.927   2.619  18.979  0.00  0.00    +0.000 C 
ATOM     14  C   UNL     1       3.522   4.002  19.505  0.00  0.00    +0.000 C 
BRANCH  14  15
ATOM     15  C   UNL     1       2.443   3.876  20.580  0.00  0.00    +0.000 C 
ATOM     16  O   UNL     1       1.590   4.743  20.808  0.00  0.00    +0.000 OA
ATOM     17  N   UNL     1       2.493   2.716  21.303  0.00  0.00    +0.000 N 
ATOM     18  H   UNL     1       3.199   1.994  21.223  0.00  0.00    +0.000 HD
BRANCH  17  19
ATOM     19  O   UNL     1       1.515   2.553  22.307  0.00  0.00    +0.000 OA
ATOM     20  H   UNL     1       0.693   2.411  21.782  0.00  0.00    +0.000 HD
ENDBRANCH  17  19
ENDBRANCH  14  15
ENDBRANCH   8  10
ENDBRANCH   4   6
BRANCH   1  21
ATOM     21  C   UNL     1      -0.088  10.133  20.535  0.00  0.00    +0.000 C 
BRANCH  21  31
ATOM     22  C   UNL     1      -1.061  12.722  21.810  0.00  0.00    +0.000 C 
ATOM     23  C   UNL     1      -1.626  12.123  20.574  0.00  0.00    +0.000 A 
ATOM     24  N   UNL     1      -2.606  12.642  19.868  0.00  0.00    +0.000 NA
ATOM     25  C   UNL     1      -2.817  11.780  18.827  0.00  0.00    +0.000 A 
ATOM     26  C   UNL     1      -3.731  11.890  17.768  0.00  0.00    +0.000 A 
ATOM     27  C   UNL     1      -3.777  10.880  16.805  0.00  0.00    +0.000 A 
ATOM     28  C   UNL     1      -2.956   9.759  16.922  0.00  0.00    +0.000 A 
ATOM     29  C   UNL     1      -2.046   9.621  17.984  0.00  0.00    +0.000 A 
ATOM     30  C   UNL     1      -1.971  10.674  18.910  0.00  0.00    +0.000 A 
ATOM     31  N   UNL     1      -1.172  10.947  20.006  0.00  0.00    +0.000 N 
ENDBRANCH  21  31
ENDBRANCH   1  21
TORSDOF 6
ENDMDL
MODEL 4
REMARK VINA RESULT:      -8.1      3.225      4.280
REMARK  Name = 
REMARK  7 active torsions:
REMARK  status: ('A' for Active; 'I' for Inactive)
REMARK    1  A    between atoms: C_1  and  C_2
REMARK    2  A    between atoms: N_10  and  C_11
REMARK    3  A    between atoms: C_11  and  C_12
REMARK    4  A    between atoms: C_15  and  C_16
REMARK    5  A    between atoms: N_18  and  C_19
REMARK    6  A    between atoms: C_23  and  C_24
REMARK    7  A    between atoms: N_26  and  O_27
REMARK                            x       y       z     vdW  Elec       q    Type
REMARK                         _______ _______ _______ _____ _____    ______ ____
ROOT
ATOM      1  C   UNL     1       0.610   9.018  19.917  0.00  0.00    +0.000 A 
ATOM      2  C   UNL     1       1.116   8.161  20.873  0.00  0.00    +0.000 A 
ATOM      3  C   UNL     1       2.174   7.455  20.259  0.00  0.00    +0.000 A 
ATOM      4  C   UNL     1       2.237   7.870  18.941  0.00  0.00    +0.000 A 
ATOM      5  O   UNL     1       1.279   8.836  18.726  0.00  0.00    +0.000 OA
ENDROOT
BRANCH   4   6
ATOM      6  C   UNL     1       3.159   7.433  17.907  0.00  0.00    +0.000 C 
ATOM      7  O   UNL     1       3.306   8.064  16.857  0.00  0.00    +0.000 OA
ATOM      8  N   UNL     1       3.882   6.279  18.143  0.00  0.00    +0.000 N 
ATOM      9  H   UNL     1       3.911   5.938  19.101  0.00  0.00    +0.000 HD
BRANCH   8  10
ATOM     10  C   UNL     1       4.921   5.855  17.219  0.00  0.00    +0.000 C 
ATOM     11  C   UNL     1       4.874   4.375  16.845  0.00  0.00    +0.000 C 
ATOM     12  C   UNL     1       6.247   4.094  16.234  0.00  0.00    +0.000 C 
ATOM     13  C   UNL     1       7.159   5.257  16.643  0.00  0.00    +0.000 C 
ATOM     14  C   UNL     1       6.369   6.056  17.688  0.00  0.00    +0.000 C 
BRANCH  14  15
ATOM     15  C   UNL     1       6.643   5.524  19.094  0.00  0.00    +0.000 C 
ATOM     16  O   UNL     1       5.788   4.990  19.811  0.00  0.00    +0.000 OA
ATOM     17  N   UNL     1       7.930   5.693  19.526  0.00  0.00    +0.000 N 
ATOM     18  H   UNL     1       8.667   6.180  19.029  0.00  0.00    +0.000 HD
BRANCH  17  19
ATOM     19  O   UNL     1       8.232   5.215  20.819  0.00  0.00    +0.000 OA
ATOM     20  H   UNL     1       8.013   5.989  21.388  0.00  0.00    +0.000 HD
ENDBRANCH  17  19
ENDBRANCH  14  15
ENDBRANCH   8  10
ENDBRANCH   4   6
BRANCH   1  21
ATOM     21  C   UNL     1      -0.400  10.112  19.997  0.00  0.00    +0.000 C 
BRANCH  21  31
ATOM     22  C   UNL     1      -1.129  11.351  22.682  0.00  0.00    +0.000 C 
ATOM     23  C   UNL     1      -0.168  11.937  21.713  0.00  0.00    +0.000 A 
ATOM     24  N   UNL     1       0.498  13.055  21.898  0.00  0.00    +0.000 NA
ATOM     25  C   UNL     1       1.257  13.230  20.774  0.00  0.00    +0.000 A 
ATOM     26  C   UNL     1       2.172  14.255  20.484  0.00  0.00    +0.000 A 
ATOM     27  C   UNL     1       2.843  14.237  19.260  0.00  0.00    +0.000 A 
ATOM     28  C   UNL     1       2.574  13.239  18.324  0.00  0.00    +0.000 A 
ATOM     29  C   UNL     1       1.649  12.214  18.588  0.00  0.00    +0.000 A 
ATOM     30  C   UNL     1       1.028  12.214  19.847  0.00  0.00    +0.000 A 
ATOM     31  N   UNL     1       0.154  11.361  20.498  0.00  0.00    +0.000 N 
ENDBRANCH  21  31
ENDBRANCH   1  21
TORSDOF 6
ENDMDL
MODEL 5
REMARK VINA RESULT:      -8.0      6.184      9.507
REMARK  Name = 
REMARK  7 active torsions:
REMARK  status: ('A' for Active; 'I' for Inactive)
REMARK    1  A    between atoms: C_1  and  C_2
REMARK    2  A    between atoms: N_10  and  C_11
REMARK    3  A    between atoms: C_11  and  C_12
REMARK    4  A    between atoms: C_15  and  C_16
REMARK    5  A    between atoms: N_18  and  C_19
REMARK    6  A    between atoms: C_23  and  C_24
REMARK    7  A    between atoms: N_26  and  O_27
REMARK                            x       y       z     vdW  Elec       q    Type
REMARK                         _______ _______ _______ _____ _____    ______ ____
ROOT
ATOM      1  C   UNL     1       6.487   6.809  17.445  0.00  0.00    +0.000 A 
ATOM      2  C   UNL     1       7.459   6.283  18.271  0.00  0.00    +0.000 A 
ATOM      3  C   UNL     1       8.308   7.356  18.623  0.00  0.00    +0.000 A 
ATOM      4  C   UNL     1       7.853   8.479  17.958  0.00  0.00    +0.000 A 
ATOM      5  O   UNL     1       6.728   8.149  17.233  0.00  0.00    +0.000 OA
ENDROOT
BRANCH   4   6
ATOM      6  C   UNL     1       8.395   9.826  17.996  0.00  0.00    +0.000 C 
ATOM      7  O   UNL     1       7.890  10.750  17.355  0.00  0.00    +0.000 OA
ATOM      8  N   UNL     1       9.504  10.044  18.792  0.00  0.00    +0.000 N 
ATOM      9  H   UNL     1       9.730   9.328  19.479  0.00  0.00    +0.000 HD
BRANCH   8  10
ATOM     10  C   UNL     1      10.020  11.389  18.989  0.00  0.00    +0.000 C 
ATOM     11  C   UNL     1      11.481  11.452  19.426  0.00  0.00    +0.000 C 
ATOM     12  C   UNL     1      11.659  12.876  19.955  0.00  0.00    +0.000 C 
ATOM     13  C   UNL     1      10.251  13.436  20.195  0.00  0.00    +0.000 C 
ATOM     14  C   UNL     1       9.298  12.244  20.042  0.00  0.00    +0.000 C 
BRANCH  14  15
ATOM     15  C   UNL     1       9.099  11.537  21.382  0.00  0.00    +0.000 C 
ATOM     16  O   UNL     1       8.911  10.319  21.501  0.00  0.00    +0.000 OA
ATOM     17  N   UNL     1       9.130  12.363  22.472  0.00  0.00    +0.000 N 
ATOM     18  H   UNL     1       9.209  13.373  22.452  0.00  0.00    +0.000 HD
BRANCH  17  19
ATOM     19  O   UNL     1       8.953  11.755  23.733  0.00  0.00    +0.000 OA
ATOM     20  H   UNL     1       8.900  12.531  24.337  0.00  0.00    +0.000 HD
ENDBRANCH  17  19
ENDBRANCH  14  15
ENDBRANCH   8  10
ENDBRANCH   4   6
BRANCH   1  21
ATOM     21  C   UNL     1       5.240   6.219  16.877  0.00  0.00    +0.000 C 
BRANCH  21  31
ATOM     22  C   UNL     1       3.045   8.188  17.638  0.00  0.00    +0.000 C 
ATOM     23  C   UNL     1       3.223   6.843  18.244  0.00  0.00    +0.000 A 
ATOM     24  N   UNL     1       2.448   6.329  19.173  0.00  0.00    +0.000 NA
ATOM     25  C   UNL     1       2.961   5.092  19.448  0.00  0.00    +0.000 A 
ATOM     26  C   UNL     1       2.482   4.123  20.344  0.00  0.00    +0.000 A 
ATOM     27  C   UNL     1       3.173   2.916  20.468  0.00  0.00    +0.000 A 
ATOM     28  C   UNL     1       4.344   2.698  19.744  0.00  0.00    +0.000 A 
ATOM     29  C   UNL     1       4.850   3.662  18.855  0.00  0.00    +0.000 A 
ATOM     30  C   UNL     1       4.111   4.845  18.699  0.00  0.00    +0.000 A 
ATOM     31  N   UNL     1       4.224   5.960  17.886  0.00  0.00    +0.000 N 
ENDBRANCH  21  31
ENDBRANCH   1  21
TORSDOF 6
ENDMDL
MODEL 6
REMARK VINA RESULT:      -7.9      2.584      9.298
REMARK  Name = 
REMARK  7 active torsions:
REMARK  status: ('A' for Active; 'I' for Inactive)
REMARK    1  A    between atoms: C_1  and  C_2
REMARK    2  A    between atoms: N_10  and  C_11
REMARK    3  A    between atoms: C_11  and  C_12
REMARK    4  A    between atoms: C_15  and  C_16
REMARK    5  A    between atoms: N_18  and  C_19
REMARK    6  A    between atoms: C_23  and  C_24
REMARK    7  A    between atoms: N_26  and  O_27
REMARK                            x       y       z     vdW  Elec       q    Type
REMARK                         _______ _______ _______ _____ _____    ______ ____
ROOT
ATOM      1  C   UNL     1       2.455   6.889  19.410  0.00  0.00    +0.000 A 
ATOM      2  C   UNL     1       2.435   7.585  18.219  0.00  0.00    +0.000 A 
ATOM      3  C   UNL     1       1.871   8.849  18.502  0.00  0.00    +0.000 A 
ATOM      4  C   UNL     1       1.521   8.854  19.840  0.00  0.00    +0.000 A 
ATOM      5  O   UNL     1       1.882   7.651  20.405  0.00  0.00    +0.000 OA
ENDROOT
BRANCH   4   6
ATOM      6  C   UNL     1       0.906   9.927  20.602  0.00  0.00    +0.000 C 
ATOM      7  O   UNL     1       1.268  10.203  21.748  0.00  0.00    +0.000 OA
ATOM      8  N   UNL     1      -0.104  10.646  19.989  0.00  0.00    +0.000 N 
ATOM      9  H   UNL     1      -0.196  10.550  18.981  0.00  0.00    +0.000 HD
BRANCH   8  10
ATOM     10  C   UNL     1      -0.672  11.819  20.634  0.00  0.00    +0.000 C 
ATOM     11  C   UNL     1      -1.851  11.528  21.558  0.00  0.00    +0.000 C 
ATOM     12  C   UNL     1      -2.512  12.891  21.771  0.00  0.00    +0.000 C 
ATOM     13  C   UNL     1      -1.978  13.817  20.672  0.00  0.00    +0.000 C 
ATOM     14  C   UNL     1      -1.216  12.909  19.698  0.00  0.00    +0.000 C 
BRANCH  14  15
ATOM     15  C   UNL     1      -2.150  12.381  18.610  0.00  0.00    +0.000 C 
ATOM     16  O   UNL     1      -3.335  12.080  18.802  0.00  0.00    +0.000 OA
ATOM     17  N   UNL     1      -1.571  12.245  17.379  0.00  0.00    +0.000 N 
ATOM     18  H   UNL     1      -0.594  12.403  17.159  0.00  0.00    +0.000 HD
BRANCH  17  19
ATOM     19  O   UNL     1      -2.395  11.762  16.340  0.00  0.00    +0.000 OA
ATOM     20  H   UNL     1      -2.152  12.349  15.587  0.00  0.00    +0.000 HD
ENDBRANCH  17  19
ENDBRANCH  14  15
ENDBRANCH   8  10
ENDBRANCH   4   6
BRANCH   1  21
ATOM     21  C   UNL     1       3.059   5.579  19.785  0.00  0.00    +0.000 C 
BRANCH  21  31
ATOM     22  C   UNL     1       1.674   3.832  17.711  0.00  0.00    +0.000 C 
ATOM     23  C   UNL     1       3.128   4.133  17.728  0.00  0.00    +0.000 A 
ATOM     24  N   UNL     1       3.996   3.695  16.844  0.00  0.00    +0.000 NA
ATOM     25  C   UNL     1       5.209   4.195  17.229  0.00  0.00    +0.000 A 
ATOM     26  C   UNL     1       6.457   4.048  16.603  0.00  0.00    +0.000 A 
ATOM     27  C   UNL     1       7.577   4.651  17.178  0.00  0.00    +0.000 A 
ATOM     28  C   UNL     1       7.463   5.349  18.379  0.00  0.00    +0.000 A 
ATOM     29  C   UNL     1       6.226   5.493  19.031  0.00  0.00    +0.000 A 
ATOM     30  C   UNL     1       5.100   4.932  18.408  0.00  0.00    +0.000 A 
ATOM     31  N   UNL     1       3.742   4.929  18.676  0.00  0.00    +0.000 N 
ENDBRANCH  21  31
ENDBRANCH   1  21
TORSDOF 6
ENDMDL
MODEL 7
REMARK VINA RESULT:      -7.9      3.243      8.898
REMARK  Name = 
REMARK  7 active torsions:
REMARK  status: ('A' for Active; 'I' for Inactive)
REMARK    1  A    between atoms: C_1  and  C_2
REMARK    2  A    between atoms: N_10  and  C_11
REMARK    3  A    between atoms: C_11  and  C_12
REMARK    4  A    between atoms: C_15  and  C_16
REMARK    5  A    between atoms: N_18  and  C_19
REMARK    6  A    between atoms: C_23  and  C_24
REMARK    7  A    between atoms: N_26  and  O_27
REMARK                            x       y       z     vdW  Elec       q    Type
REMARK                         _______ _______ _______ _____ _____    ______ ____
ROOT
ATOM      1  C   UNL     1       3.797   5.006  19.023  0.00  0.00    +0.000 A 
ATOM      2  C   UNL     1       2.958   5.024  20.118  0.00  0.00    +0.000 A 
ATOM      3  C   UNL     1       2.205   6.216  20.025  0.00  0.00    +0.000 A 
ATOM      4  C   UNL     1       2.649   6.900  18.909  0.00  0.00    +0.000 A 
ATOM      5  O   UNL     1       3.628   6.157  18.285  0.00  0.00    +0.000 OA
ENDROOT
BRANCH   4   6
ATOM      6  C   UNL     1       2.185   8.177  18.395  0.00  0.00    +0.000 C 
ATOM      7  O   UNL     1       2.394   8.526  17.232  0.00  0.00    +0.000 OA
ATOM      8  N   UNL     1       1.482   8.994  19.261  0.00  0.00    +0.000 N 
ATOM      9  H   UNL     1       1.126   8.570  20.114  0.00  0.00    +0.000 HD
BRANCH   8  10
ATOM     10  C   UNL     1       0.868  10.223  18.783  0.00  0.00    +0.000 C 
ATOM     11  C   UNL     1       1.823  11.408  18.669  0.00  0.00    +0.000 C 
ATOM     12  C   UNL     1       0.905  12.627  18.563  0.00  0.00    +0.000 C 
ATOM     13  C   UNL     1      -0.484  12.174  19.029  0.00  0.00    +0.000 C 
ATOM     14  C   UNL     1      -0.286  10.778  19.632  0.00  0.00    +0.000 C 
BRANCH  14  15
ATOM     15  C   UNL     1       0.034  10.875  21.123  0.00  0.00    +0.000 C 
ATOM     16  O   UNL     1       1.079  10.454  21.635  0.00  0.00    +0.000 OA
ATOM     17  N   UNL     1      -0.944  11.461  21.879  0.00  0.00    +0.000 N 
ATOM     18  H   UNL     1      -1.852  11.766  21.546  0.00  0.00    +0.000 HD
BRANCH  17  19
ATOM     19  O   UNL     1      -0.693  11.575  23.263  0.00  0.00    +0.000 OA
ATOM     20  H   UNL     1      -1.601  11.635  23.638  0.00  0.00    +0.000 HD
ENDBRANCH  17  19
ENDBRANCH  14  15
ENDBRANCH   8  10
ENDBRANCH   4   6
BRANCH   1  21
ATOM     21  C   UNL     1       4.711   3.956  18.489  0.00  0.00    +0.000 C 
BRANCH  21  31
ATOM     22  C   UNL     1       7.096   5.554  19.504  0.00  0.00    +0.000 C 
ATOM     23  C   UNL     1       6.844   5.223  18.079  0.00  0.00    +0.000 A 
ATOM     24  N   UNL     1       7.626   5.567  17.078  0.00  0.00    +0.000 NA
ATOM     25  C   UNL     1       7.030   5.074  15.950  0.00  0.00    +0.000 A 
ATOM     26  C   UNL     1       7.479   5.140  14.622  0.00  0.00    +0.000 A 
ATOM     27  C   UNL     1       6.701   4.563  13.616  0.00  0.00    +0.000 A 
ATOM     28  C   UNL     1       5.478   3.969  13.925  0.00  0.00    +0.000 A 
ATOM     29  C   UNL     1       5.003   3.908  15.246  0.00  0.00    +0.000 A 
ATOM     30  C   UNL     1       5.825   4.440  16.252  0.00  0.00    +0.000 A 
ATOM     31  N   UNL     1       5.758   4.495  17.633  0.00  0.00    +0.000 N 
ENDBRANCH  21  31
ENDBRANCH   1  21
TORSDOF 6
ENDMDL
MODEL 8
REMARK VINA RESULT:      -7.9      3.358      8.711
REMARK  Name = 
REMARK  7 active torsions:
REMARK  status: ('A' for Active; 'I' for Inactive)
REMARK    1  A    between atoms: C_1  and  C_2
REMARK    2  A    between atoms: N_10  and  C_11
REMARK    3  A    between atoms: C_11  and  C_12
REMARK    4  A    between atoms: C_15  and  C_16
REMARK    5  A    between atoms: N_18  and  C_19
REMARK    6  A    between atoms: C_23  and  C_24
REMARK    7  A    between atoms: N_26  and  O_27
REMARK                            x       y       z     vdW  Elec       q    Type
REMARK                         _______ _______ _______ _____ _____    ______ ____
ROOT
ATOM      1  C   UNL     1       4.443   5.550  19.268  0.00  0.00    +0.000 A 
ATOM      2  C   UNL     1       3.294   4.939  19.725  0.00  0.00    +0.000 A 
ATOM      3  C   UNL     1       2.233   5.835  19.464  0.00  0.00    +0.000 A 
ATOM      4  C   UNL     1       2.782   6.975  18.908  0.00  0.00    +0.000 A 
ATOM      5  O   UNL     1       4.143   6.804  18.781  0.00  0.00    +0.000 OA
ENDROOT
BRANCH   4   6
ATOM      6  C   UNL     1       2.098   8.179  18.470  0.00  0.00    +0.000 C 
ATOM      7  O   UNL     1       2.111   8.545  17.293  0.00  0.00    +0.000 OA
ATOM      8  N   UNL     1       1.412   8.905  19.426  0.00  0.00    +0.000 N 
ATOM      9  H   UNL     1       1.224   8.444  20.313  0.00  0.00    +0.000 HD
BRANCH   8  10
ATOM     10  C   UNL     1       0.591  10.042  19.043  0.00  0.00    +0.000 C 
ATOM     11  C   UNL     1       1.371  11.324  18.761  0.00  0.00    +0.000 C 
ATOM     12  C   UNL     1       0.312  12.427  18.794  0.00  0.00    +0.000 C 
ATOM     13  C   UNL     1      -0.921  11.835  19.487  0.00  0.00    +0.000 C 
ATOM     14  C   UNL     1      -0.467  10.488  20.063  0.00  0.00    +0.000 C 
BRANCH  14  15
ATOM     15  C   UNL     1       0.076  10.664  21.481  0.00  0.00    +0.000 C 
ATOM     16  O   UNL     1       0.717  11.653  21.859  0.00  0.00    +0.000 OA
ATOM     17  N   UNL     1      -0.188   9.621  22.325  0.00  0.00    +0.000 N 
ATOM     18  H   UNL     1      -0.644   8.751  22.074  0.00  0.00    +0.000 HD
BRANCH  17  19
ATOM     19  O   UNL     1       0.292   9.738  23.647  0.00  0.00    +0.000 OA
ATOM     20  H   UNL     1       1.215   9.403  23.568  0.00  0.00    +0.000 HD
ENDBRANCH  17  19
ENDBRANCH  14  15
ENDBRANCH   8  10
ENDBRANCH   4   6
BRANCH   1  21
ATOM     21  C   UNL     1       5.843   5.055  19.125  0.00  0.00    +0.000 C 
BRANCH  21  31
ATOM     22  C   UNL     1       8.000   7.142  18.611  0.00  0.00    +0.000 C 
ATOM     23  C   UNL     1       7.392   6.279  17.567  0.00  0.00    +0.000 A 
ATOM     24  N   UNL     1       7.717   6.298  16.293  0.00  0.00    +0.000 NA
ATOM     25  C   UNL     1       6.922   5.364  15.688  0.00  0.00    +0.000 A 
ATOM     26  C   UNL     1       6.899   4.972  14.341  0.00  0.00    +0.000 A 
ATOM     27  C   UNL     1       5.994   3.989  13.937  0.00  0.00    +0.000 A 
ATOM     28  C   UNL     1       5.099   3.437  14.853  0.00  0.00    +0.000 A 
ATOM     29  C   UNL     1       5.095   3.828  16.203  0.00  0.00    +0.000 A 
ATOM     30  C   UNL     1       6.051   4.775  16.603  0.00  0.00    +0.000 A 
ATOM     31  N   UNL     1       6.413   5.335  17.816  0.00  0.00    +0.000 N 
ENDBRANCH  21  31
ENDBRANCH   1  21
TORSDOF 6
ENDMDL
MODEL 9
REMARK VINA RESULT:      -7.8      1.736      3.114
REMARK  Name = 
REMARK  7 active torsions:
REMARK  status: ('A' for Active; 'I' for Inactive)
REMARK    1  A    between atoms: C_1  and  C_2
REMARK    2  A    between atoms: N_10  and  C_11
REMARK    3  A    between atoms: C_11  and  C_12
REMARK    4  A    between atoms: C_15  and  C_16
REMARK    5  A    between atoms: N_18  and  C_19
REMARK    6  A    between atoms: C_23  and  C_24
REMARK    7  A    between atoms: N_26  and  O_27
REMARK                            x       y       z     vdW  Elec       q    Type
REMARK                         _______ _______ _______ _____ _____    ______ ____
ROOT
ATOM      1  C   UNL     1       0.884  10.040  20.109  0.00  0.00    +0.000 A 
ATOM      2  C   UNL     1       0.921   9.825  21.471  0.00  0.00    +0.000 A 
ATOM      3  C   UNL     1       1.393   8.507  21.657  0.00  0.00    +0.000 A 
ATOM      4  C   UNL     1       1.575   7.954  20.403  0.00  0.00    +0.000 A 
ATOM      5  O   UNL     1       1.267   8.894  19.445  0.00  0.00    +0.000 OA
ENDROOT
BRANCH   4   6
ATOM      6  C   UNL     1       2.046   6.620  20.072  0.00  0.00    +0.000 C 
ATOM      7  O   UNL     1       1.706   5.629  20.721  0.00  0.00    +0.000 OA
ATOM      8  N   UNL     1       2.890   6.494  18.984  0.00  0.00    +0.000 N 
ATOM      9  H   UNL     1       2.942   7.283  18.344  0.00  0.00    +0.000 HD
BRANCH   8  10
ATOM     10  C   UNL     1       3.292   5.180  18.507  0.00  0.00    +0.000 C 
ATOM     11  C   UNL     1       4.237   4.428  19.440  0.00  0.00    +0.000 C 
ATOM     12  C   UNL     1       4.824   3.316  18.569  0.00  0.00    +0.000 C 
ATOM     13  C   UNL     1       4.541   3.701  17.112  0.00  0.00    +0.000 C 
ATOM     14  C   UNL     1       4.023   5.144  17.157  0.00  0.00    +0.000 C 
BRANCH  14  15
ATOM     15  C   UNL     1       5.180   6.136  17.053  0.00  0.00    +0.000 C 
ATOM     16  O   UNL     1       5.130   7.303  17.462  0.00  0.00    +0.000 OA
ATOM     17  N   UNL     1       6.302   5.641  16.448  0.00  0.00    +0.000 N 
ATOM     18  H   UNL     1       6.397   4.724  16.027  0.00  0.00    +0.000 HD
BRANCH  17  19
ATOM     19  O   UNL     1       7.399   6.521  16.331  0.00  0.00    +0.000 OA
ATOM     20  H   UNL     1       8.074   5.960  15.882  0.00  0.00    +0.000 HD
ENDBRANCH  17  19
ENDBRANCH  14  15
ENDBRANCH   8  10
ENDBRANCH   4   6
BRANCH   1  21
ATOM     21  C   UNL     1       0.622  11.266  19.303  0.00  0.00    +0.000 C 
BRANCH  21  31
ATOM     22  C   UNL     1      -0.833  13.174  21.178  0.00  0.00    +0.000 C 
ATOM     23  C   UNL     1      -1.468  12.451  20.047  0.00  0.00    +0.000 A 
ATOM     24  N   UNL     1      -2.734  12.554  19.705  0.00  0.00    +0.000 NA
ATOM     25  C   UNL     1      -2.901  11.727  18.629  0.00  0.00    +0.000 A 
ATOM     26  C   UNL     1      -4.059  11.500  17.869  0.00  0.00    +0.000 A 
ATOM     27  C   UNL     1      -4.002  10.602  16.801  0.00  0.00    +0.000 A 
ATOM     28  C   UNL     1      -2.823   9.910  16.525  0.00  0.00    +0.000 A 
ATOM     29  C   UNL     1      -1.658  10.110  17.285  0.00  0.00    +0.000 A 
ATOM     30  C   UNL     1      -1.716  11.061  18.317  0.00  0.00    +0.000 A 
ATOM     31  N   UNL     1      -0.794  11.589  19.203  0.00  0.00    +0.000 N 
ENDBRANCH  21  31
ENDBRANCH   1  21
TORSDOF 6
ENDMDL
