MODEL 1
REMARK VINA RESULT:      -8.7      0.000      0.000
REMARK  Name = 
REMARK  8 active torsions:
REMARK  status: ('A' for Active; 'I' for Inactive)
REMARK    1  A    between atoms: C_1  and  C_2
REMARK    2  A    between atoms: C_2  and  C_3
REMARK    3  A    between atoms: C_3  and  N_4
REMARK    4  A    between atoms: N_4  and  C_5
REMARK    5  A    between atoms: N_4  and  C_23
REMARK    6  A    between atoms: N_9  and  C_10
REMARK    7  A    between atoms: C_23  and  C_24
REMARK    8  A    between atoms: C_24  and  C_25
REMARK                            x       y       z     vdW  Elec       q    Type
REMARK                         _______ _______ _______ _____ _____    ______ ____
ROOT
ATOM      1  C   UNL     1       5.420   3.943  17.123  0.00  0.00    +0.000 C 
ATOM      2  C   UNL     1       4.208   4.426  17.444  0.00  0.00    +0.000 C 
ATOM      3  C   UNL     1       3.810   5.878  17.411  0.00  0.00    +0.000 C 
ATOM      4  O   UNL     1       4.357   6.774  16.798  0.00  0.00    +0.000 OA
ATOM      5  N   UNL     1       2.730   5.954  18.301  0.00  0.00    +0.000 N 
ATOM      6  C   UNL     1       2.312   4.677  18.714  0.00  0.00    +0.000 A 
ATOM      7  C   UNL     1       1.200   4.329  19.465  0.00  0.00    +0.000 A 
ATOM      8  C   UNL     1       0.950   2.970  19.670  0.00  0.00    +0.000 A 
ATOM      9  C   UNL     1       1.808   1.990  19.147  0.00  0.00    +0.000 A 
ATOM     10  C   UNL     1       2.932   2.352  18.391  0.00  0.00    +0.000 A 
ATOM     11  C   UNL     1       3.160   3.699  18.165  0.00  0.00    +0.000 A 
ENDROOT
BRANCH   5  12
ATOM     12  C   UNL     1       2.167   7.155  18.756  0.00  0.00    +0.000 A 
ATOM     13  C   UNL     1       1.886   8.171  17.837  0.00  0.00    +0.000 A 
ATOM     14  C   UNL     1       1.374   9.392  18.271  0.00  0.00    +0.000 A 
ATOM     15  C   UNL     1       1.192   9.626  19.634  0.00  0.00    +0.000 A 
ATOM     16  C   UNL     1       1.514   8.631  20.554  0.00  0.00    +0.000 A 
ATOM     17 CL   UNL     1       1.359   8.953  22.239  0.00  0.00    +0.000 Cl
ATOM     18  C   UNL     1       1.984   7.389  20.126  0.00  0.00    +0.000 A 
ENDBRANCH   5  12
BRANCH   1  19
ATOM     19  N   UNL     1       6.610   4.606  16.817  0.00  0.00    +0.000 N 
BRANCH  19  20
ATOM     20  C   UNL     1       7.114   4.710  15.416  0.00  0.00    +0.000 C 
BRANCH  20  22
ATOM     21  C   UNL     1       6.210   3.710  13.258  0.00  0.00    +0.000 C 
ATOM     22  C   UNL     1       6.033   4.770  14.330  0.00  0.00    +0.000 C 
ENDBRANCH  20  22
ENDBRANCH  19  20
BRANCH  19  23
ATOM     23  C   UNL     1       7.678   4.664  17.842  0.00  0.00    +0.000 C 
BRANCH  23  24
ATOM     24  C   UNL     1       7.540   5.870  18.777  0.00  0.00    +0.000 C 
ATOM     25  C   UNL     1       7.819   7.199  18.090  0.00  0.00    +0.000 C 
ENDBRANCH  23  24
ENDBRANCH  19  23
ENDBRANCH   1  19
TORSDOF 6
ENDMDL
MODEL 2
REMARK VINA RESULT:      -8.4      0.972      1.372
REMARK  Name = 
REMARK  8 active torsions:
REMARK  status: ('A' for Active; 'I' for Inactive)
REMARK    1  A    between atoms: C_1  and  C_2
REMARK    2  A    between atoms: C_2  and  C_3
REMARK    3  A    between atoms: C_3  and  N_4
REMARK    4  A    between atoms: N_4  and  C_5
REMARK    5  A    between atoms: N_4  and  C_23
REMARK    6  A    between atoms: N_9  and  C_10
REMARK    7  A    between atoms: C_23  and  C_24
REMARK    8  A    between atoms: C_24  and  C_25
REMARK                            x       y       z     vdW  Elec       q    Type
REMARK                         _______ _______ _______ _____ _____    ______ ____
ROOT
ATOM      1  C   UNL     1       5.250   4.009  17.094  0.00  0.00    +0.000 C 
ATOM      2  C   UNL     1       4.076   4.485  17.540  0.00  0.00    +0.000 C 
ATOM      3  C   UNL     1       3.720   5.942  17.677  0.00  0.00    +0.000 C 
ATOM      4  O   UNL     1       4.254   6.883  17.121  0.00  0.00    +0.000 OA
ATOM      5  N   UNL     1       2.701   5.955  18.639  0.00  0.00    +0.000 N 
ATOM      6  C   UNL     1       2.272   4.653  18.950  0.00  0.00    +0.000 A 
ATOM      7  C   UNL     1       1.199   4.257  19.734  0.00  0.00    +0.000 A 
ATOM      8  C   UNL     1       0.922   2.891  19.821  0.00  0.00    +0.000 A 
ATOM      9  C   UNL     1       1.715   1.949  19.148  0.00  0.00    +0.000 A 
ATOM     10  C   UNL     1       2.800   2.357  18.359  0.00  0.00    +0.000 A 
ATOM     11  C   UNL     1       3.053   3.714  18.253  0.00  0.00    +0.000 A 
ENDROOT
BRANCH   5  12
ATOM     12  C   UNL     1       2.205   7.116  19.246  0.00  0.00    +0.000 A 
ATOM     13  C   UNL     1       1.949   7.114  20.621  0.00  0.00    +0.000 A 
ATOM     14  C   UNL     1       1.407   8.240  21.239  0.00  0.00    +0.000 A 
ATOM     15  C   UNL     1       1.066   9.357  20.476  0.00  0.00    +0.000 A 
ATOM     16  C   UNL     1       1.279   9.343  19.099  0.00  0.00    +0.000 A 
ATOM     17 CL   UNL     1       0.785  10.696  18.153  0.00  0.00    +0.000 Cl
ATOM     18  C   UNL     1       1.862   8.238  18.479  0.00  0.00    +0.000 A 
ENDBRANCH   5  12
BRANCH   1  19
ATOM     19  N   UNL     1       6.437   4.671  16.778  0.00  0.00    +0.000 N 
BRANCH  19  20
ATOM     20  C   UNL     1       6.919   4.791  15.370  0.00  0.00    +0.000 C 
BRANCH  20  22
ATOM     21  C   UNL     1       6.255   3.721  13.159  0.00  0.00    +0.000 C 
ATOM     22  C   UNL     1       5.841   4.645  14.290  0.00  0.00    +0.000 C 
ENDBRANCH  20  22
ENDBRANCH  19  20
BRANCH  19  23
ATOM     23  C   UNL     1       7.523   4.710  17.786  0.00  0.00    +0.000 C 
BRANCH  23  24
ATOM     24  C   UNL     1       7.454   5.949  18.684  0.00  0.00    +0.000 C 
ATOM     25  C   UNL     1       7.816   7.238  17.961  0.00  0.00    +0.000 C 
ENDBRANCH  23  24
ENDBRANCH  19  23
ENDBRANCH   1  19
TORSDOF 6
ENDMDL
MODEL 3
REMARK VINA RESULT:      -8.3      1.137      2.448
REMARK  Name = 
REMARK  8 active torsions:
REMARK  status: ('A' for Active; 'I' for Inactive)
REMARK    1  A    between atoms: C_1  and  C_2
REMARK    2  A    between atoms: C_2  and  C_3
REMARK    3  A    between atoms: C_3  and  N_4
REMARK    4  A    between atoms: N_4  and  C_5
REMARK    5  A    between atoms: N_4  and  C_23
REMARK    6  A    between atoms: N_9  and  C_10
REMARK    7  A    between atoms: C_23  and  C_24
REMARK    8  A    between atoms: C_24  and  C_25
REMARK                            x       y       z     vdW  Elec       q    Type
REMARK                         _______ _______ _______ _____ _____    ______ ____
ROOT
ATOM      1  C   UNL     1       5.828   4.290  18.361  0.00  0.00    +0.000 C 
ATOM      2  C   UNL     1       4.565   4.702  18.558  0.00  0.00    +0.000 C 
ATOM      3  C   UNL     1       3.993   6.017  18.096  0.00  0.00    +0.000 C 
ATOM      4  O   UNL     1       4.431   6.739  17.221  0.00  0.00    +0.000 OA
ATOM      5  N   UNL     1       2.906   6.235  18.953  0.00  0.00    +0.000 N 
ATOM      6  C   UNL     1       2.645   5.107  19.750  0.00  0.00    +0.000 A 
ATOM      7  C   UNL     1       1.579   4.878  20.606  0.00  0.00    +0.000 A 
ATOM      8  C   UNL     1       1.495   3.628  21.225  0.00  0.00    +0.000 A 
ATOM      9  C   UNL     1       2.469   2.643  20.999  0.00  0.00    +0.000 A 
ATOM     10  C   UNL     1       3.545   2.884  20.133  0.00  0.00    +0.000 A 
ATOM     11  C   UNL     1       3.608   4.114  19.500  0.00  0.00    +0.000 A 
ENDROOT
BRANCH   5  12
ATOM     12  C   UNL     1       2.200   7.442  19.038  0.00  0.00    +0.000 A 
ATOM     13  C   UNL     1       2.020   8.213  17.884  0.00  0.00    +0.000 A 
ATOM     14  C   UNL     1       1.366   9.442  17.952  0.00  0.00    +0.000 A 
ATOM     15  C   UNL     1       0.935   9.934  19.184  0.00  0.00    +0.000 A 
ATOM     16  C   UNL     1       1.153   9.188  20.340  0.00  0.00    +0.000 A 
ATOM     17 CL   UNL     1       0.686   9.836  21.866  0.00  0.00    +0.000 Cl
ATOM     18  C   UNL     1       1.767   7.937  20.276  0.00  0.00    +0.000 A 
ENDBRANCH   5  12
BRANCH   1  19
ATOM     19  N   UNL     1       6.930   4.962  17.829  0.00  0.00    +0.000 N 
BRANCH  19  20
ATOM     20  C   UNL     1       7.437   6.234  18.424  0.00  0.00    +0.000 C 
BRANCH  20  22
ATOM     21  C   UNL     1       8.205   8.636  18.087  0.00  0.00    +0.000 C 
ATOM     22  C   UNL     1       7.621   7.394  17.438  0.00  0.00    +0.000 C 
ENDBRANCH  20  22
ENDBRANCH  19  20
BRANCH  19  23
ATOM     23  C   UNL     1       7.223   4.820  16.383  0.00  0.00    +0.000 C 
BRANCH  23  24
ATOM     24  C   UNL     1       6.229   3.904  15.663  0.00  0.00    +0.000 C 
ATOM     25  C   UNL     1       5.500   4.589  14.516  0.00  0.00    +0.000 C 
ENDBRANCH  23  24
ENDBRANCH  19  23
ENDBRANCH   1  19
TORSDOF 6
ENDMDL
MODEL 4
REMARK VINA RESULT:      -8.1      1.045      1.160
REMARK  Name = 
REMARK  8 active torsions:
REMARK  status: ('A' for Active; 'I' for Inactive)
REMARK    1  A    between atoms: C_1  and  C_2
REMARK    2  A    between atoms: C_2  and  C_3
REMARK    3  A    between atoms: C_3  and  N_4
REMARK    4  A    between atoms: N_4  and  C_5
REMARK    5  A    between atoms: N_4  and  C_23
REMARK    6  A    between atoms: N_9  and  C_10
REMARK    7  A    between atoms: C_23  and  C_24
REMARK    8  A    between atoms: C_24  and  C_25
REMARK                            x       y       z     vdW  Elec       q    Type
REMARK                         _______ _______ _______ _____ _____    ______ ____
ROOT
ATOM      1  C   UNL     1       5.638   4.474  17.946  0.00  0.00    +0.000 C 
ATOM      2  C   UNL     1       4.398   4.871  18.273  0.00  0.00    +0.000 C 
ATOM      3  C   UNL     1       3.779   6.195  17.907  0.00  0.00    +0.000 C 
ATOM      4  O   UNL     1       4.130   6.946  17.017  0.00  0.00    +0.000 OA
ATOM      5  N   UNL     1       2.777   6.380  18.868  0.00  0.00    +0.000 N 
ATOM      6  C   UNL     1       2.597   5.227  19.652  0.00  0.00    +0.000 A 
ATOM      7  C   UNL     1       1.617   4.965  20.597  0.00  0.00    +0.000 A 
ATOM      8  C   UNL     1       1.596   3.697  21.183  0.00  0.00    +0.000 A 
ATOM      9  C   UNL     1       2.549   2.726  20.837  0.00  0.00    +0.000 A 
ATOM     10  C   UNL     1       3.538   3.000  19.882  0.00  0.00    +0.000 A 
ATOM     11  C   UNL     1       3.536   4.248  19.282  0.00  0.00    +0.000 A 
ENDROOT
BRANCH   5  12
ATOM     12  C   UNL     1       2.076   7.579  19.055  0.00  0.00    +0.000 A 
ATOM     13  C   UNL     1       1.858   8.422  17.960  0.00  0.00    +0.000 A 
ATOM     14  C   UNL     1       1.208   9.644  18.130  0.00  0.00    +0.000 A 
ATOM     15  C   UNL     1       0.823  10.057  19.405  0.00  0.00    +0.000 A 
ATOM     16  C   UNL     1       1.080   9.238  20.503  0.00  0.00    +0.000 A 
ATOM     17 CL   UNL     1       0.668   9.786  22.083  0.00  0.00    +0.000 Cl
ATOM     18  C   UNL     1       1.688   7.993  20.337  0.00  0.00    +0.000 A 
ENDBRANCH   5  12
BRANCH   1  19
ATOM     19  N   UNL     1       6.683   5.169  17.334  0.00  0.00    +0.000 N 
BRANCH  19  20
ATOM     20  C   UNL     1       7.465   4.580  16.207  0.00  0.00    +0.000 C 
BRANCH  20  22
ATOM     21  C   UNL     1       5.999   3.905  14.241  0.00  0.00    +0.000 C 
ATOM     22  C   UNL     1       6.963   4.934  14.802  0.00  0.00    +0.000 C 
ENDBRANCH  20  22
ENDBRANCH  19  20
BRANCH  19  23
ATOM     23  C   UNL     1       7.438   6.167  18.129  0.00  0.00    +0.000 C 
BRANCH  23  24
ATOM     24  C   UNL     1       7.551   7.523  17.425  0.00  0.00    +0.000 C 
ATOM     25  C   UNL     1       8.292   8.568  18.248  0.00  0.00    +0.000 C 
ENDBRANCH  23  24
ENDBRANCH  19  23
ENDBRANCH   1  19
TORSDOF 6
ENDMDL
MODEL 5
REMARK VINA RESULT:      -8.0      0.382      2.345
REMARK  Name = 
REMARK  8 active torsions:
REMARK  status: ('A' for Active; 'I' for Inactive)
REMARK    1  A    between atoms: C_1  and  C_2
REMARK    2  A    between atoms: C_2  and  C_3
REMARK    3  A    between atoms: C_3  and  N_4
REMARK    4  A    between atoms: N_4  and  C_5
REMARK    5  A    between atoms: N_4  and  C_23
REMARK    6  A    between atoms: N_9  and  C_10
REMARK    7  A    between atoms: C_23  and  C_24
REMARK    8  A    between atoms: C_24  and  C_25
REMARK                            x       y       z     vdW  Elec       q    Type
REMARK                         _______ _______ _______ _____ _____    ______ ____
ROOT
ATOM      1  C   UNL     1       5.368   3.895  17.138  0.00  0.00    +0.000 C 
ATOM      2  C   UNL     1       4.165   4.388  17.474  0.00  0.00    +0.000 C 
ATOM      3  C   UNL     1       3.766   5.840  17.409  0.00  0.00    +0.000 C 
ATOM      4  O   UNL     1       4.300   6.717  16.757  0.00  0.00    +0.000 OA
ATOM      5  N   UNL     1       2.708   5.943  18.321  0.00  0.00    +0.000 N 
ATOM      6  C   UNL     1       2.300   4.679  18.781  0.00  0.00    +0.000 A 
ATOM      7  C   UNL     1       1.205   4.355  19.568  0.00  0.00    +0.000 A 
ATOM      8  C   UNL     1       0.959   3.003  19.819  0.00  0.00    +0.000 A 
ATOM      9  C   UNL     1       1.804   2.007  19.304  0.00  0.00    +0.000 A 
ATOM     10  C   UNL     1       2.910   2.344  18.512  0.00  0.00    +0.000 A 
ATOM     11  C   UNL     1       3.133   3.684  18.241  0.00  0.00    +0.000 A 
ENDROOT
BRANCH   5  12
ATOM     12  C   UNL     1       2.158   7.157  18.755  0.00  0.00    +0.000 A 
ATOM     13  C   UNL     1       1.879   8.157  17.816  0.00  0.00    +0.000 A 
ATOM     14  C   UNL     1       1.380   9.391  18.229  0.00  0.00    +0.000 A 
ATOM     15  C   UNL     1       1.207   9.654  19.587  0.00  0.00    +0.000 A 
ATOM     16  C   UNL     1       1.527   8.675  20.526  0.00  0.00    +0.000 A 
ATOM     17 CL   UNL     1       1.383   9.033  22.205  0.00  0.00    +0.000 Cl
ATOM     18  C   UNL     1       1.984   7.421  20.120  0.00  0.00    +0.000 A 
ENDBRANCH   5  12
BRANCH   1  19
ATOM     19  N   UNL     1       6.550   4.547  16.785  0.00  0.00    +0.000 N 
BRANCH  19  20
ATOM     20  C   UNL     1       7.292   5.408  17.753  0.00  0.00    +0.000 C 
BRANCH  20  22
ATOM     21  C   UNL     1       8.186   7.708  18.373  0.00  0.00    +0.000 C 
ATOM     22  C   UNL     1       7.483   6.867  17.323  0.00  0.00    +0.000 C 
ENDBRANCH  20  22
ENDBRANCH  19  20
BRANCH  19  23
ATOM     23  C   UNL     1       6.762   4.922  15.367  0.00  0.00    +0.000 C 
BRANCH  23  24
ATOM     24  C   UNL     1       5.983   4.031  14.394  0.00  0.00    +0.000 C 
ATOM     25  C   UNL     1       6.605   3.968  13.007  0.00  0.00    +0.000 C 
ENDBRANCH  23  24
ENDBRANCH  19  23
ENDBRANCH   1  19
TORSDOF 6
ENDMDL
MODEL 6
REMARK VINA RESULT:      -7.7      1.239      2.784
REMARK  Name = 
REMARK  8 active torsions:
REMARK  status: ('A' for Active; 'I' for Inactive)
REMARK    1  A    between atoms: C_1  and  C_2
REMARK    2  A    between atoms: C_2  and  C_3
REMARK    3  A    between atoms: C_3  and  N_4
REMARK    4  A    between atoms: N_4  and  C_5
REMARK    5  A    between atoms: N_4  and  C_23
REMARK    6  A    between atoms: N_9  and  C_10
REMARK    7  A    between atoms: C_23  and  C_24
REMARK    8  A    between atoms: C_24  and  C_25
REMARK                            x       y       z     vdW  Elec       q    Type
REMARK                         _______ _______ _______ _____ _____    ______ ____
ROOT
ATOM      1  C   UNL     1       4.986   4.405  17.431  0.00  0.00    +0.000 C 
ATOM      2  C   UNL     1       3.833   4.855  17.953  0.00  0.00    +0.000 C 
ATOM      3  C   UNL     1       3.416   6.300  18.033  0.00  0.00    +0.000 C 
ATOM      4  O   UNL     1       3.850   7.225  17.374  0.00  0.00    +0.000 OA
ATOM      5  N   UNL     1       2.486   6.328  19.080  0.00  0.00    +0.000 N 
ATOM      6  C   UNL     1       2.153   5.030  19.508  0.00  0.00    +0.000 A 
ATOM      7  C   UNL     1       1.175   4.638  20.409  0.00  0.00    +0.000 A 
ATOM      8  C   UNL     1       0.978   3.269  20.603  0.00  0.00    +0.000 A 
ATOM      9  C   UNL     1       1.756   2.322  19.919  0.00  0.00    +0.000 A 
ATOM     10  C   UNL     1       2.745   2.728  19.012  0.00  0.00    +0.000 A 
ATOM     11  C   UNL     1       2.918   4.086  18.801  0.00  0.00    +0.000 A 
ENDROOT
BRANCH   5  12
ATOM     12  C   UNL     1       1.985   7.502  19.658  0.00  0.00    +0.000 A 
ATOM     13  C   UNL     1       1.799   7.558  21.044  0.00  0.00    +0.000 A 
ATOM     14  C   UNL     1       1.255   8.697  21.636  0.00  0.00    +0.000 A 
ATOM     15  C   UNL     1       0.841   9.766  20.842  0.00  0.00    +0.000 A 
ATOM     16  C   UNL     1       0.985   9.693  19.457  0.00  0.00    +0.000 A 
ATOM     17 CL   UNL     1       0.404  10.984  18.477  0.00  0.00    +0.000 Cl
ATOM     18  C   UNL     1       1.570   8.576  18.859  0.00  0.00    +0.000 A 
ENDBRANCH   5  12
BRANCH   1  19
ATOM     19  N   UNL     1       6.106   5.098  16.969  0.00  0.00    +0.000 N 
BRANCH  19  20
ATOM     20  C   UNL     1       6.951   5.923  17.882  0.00  0.00    +0.000 C 
BRANCH  20  22
ATOM     21  C   UNL     1       8.233   8.081  18.301  0.00  0.00    +0.000 C 
ATOM     22  C   UNL     1       7.389   7.283  17.323  0.00  0.00    +0.000 C 
ENDBRANCH  20  22
ENDBRANCH  19  20
BRANCH  19  23
ATOM     23  C   UNL     1       6.132   5.551  15.558  0.00  0.00    +0.000 C 
BRANCH  23  24
ATOM     24  C   UNL     1       6.884   4.584  14.638  0.00  0.00    +0.000 C 
ATOM     25  C   UNL     1       5.977   3.868  13.648  0.00  0.00    +0.000 C 
ENDBRANCH  23  24
ENDBRANCH  19  23
ENDBRANCH   1  19
TORSDOF 6
ENDMDL
MODEL 7
REMARK VINA RESULT:      -7.5      1.354      1.801
REMARK  Name = 
REMARK  8 active torsions:
REMARK  status: ('A' for Active; 'I' for Inactive)
REMARK    1  A    between atoms: C_1  and  C_2
REMARK    2  A    between atoms: C_2  and  C_3
REMARK    3  A    between atoms: C_3  and  N_4
REMARK    4  A    between atoms: N_4  and  C_5
REMARK    5  A    between atoms: N_4  and  C_23
REMARK    6  A    between atoms: N_9  and  C_10
REMARK    7  A    between atoms: C_23  and  C_24
REMARK    8  A    between atoms: C_24  and  C_25
REMARK                            x       y       z     vdW  Elec       q    Type
REMARK                         _______ _______ _______ _____ _____    ______ ____
ROOT
ATOM      1  C   UNL     1       4.647   4.812  17.042  0.00  0.00    +0.000 C 
ATOM      2  C   UNL     1       3.576   5.201  17.753  0.00  0.00    +0.000 C 
ATOM      3  C   UNL     1       3.087   6.619  17.891  0.00  0.00    +0.000 C 
ATOM      4  O   UNL     1       3.340   7.556  17.158  0.00  0.00    +0.000 OA
ATOM      5  N   UNL     1       2.353   6.611  19.085  0.00  0.00    +0.000 N 
ATOM      6  C   UNL     1       2.184   5.305  19.576  0.00  0.00    +0.000 A 
ATOM      7  C   UNL     1       1.404   4.872  20.637  0.00  0.00    +0.000 A 
ATOM      8  C   UNL     1       1.331   3.497  20.876  0.00  0.00    +0.000 A 
ATOM      9  C   UNL     1       2.038   2.586  20.075  0.00  0.00    +0.000 A 
ATOM     10  C   UNL     1       2.826   3.034  19.006  0.00  0.00    +0.000 A 
ATOM     11  C   UNL     1       2.873   4.395  18.755  0.00  0.00    +0.000 A 
ENDROOT
BRANCH   5  12
ATOM     12  C   UNL     1       1.887   7.764  19.730  0.00  0.00    +0.000 A 
ATOM     13  C   UNL     1       1.783   7.774  21.125  0.00  0.00    +0.000 A 
ATOM     14  C   UNL     1       1.274   8.890  21.786  0.00  0.00    +0.000 A 
ATOM     15  C   UNL     1       0.813   9.984  21.054  0.00  0.00    +0.000 A 
ATOM     16  C   UNL     1       0.874   9.957  19.662  0.00  0.00    +0.000 A 
ATOM     17 CL   UNL     1       0.234  11.279  18.761  0.00  0.00    +0.000 Cl
ATOM     18  C   UNL     1       1.424   8.863  18.993  0.00  0.00    +0.000 A 
ENDBRANCH   5  12
BRANCH   1  19
ATOM     19  N   UNL     1       5.622   5.563  16.385  0.00  0.00    +0.000 N 
BRANCH  19  20
ATOM     20  C   UNL     1       5.923   5.366  14.936  0.00  0.00    +0.000 C 
BRANCH  20  22
ATOM     21  C   UNL     1       6.296   3.762  12.997  0.00  0.00    +0.000 C 
ATOM     22  C   UNL     1       6.127   3.911  14.498  0.00  0.00    +0.000 C 
ENDBRANCH  20  22
ENDBRANCH  19  20
BRANCH  19  23
ATOM     23  C   UNL     1       6.768   6.085  17.167  0.00  0.00    +0.000 C 
BRANCH  23  24
ATOM     24  C   UNL     1       7.374   5.036  18.106  0.00  0.00    +0.000 C 
ATOM     25  C   UNL     1       7.827   5.612  19.439  0.00  0.00    +0.000 C 
ENDBRANCH  23  24
ENDBRANCH  19  23
ENDBRANCH   1  19
TORSDOF 6
ENDMDL
MODEL 8
REMARK VINA RESULT:      -7.5      1.148      2.862
REMARK  Name = 
REMARK  8 active torsions:
REMARK  status: ('A' for Active; 'I' for Inactive)
REMARK    1  A    between atoms: C_1  and  C_2
REMARK    2  A    between atoms: C_2  and  C_3
REMARK    3  A    between atoms: C_3  and  N_4
REMARK    4  A    between atoms: N_4  and  C_5
REMARK    5  A    between atoms: N_4  and  C_23
REMARK    6  A    between atoms: N_9  and  C_10
REMARK    7  A    between atoms: C_23  and  C_24
REMARK    8  A    between atoms: C_24  and  C_25
REMARK                            x       y       z     vdW  Elec       q    Type
REMARK                         _______ _______ _______ _____ _____    ______ ____
ROOT
ATOM      1  C   UNL     1       5.282   3.849  16.524  0.00  0.00    +0.000 C 
ATOM      2  C   UNL     1       4.128   4.327  17.019  0.00  0.00    +0.000 C 
ATOM      3  C   UNL     1       3.806   5.783  17.233  0.00  0.00    +0.000 C 
ATOM      4  O   UNL     1       4.348   6.738  16.709  0.00  0.00    +0.000 OA
ATOM      5  N   UNL     1       2.809   5.770  18.217  0.00  0.00    +0.000 N 
ATOM      6  C   UNL     1       2.360   4.463  18.477  0.00  0.00    +0.000 A 
ATOM      7  C   UNL     1       1.296   4.052  19.266  0.00  0.00    +0.000 A 
ATOM      8  C   UNL     1       0.992   2.689  19.294  0.00  0.00    +0.000 A 
ATOM      9  C   UNL     1       1.750   1.765  18.559  0.00  0.00    +0.000 A 
ATOM     10  C   UNL     1       2.826   2.188  17.766  0.00  0.00    +0.000 A 
ATOM     11  C   UNL     1       3.106   3.544  17.718  0.00  0.00    +0.000 A 
ENDROOT
BRANCH   5  12
ATOM     12  C   UNL     1       2.351   6.911  18.890  0.00  0.00    +0.000 A 
ATOM     13  C   UNL     1       2.152   6.856  20.273  0.00  0.00    +0.000 A 
ATOM     14  C   UNL     1       1.648   7.962  20.957  0.00  0.00    +0.000 A 
ATOM     15  C   UNL     1       1.288   9.111  20.254  0.00  0.00    +0.000 A 
ATOM     16  C   UNL     1       1.444   9.150  18.869  0.00  0.00    +0.000 A 
ATOM     17 CL   UNL     1       0.928  10.544  17.999  0.00  0.00    +0.000 Cl
ATOM     18  C   UNL     1       1.990   8.065  18.183  0.00  0.00    +0.000 A 
ENDBRANCH   5  12
BRANCH   1  19
ATOM     19  N   UNL     1       6.476   4.501  16.212  0.00  0.00    +0.000 N 
BRANCH  19  20
ATOM     20  C   UNL     1       7.117   5.462  17.158  0.00  0.00    +0.000 C 
BRANCH  20  22
ATOM     21  C   UNL     1       8.056   5.833  19.493  0.00  0.00    +0.000 C 
ATOM     22  C   UNL     1       7.068   5.061  18.637  0.00  0.00    +0.000 C 
ENDBRANCH  20  22
ENDBRANCH  19  20
BRANCH  19  23
ATOM     23  C   UNL     1       6.797   4.760  14.789  0.00  0.00    +0.000 C 
BRANCH  23  24
ATOM     24  C   UNL     1       5.879   4.001  13.825  0.00  0.00    +0.000 C 
ATOM     25  C   UNL     1       6.532   3.697  12.485  0.00  0.00    +0.000 C 
ENDBRANCH  23  24
ENDBRANCH  19  23
ENDBRANCH   1  19
TORSDOF 6
ENDMDL
MODEL 9
REMARK VINA RESULT:      -7.3      1.159      1.279
REMARK  Name = 
REMARK  8 active torsions:
REMARK  status: ('A' for Active; 'I' for Inactive)
REMARK    1  A    between atoms: C_1  and  C_2
REMARK    2  A    between atoms: C_2  and  C_3
REMARK    3  A    between atoms: C_3  and  N_4
REMARK    4  A    between atoms: N_4  and  C_5
REMARK    5  A    between atoms: N_4  and  C_23
REMARK    6  A    between atoms: N_9  and  C_10
REMARK    7  A    between atoms: C_23  and  C_24
REMARK    8  A    between atoms: C_24  and  C_25
REMARK                            x       y       z     vdW  Elec       q    Type
REMARK                         _______ _______ _______ _____ _____    ______ ____
ROOT
ATOM      1  C   UNL     1       5.031   4.807  17.312  0.00  0.00    +0.000 C 
ATOM      2  C   UNL     1       3.908   5.168  17.955  0.00  0.00    +0.000 C 
ATOM      3  C   UNL     1       3.243   6.516  17.864  0.00  0.00    +0.000 C 
ATOM      4  O   UNL     1       3.388   7.346  16.987  0.00  0.00    +0.000 OA
ATOM      5  N   UNL     1       2.498   6.609  19.047  0.00  0.00    +0.000 N 
ATOM      6  C   UNL     1       2.487   5.388  19.745  0.00  0.00    +0.000 A 
ATOM      7  C   UNL     1       1.752   5.038  20.866  0.00  0.00    +0.000 A 
ATOM      8  C   UNL     1       1.848   3.722  21.325  0.00  0.00    +0.000 A 
ATOM      9  C   UNL     1       2.676   2.791  20.680  0.00  0.00    +0.000 A 
ATOM     10  C   UNL     1       3.419   3.155  19.548  0.00  0.00    +0.000 A 
ATOM     11  C   UNL     1       3.297   4.452  19.079  0.00  0.00    +0.000 A 
ENDROOT
BRANCH   5  12
ATOM     12  C   UNL     1       1.880   7.783  19.499  0.00  0.00    +0.000 A 
ATOM     13  C   UNL     1       1.716   8.854  18.615  0.00  0.00    +0.000 A 
ATOM     14  C   UNL     1       1.151  10.050  19.054  0.00  0.00    +0.000 A 
ATOM     15  C   UNL     1       0.798  10.203  20.395  0.00  0.00    +0.000 A 
ATOM     16  C   UNL     1       1.003   9.152  21.286  0.00  0.00    +0.000 A 
ATOM     17 CL   UNL     1       0.634   9.372  22.954  0.00  0.00    +0.000 Cl
ATOM     18  C   UNL     1       1.525   7.935  20.846  0.00  0.00    +0.000 A 
ENDBRANCH   5  12
BRANCH   1  19
ATOM     19  N   UNL     1       5.914   5.560  16.536  0.00  0.00    +0.000 N 
BRANCH  19  20
ATOM     20  C   UNL     1       6.034   5.358  15.062  0.00  0.00    +0.000 C 
BRANCH  20  22
ATOM     21  C   UNL     1       5.919   3.698  13.137  0.00  0.00    +0.000 C 
ATOM     22  C   UNL     1       6.219   3.904  14.610  0.00  0.00    +0.000 C 
ENDBRANCH  20  22
ENDBRANCH  19  20
BRANCH  19  23
ATOM     23  C   UNL     1       7.145   6.091  17.168  0.00  0.00    +0.000 C 
BRANCH  23  24
ATOM     24  C   UNL     1       7.745   5.130  18.200  0.00  0.00    +0.000 C 
ATOM     25  C   UNL     1       7.821   5.720  19.600  0.00  0.00    +0.000 C 
ENDBRANCH  23  24
ENDBRANCH  19  23
ENDBRANCH   1  19
TORSDOF 6
ENDMDL
