MODEL 1
REMARK VINA RESULT:      -8.2      0.000      0.000
REMARK  Name = 
REMARK  2 active torsions:
REMARK  status: ('A' for Active; 'I' for Inactive)
REMARK    1  A    between atoms: C_1  and  N_2
REMARK    2  A    between atoms: C_3  and  C_5
REMARK                            x       y       z     vdW  Elec       q    Type
REMARK                         _______ _______ _______ _____ _____    ______ ____
ROOT
ATOM      1  C   UNL     1       6.549   5.545  16.767  0.00  0.00    +0.000 A 
ATOM      2  C   UNL     1       7.077   5.074  15.554  0.00  0.00    +0.000 A 
ATOM      3  C   UNL     1       6.429   4.059  14.851  0.00  0.00    +0.000 A 
ATOM      4  C   UNL     1       5.251   3.509  15.357  0.00  0.00    +0.000 A 
ATOM      5  C   UNL     1       4.704   3.964  16.565  0.00  0.00    +0.000 A 
ATOM      6  C   UNL     1       5.366   4.968  17.264  0.00  0.00    +0.000 A 
ATOM      7  S   UNL     1       4.628   5.562  18.728  0.00  0.00    +0.000 S 
ATOM      8  O   UNL     1       4.265   6.949  18.494  0.00  0.00    +0.000 OA
ATOM      9  O   UNL     1       5.406   5.109  19.863  0.00  0.00    +0.000 OA
ATOM     10  C   UNL     1       3.119   4.705  18.905  0.00  0.00    +0.000 A 
ATOM     11  C   UNL     1       2.322   4.986  20.022  0.00  0.00    +0.000 A 
ATOM     12  C   UNL     1       1.191   4.218  20.263  0.00  0.00    +0.000 A 
ATOM     13  C   UNL     1       0.864   3.186  19.386  0.00  0.00    +0.000 A 
ATOM     14  C   UNL     1       1.666   2.930  18.264  0.00  0.00    +0.000 A 
ATOM     15  C   UNL     1       2.813   3.692  18.017  0.00  0.00    +0.000 A 
ATOM     16  O   UNL     1       3.539   3.329  16.919  0.00  0.00    +0.000 OA
ENDROOT
BRANCH   1  19
ATOM     17  C   UNL     1       7.890   8.914  17.847  0.00  0.00    +0.000 C 
ATOM     18  N   UNL     1       7.225   7.880  17.089  0.00  0.00    +0.000 N 
ATOM     19  C   UNL     1       7.315   6.573  17.525  0.00  0.00    +0.000 C 
ATOM     20  O   UNL     1       8.012   6.254  18.476  0.00  0.00    +0.000 OA
ATOM     21  H   UNL     1       6.511   8.149  16.427  0.00  0.00    +0.000 HD
ENDBRANCH   1  19
TORSDOF 1
ENDMDL
MODEL 2
REMARK VINA RESULT:      -7.4      2.240      3.496
REMARK  Name = 
REMARK  2 active torsions:
REMARK  status: ('A' for Active; 'I' for Inactive)
REMARK    1  A    between atoms: C_1  and  N_2
REMARK    2  A    between atoms: C_3  and  C_5
REMARK                            x       y       z     vdW  Elec       q    Type
REMARK                         _______ _______ _______ _____ _____    ______ ____
ROOT
ATOM      1  C   UNL     1       4.633   6.513  17.145  0.00  0.00    +0.000 A 
ATOM      2  C   UNL     1       4.151   7.795  16.834  0.00  0.00    +0.000 A 
ATOM      3  C   UNL     1       3.028   8.301  17.487  0.00  0.00    +0.000 A 
ATOM      4  C   UNL     1       2.380   7.529  18.452  0.00  0.00    +0.000 A 
ATOM      5  C   UNL     1       2.844   6.247  18.779  0.00  0.00    +0.000 A 
ATOM      6  C   UNL     1       3.958   5.747  18.112  0.00  0.00    +0.000 A 
ATOM      7  S   UNL     1       4.553   4.178  18.587  0.00  0.00    +0.000 S 
ATOM      8  O   UNL     1       5.873   4.376  19.160  0.00  0.00    +0.000 OA
ATOM      9  O   UNL     1       4.262   3.227  17.533  0.00  0.00    +0.000 OA
ATOM     10  C   UNL     1       3.543   3.643  19.904  0.00  0.00    +0.000 A 
ATOM     11  C   UNL     1       3.801   2.388  20.472  0.00  0.00    +0.000 A 
ATOM     12  C   UNL     1       2.925   1.876  21.420  0.00  0.00    +0.000 A 
ATOM     13  C   UNL     1       1.810   2.623  21.797  0.00  0.00    +0.000 A 
ATOM     14  C   UNL     1       1.579   3.884  21.229  0.00  0.00    +0.000 A 
ATOM     15  C   UNL     1       2.449   4.405  20.265  0.00  0.00    +0.000 A 
ATOM     16  O   UNL     1       2.104   5.623  19.753  0.00  0.00    +0.000 OA
ENDROOT
BRANCH   1  19
ATOM     17  C   UNL     1       6.596   4.571  14.557  0.00  0.00    +0.000 C 
ATOM     18  N   UNL     1       5.512   5.051  15.382  0.00  0.00    +0.000 N 
ATOM     19  C   UNL     1       5.787   5.978  16.368  0.00  0.00    +0.000 C 
ATOM     20  O   UNL     1       6.927   6.334  16.622  0.00  0.00    +0.000 OA
ATOM     21  H   UNL     1       4.563   4.909  15.065  0.00  0.00    +0.000 HD
ENDBRANCH   1  19
TORSDOF 1
ENDMDL
MODEL 3
REMARK VINA RESULT:      -7.3      3.015      4.381
REMARK  Name = 
REMARK  2 active torsions:
REMARK  status: ('A' for Active; 'I' for Inactive)
REMARK    1  A    between atoms: C_1  and  N_2
REMARK    2  A    between atoms: C_3  and  C_5
REMARK                            x       y       z     vdW  Elec       q    Type
REMARK                         _______ _______ _______ _____ _____    ______ ____
ROOT
ATOM      1  C   UNL     1       4.609   4.206  17.464  0.00  0.00    +0.000 A 
ATOM      2  C   UNL     1       5.505   4.105  16.387  0.00  0.00    +0.000 A 
ATOM      3  C   UNL     1       5.736   5.203  15.560  0.00  0.00    +0.000 A 
ATOM      4  C   UNL     1       5.073   6.406  15.803  0.00  0.00    +0.000 A 
ATOM      5  C   UNL     1       4.175   6.531  16.872  0.00  0.00    +0.000 A 
ATOM      6  C   UNL     1       3.943   5.425  17.684  0.00  0.00    +0.000 A 
ATOM      7  S   UNL     1       2.873   5.628  19.046  0.00  0.00    +0.000 S 
ATOM      8  O   UNL     1       3.670   5.446  20.247  0.00  0.00    +0.000 OA
ATOM      9  O   UNL     1       1.636   4.921  18.781  0.00  0.00    +0.000 OA
ATOM     10  C   UNL     1       2.389   7.303  19.051  0.00  0.00    +0.000 A 
ATOM     11  C   UNL     1       1.507   7.737  20.050  0.00  0.00    +0.000 A 
ATOM     12  C   UNL     1       0.993   9.025  19.991  0.00  0.00    +0.000 A 
ATOM     13  C   UNL     1       1.369   9.867  18.946  0.00  0.00    +0.000 A 
ATOM     14  C   UNL     1       2.265   9.418  17.965  0.00  0.00    +0.000 A 
ATOM     15  C   UNL     1       2.782   8.119  18.009  0.00  0.00    +0.000 A 
ATOM     16  O   UNL     1       3.615   7.779  16.981  0.00  0.00    +0.000 OA
ENDROOT
BRANCH   1  19
ATOM     17  C   UNL     1       4.707   1.721  20.316  0.00  0.00    +0.000 C 
ATOM     18  N   UNL     1       5.010   2.850  19.468  0.00  0.00    +0.000 N 
ATOM     19  C   UNL     1       4.330   2.987  18.274  0.00  0.00    +0.000 C 
ATOM     20  O   UNL     1       3.549   2.138  17.873  0.00  0.00    +0.000 OA
ATOM     21  H   UNL     1       5.505   3.636  19.867  0.00  0.00    +0.000 HD
ENDBRANCH   1  19
TORSDOF 1
ENDMDL
MODEL 4
REMARK VINA RESULT:      -7.1      2.568      5.901
REMARK  Name = 
REMARK  2 active torsions:
REMARK  status: ('A' for Active; 'I' for Inactive)
REMARK    1  A    between atoms: C_1  and  N_2
REMARK    2  A    between atoms: C_3  and  C_5
REMARK                            x       y       z     vdW  Elec       q    Type
REMARK                         _______ _______ _______ _____ _____    ______ ____
ROOT
ATOM      1  C   UNL     1       1.977   5.405  19.728  0.00  0.00    +0.000 A 
ATOM      2  C   UNL     1       1.471   6.615  20.228  0.00  0.00    +0.000 A 
ATOM      3  C   UNL     1       1.904   7.831  19.701  0.00  0.00    +0.000 A 
ATOM      4  C   UNL     1       2.846   7.844  18.672  0.00  0.00    +0.000 A 
ATOM      5  C   UNL     1       3.365   6.649  18.155  0.00  0.00    +0.000 A 
ATOM      6  C   UNL     1       2.935   5.442  18.697  0.00  0.00    +0.000 A 
ATOM      7  S   UNL     1       3.546   3.970  17.990  0.00  0.00    +0.000 S 
ATOM      8  O   UNL     1       2.416   3.282  17.389  0.00  0.00    +0.000 OA
ATOM      9  O   UNL     1       4.469   3.350  18.920  0.00  0.00    +0.000 OA
ATOM     10  C   UNL     1       4.568   4.446  16.660  0.00  0.00    +0.000 A 
ATOM     11  C   UNL     1       5.204   3.441  15.919  0.00  0.00    +0.000 A 
ATOM     12  C   UNL     1       6.135   3.795  14.951  0.00  0.00    +0.000 A 
ATOM     13  C   UNL     1       6.414   5.143  14.728  0.00  0.00    +0.000 A 
ATOM     14  C   UNL     1       5.755   6.133  15.471  0.00  0.00    +0.000 A 
ATOM     15  C   UNL     1       4.823   5.787  16.455  0.00  0.00    +0.000 A 
ATOM     16  O   UNL     1       4.272   6.832  17.141  0.00  0.00    +0.000 OA
ENDROOT
BRANCH   1  19
ATOM     17  C   UNL     1       1.959   2.409  22.039  0.00  0.00    +0.000 C 
ATOM     18  N   UNL     1       2.381   3.599  21.337  0.00  0.00    +0.000 N 
ATOM     19  C   UNL     1       1.549   4.133  20.373  0.00  0.00    +0.000 C 
ATOM     20  O   UNL     1       0.514   3.580  20.032  0.00  0.00    +0.000 OA
ATOM     21  H   UNL     1       3.127   4.155  21.731  0.00  0.00    +0.000 HD
ENDBRANCH   1  19
TORSDOF 1
ENDMDL
MODEL 5
REMARK VINA RESULT:      -7.0      1.894      5.183
REMARK  Name = 
REMARK  2 active torsions:
REMARK  status: ('A' for Active; 'I' for Inactive)
REMARK    1  A    between atoms: C_1  and  N_2
REMARK    2  A    between atoms: C_3  and  C_5
REMARK                            x       y       z     vdW  Elec       q    Type
REMARK                         _______ _______ _______ _____ _____    ______ ____
ROOT
ATOM      1  C   UNL     1       2.113   4.371  19.566  0.00  0.00    +0.000 A 
ATOM      2  C   UNL     1       1.161   3.340  19.602  0.00  0.00    +0.000 A 
ATOM      3  C   UNL     1       1.190   2.322  18.650  0.00  0.00    +0.000 A 
ATOM      4  C   UNL     1       2.169   2.330  17.657  0.00  0.00    +0.000 A 
ATOM      5  C   UNL     1       3.131   3.348  17.601  0.00  0.00    +0.000 A 
ATOM      6  C   UNL     1       3.085   4.365  18.549  0.00  0.00    +0.000 A 
ATOM      7  S   UNL     1       4.334   5.581  18.497  0.00  0.00    +0.000 S 
ATOM      8  O   UNL     1       5.110   5.451  19.719  0.00  0.00    +0.000 OA
ATOM      9  O   UNL     1       3.757   6.827  18.033  0.00  0.00    +0.000 OA
ATOM     10  C   UNL     1       5.414   5.128  17.205  0.00  0.00    +0.000 A 
ATOM     11  C   UNL     1       6.513   5.955  16.936  0.00  0.00    +0.000 A 
ATOM     12  C   UNL     1       7.303   5.698  15.824  0.00  0.00    +0.000 A 
ATOM     13  C   UNL     1       6.994   4.619  14.998  0.00  0.00    +0.000 A 
ATOM     14  C   UNL     1       5.898   3.794  15.293  0.00  0.00    +0.000 A 
ATOM     15  C   UNL     1       5.090   4.049  16.406  0.00  0.00    +0.000 A 
ATOM     16  O   UNL     1       4.030   3.205  16.573  0.00  0.00    +0.000 OA
ENDROOT
BRANCH   1  19
ATOM     17  C   UNL     1       1.424   7.800  21.010  0.00  0.00    +0.000 C 
ATOM     18  N   UNL     1       1.622   6.720  20.072  0.00  0.00    +0.000 N 
ATOM     19  C   UNL     1       1.998   5.482  20.553  0.00  0.00    +0.000 C 
ATOM     20  O   UNL     1       2.257   5.296  21.732  0.00  0.00    +0.000 OA
ATOM     21  H   UNL     1       1.238   6.811  19.141  0.00  0.00    +0.000 HD
ENDBRANCH   1  19
TORSDOF 1
ENDMDL
MODEL 6
REMARK VINA RESULT:      -7.0      1.994      3.443
REMARK  Name = 
REMARK  2 active torsions:
REMARK  status: ('A' for Active; 'I' for Inactive)
REMARK    1  A    between atoms: C_1  and  N_2
REMARK    2  A    between atoms: C_3  and  C_5
REMARK                            x       y       z     vdW  Elec       q    Type
REMARK                         _______ _______ _______ _____ _____    ______ ____
ROOT
ATOM      1  C   UNL     1       6.242   5.163  16.948  0.00  0.00    +0.000 A 
ATOM      2  C   UNL     1       7.472   5.661  17.405  0.00  0.00    +0.000 A 
ATOM      3  C   UNL     1       7.709   5.806  18.772  0.00  0.00    +0.000 A 
ATOM      4  C   UNL     1       6.718   5.455  19.688  0.00  0.00    +0.000 A 
ATOM      5  C   UNL     1       5.482   4.954  19.255  0.00  0.00    +0.000 A 
ATOM      6  C   UNL     1       5.252   4.825  17.889  0.00  0.00    +0.000 A 
ATOM      7  S   UNL     1       3.733   4.136  17.382  0.00  0.00    +0.000 S 
ATOM      8  O   UNL     1       4.032   2.875  16.726  0.00  0.00    +0.000 OA
ATOM      9  O   UNL     1       2.916   5.180  16.796  0.00  0.00    +0.000 OA
ATOM     10  C   UNL     1       2.869   3.715  18.837  0.00  0.00    +0.000 A 
ATOM     11  C   UNL     1       1.594   3.147  18.713  0.00  0.00    +0.000 A 
ATOM     12  C   UNL     1       0.827   2.938  19.851  0.00  0.00    +0.000 A 
ATOM     13  C   UNL     1       1.341   3.290  21.098  0.00  0.00    +0.000 A 
ATOM     14  C   UNL     1       2.626   3.844  21.203  0.00  0.00    +0.000 A 
ATOM     15  C   UNL     1       3.403   4.067  20.061  0.00  0.00    +0.000 A 
ATOM     16  O   UNL     1       4.620   4.646  20.279  0.00  0.00    +0.000 OA
ENDROOT
BRANCH   1  19
ATOM     17  C   UNL     1       6.038   3.800  13.424  0.00  0.00    +0.000 C 
ATOM     18  N   UNL     1       6.332   3.925  14.833  0.00  0.00    +0.000 N 
ATOM     19  C   UNL     1       6.001   5.099  15.479  0.00  0.00    +0.000 C 
ATOM     20  O   UNL     1       5.553   6.065  14.880  0.00  0.00    +0.000 OA
ATOM     21  H   UNL     1       6.524   3.087  15.364  0.00  0.00    +0.000 HD
ENDBRANCH   1  19
TORSDOF 1
ENDMDL
MODEL 7
REMARK VINA RESULT:      -6.9      6.180      8.437
REMARK  Name = 
REMARK  2 active torsions:
REMARK  status: ('A' for Active; 'I' for Inactive)
REMARK    1  A    between atoms: C_1  and  N_2
REMARK    2  A    between atoms: C_3  and  C_5
REMARK                            x       y       z     vdW  Elec       q    Type
REMARK                         _______ _______ _______ _____ _____    ______ ____
ROOT
ATOM      1  C   UNL     1      -0.697  11.486  20.991  0.00  0.00    +0.000 A 
ATOM      2  C   UNL     1      -1.217  11.544  22.294  0.00  0.00    +0.000 A 
ATOM      3  C   UNL     1      -0.989  10.500  23.189  0.00  0.00    +0.000 A 
ATOM      4  C   UNL     1      -0.243   9.393  22.787  0.00  0.00    +0.000 A 
ATOM      5  C   UNL     1       0.288   9.313  21.492  0.00  0.00    +0.000 A 
ATOM      6  C   UNL     1       0.044  10.355  20.603  0.00  0.00    +0.000 A 
ATOM      7  S   UNL     1       0.772  10.261  19.021  0.00  0.00    +0.000 S 
ATOM      8  O   UNL     1       1.727  11.351  18.924  0.00  0.00    +0.000 OA
ATOM      9  O   UNL     1      -0.264  10.002  18.042  0.00  0.00    +0.000 OA
ATOM     10  C   UNL     1       1.723   8.799  19.000  0.00  0.00    +0.000 A 
ATOM     11  C   UNL     1       2.413   8.472  17.825  0.00  0.00    +0.000 A 
ATOM     12  C   UNL     1       3.057   7.246  17.731  0.00  0.00    +0.000 A 
ATOM     13  C   UNL     1       3.013   6.365  18.810  0.00  0.00    +0.000 A 
ATOM     14  C   UNL     1       2.330   6.717  19.984  0.00  0.00    +0.000 A 
ATOM     15  C   UNL     1       1.669   7.946  20.085  0.00  0.00    +0.000 A 
ATOM     16  O   UNL     1       1.006   8.166  21.258  0.00  0.00    +0.000 OA
ENDROOT
BRANCH   1  19
ATOM     17  C   UNL     1      -0.388  14.673  18.975  0.00  0.00    +0.000 C 
ATOM     18  N   UNL     1      -0.136  13.631  19.942  0.00  0.00    +0.000 N 
ATOM     19  C   UNL     1      -1.031  12.584  20.041  0.00  0.00    +0.000 C 
ATOM     20  O   UNL     1      -2.072  12.561  19.403  0.00  0.00    +0.000 OA
ATOM     21  H   UNL     1       0.793  13.546  20.332  0.00  0.00    +0.000 HD
ENDBRANCH   1  19
TORSDOF 1
ENDMDL
MODEL 8
REMARK VINA RESULT:      -6.8      1.352      1.490
REMARK  Name = 
REMARK  2 active torsions:
REMARK  status: ('A' for Active; 'I' for Inactive)
REMARK    1  A    between atoms: C_1  and  N_2
REMARK    2  A    between atoms: C_3  and  C_5
REMARK                            x       y       z     vdW  Elec       q    Type
REMARK                         _______ _______ _______ _____ _____    ______ ____
ROOT
ATOM      1  C   UNL     1       6.503   5.270  17.220  0.00  0.00    +0.000 A 
ATOM      2  C   UNL     1       6.940   5.286  15.886  0.00  0.00    +0.000 A 
ATOM      3  C   UNL     1       6.171   4.690  14.887  0.00  0.00    +0.000 A 
ATOM      4  C   UNL     1       4.963   4.074  15.217  0.00  0.00    +0.000 A 
ATOM      5  C   UNL     1       4.507   4.046  16.541  0.00  0.00    +0.000 A 
ATOM      6  C   UNL     1       5.288   4.633  17.532  0.00  0.00    +0.000 A 
ATOM      7  S   UNL     1       4.664   4.643  19.160  0.00  0.00    +0.000 S 
ATOM      8  O   UNL     1       4.431   6.031  19.521  0.00  0.00    +0.000 OA
ATOM      9  O   UNL     1       5.434   3.716  19.964  0.00  0.00    +0.000 OA
ATOM     10  C   UNL     1       3.086   3.904  19.091  0.00  0.00    +0.000 A 
ATOM     11  C   UNL     1       2.360   3.773  20.282  0.00  0.00    +0.000 A 
ATOM     12  C   UNL     1       1.169   3.060  20.279  0.00  0.00    +0.000 A 
ATOM     13  C   UNL     1       0.712   2.494  19.090  0.00  0.00    +0.000 A 
ATOM     14  C   UNL     1       1.445   2.650  17.905  0.00  0.00    +0.000 A 
ATOM     15  C   UNL     1       2.652   3.358  17.899  0.00  0.00    +0.000 A 
ATOM     16  O   UNL     1       3.299   3.412  16.698  0.00  0.00    +0.000 OA
ENDROOT
BRANCH   1  19
ATOM     17  C   UNL     1       8.631   5.541  20.338  0.00  0.00    +0.000 C 
ATOM     18  N   UNL     1       7.709   5.043  19.344  0.00  0.00    +0.000 N 
ATOM     19  C   UNL     1       7.392   5.847  18.268  0.00  0.00    +0.000 C 
ATOM     20  O   UNL     1       7.795   6.997  18.178  0.00  0.00    +0.000 OA
ATOM     21  H   UNL     1       7.522   4.050  19.312  0.00  0.00    +0.000 HD
ENDBRANCH   1  19
TORSDOF 1
ENDMDL
MODEL 9
REMARK VINA RESULT:      -6.6      2.323      5.672
REMARK  Name = 
REMARK  2 active torsions:
REMARK  status: ('A' for Active; 'I' for Inactive)
REMARK    1  A    between atoms: C_1  and  N_2
REMARK    2  A    between atoms: C_3  and  C_5
REMARK                            x       y       z     vdW  Elec       q    Type
REMARK                         _______ _______ _______ _____ _____    ______ ____
ROOT
ATOM      1  C   UNL     1       5.743   4.725  18.592  0.00  0.00    +0.000 A 
ATOM      2  C   UNL     1       6.459   5.532  19.490  0.00  0.00    +0.000 A 
ATOM      3  C   UNL     1       7.527   6.308  19.041  0.00  0.00    +0.000 A 
ATOM      4  C   UNL     1       7.886   6.280  17.693  0.00  0.00    +0.000 A 
ATOM      5  C   UNL     1       7.185   5.483  16.778  0.00  0.00    +0.000 A 
ATOM      6  C   UNL     1       6.129   4.703  17.239  0.00  0.00    +0.000 A 
ATOM      7  S   UNL     1       5.233   3.774  16.067  0.00  0.00    +0.000 S 
ATOM      8  O   UNL     1       3.883   4.312  16.034  0.00  0.00    +0.000 OA
ATOM      9  O   UNL     1       5.539   2.369  16.248  0.00  0.00    +0.000 OA
ATOM     10  C   UNL     1       5.923   4.142  14.509  0.00  0.00    +0.000 A 
ATOM     11  C   UNL     1       5.389   3.509  13.379  0.00  0.00    +0.000 A 
ATOM     12  C   UNL     1       6.013   3.672  12.149  0.00  0.00    +0.000 A 
ATOM     13  C   UNL     1       7.154   4.467  12.058  0.00  0.00    +0.000 A 
ATOM     14  C   UNL     1       7.663   5.105  13.199  0.00  0.00    +0.000 A 
ATOM     15  C   UNL     1       7.049   4.940  14.444  0.00  0.00    +0.000 A 
ATOM     16  O   UNL     1       7.655   5.575  15.491  0.00  0.00    +0.000 OA
ENDROOT
BRANCH   1  19
ATOM     17  C   UNL     1       2.285   3.465  19.470  0.00  0.00    +0.000 C 
ATOM     18  N   UNL     1       3.366   4.319  19.035  0.00  0.00    +0.000 N 
ATOM     19  C   UNL     1       4.661   3.851  19.126  0.00  0.00    +0.000 C 
ATOM     20  O   UNL     1       4.927   2.779  19.647  0.00  0.00    +0.000 OA
ATOM     21  H   UNL     1       3.149   5.110  18.444  0.00  0.00    +0.000 HD
ENDBRANCH   1  19
TORSDOF 1
ENDMDL
