MODEL 1
REMARK VINA RESULT:      -7.2      0.000      0.000
REMARK  Name = 
REMARK  7 active torsions:
REMARK  status: ('A' for Active; 'I' for Inactive)
REMARK    1  A    between atoms: C_1  and  O_2
REMARK    2  A    between atoms: O_2  and  C_3
REMARK    3  A    between atoms: C_6  and  N_7
REMARK    4  A    between atoms: C_8  and  C_10
REMARK    5  A    between atoms: C_10  and  C_11
REMARK    6  A    between atoms: C_11  and  S_12
REMARK    7  A    between atoms: S_12  and  C_15
REMARK                            x       y       z     vdW  Elec       q    Type
REMARK                         _______ _______ _______ _____ _____    ______ ____
ROOT
ATOM      1  N   UNL     1       2.573   6.071  20.456  0.00  0.00    +0.000 N 
ATOM      2  C   UNL     1       1.816   4.927  20.648  0.00  0.00    +0.000 C 
ATOM      3  O   UNL     1       0.607   4.819  20.464  0.00  0.00    +0.000 OA
ATOM      4  H   UNL     1       3.562   6.024  20.671  0.00  0.00    +0.000 HD
ENDROOT
BRANCH   1   8
ATOM      5  C   UNL     1       1.142   9.801  19.028  0.00  0.00    +0.000 A 
ATOM      6  C   UNL     1       1.878   8.973  18.189  0.00  0.00    +0.000 A 
ATOM      7  C   UNL     1       2.343   7.734  18.637  0.00  0.00    +0.000 A 
ATOM      8  C   UNL     1       2.098   7.302  19.941  0.00  0.00    +0.000 A 
ATOM      9  C   UNL     1       1.361   8.142  20.788  0.00  0.00    +0.000 A 
ATOM     10  C   UNL     1       0.886   9.388  20.334  0.00  0.00    +0.000 A 
BRANCH   5  12
ATOM     11  C   UNL     1       1.444  12.146  18.968  0.00  0.00    +0.000 C 
ATOM     12  O   UNL     1       0.775  10.994  18.473  0.00  0.00    +0.000 OA
ENDBRANCH   5  12
ENDBRANCH   1   8
BRANCH   2  13
ATOM     13  C   UNL     1       2.597   3.729  21.144  0.00  0.00    +0.000 C 
BRANCH  13  14
ATOM     14  C   UNL     1       2.416   2.581  20.151  0.00  0.00    +0.000 C 
BRANCH  14  15
ATOM     15  S   UNL     1       3.933   2.204  19.323  0.00  0.00    +0.000 S 
ATOM     16  O   UNL     1       4.977   2.015  20.309  0.00  0.00    +0.000 OA
ATOM     17  O   UNL     1       3.664   1.215  18.299  0.00  0.00    +0.000 OA
BRANCH  15  18
ATOM     18  C   UNL     1       4.377   3.675  18.420  0.00  0.00    +0.000 A 
ATOM     19  C   UNL     1       3.841   4.261  17.286  0.00  0.00    +0.000 A 
ATOM     20  C   UNL     1       4.593   5.393  16.847  0.00  0.00    +0.000 A 
ATOM     21  C   UNL     1       5.655   5.630  17.680  0.00  0.00    +0.000 A 
ATOM     22 BR   UNL     1       6.890   7.014  17.411  0.00  0.00    +0.000 Br
ATOM     23  S   UNL     1       5.752   4.538  18.972  0.00  0.00    +0.000 S 
ENDBRANCH  15  18
ENDBRANCH  14  15
ENDBRANCH  13  14
ENDBRANCH   2  13
TORSDOF 6
ENDMDL
MODEL 2
REMARK VINA RESULT:      -6.7      6.036      7.097
REMARK  Name = 
REMARK  7 active torsions:
REMARK  status: ('A' for Active; 'I' for Inactive)
REMARK    1  A    between atoms: C_1  and  O_2
REMARK    2  A    between atoms: O_2  and  C_3
REMARK    3  A    between atoms: C_6  and  N_7
REMARK    4  A    between atoms: C_8  and  C_10
REMARK    5  A    between atoms: C_10  and  C_11
REMARK    6  A    between atoms: C_11  and  S_12
REMARK    7  A    between atoms: S_12  and  C_15
REMARK                            x       y       z     vdW  Elec       q    Type
REMARK                         _______ _______ _______ _____ _____    ______ ____
ROOT
ATOM      1  N   UNL     1       9.015   9.023  19.068  0.00  0.00    +0.000 N 
ATOM      2  C   UNL     1       8.117   8.480  18.164  0.00  0.00    +0.000 C 
ATOM      3  O   UNL     1       7.476   9.100  17.320  0.00  0.00    +0.000 OA
ATOM      4  H   UNL     1       9.457   8.395  19.728  0.00  0.00    +0.000 HD
ENDROOT
BRANCH   1   8
ATOM      5  C   UNL     1      10.220  13.080  19.368  0.00  0.00    +0.000 A 
ATOM      6  C   UNL     1      10.317  12.416  18.151  0.00  0.00    +0.000 A 
ATOM      7  C   UNL     1       9.909  11.085  18.029  0.00  0.00    +0.000 A 
ATOM      8  C   UNL     1       9.413  10.382  19.128  0.00  0.00    +0.000 A 
ATOM      9  C   UNL     1       9.324  11.051  20.356  0.00  0.00    +0.000 A 
ATOM     10  C   UNL     1       9.727  12.395  20.477  0.00  0.00    +0.000 A 
BRANCH   5  12
ATOM     11  C   UNL     1      11.722  14.646  18.427  0.00  0.00    +0.000 C 
ATOM     12  O   UNL     1      10.681  14.366  19.353  0.00  0.00    +0.000 OA
ENDBRANCH   5  12
ENDBRANCH   1   8
BRANCH   2  13
ATOM     13  C   UNL     1       7.932   6.983  18.279  0.00  0.00    +0.000 C 
BRANCH  13  14
ATOM     14  C   UNL     1       6.906   6.534  17.239  0.00  0.00    +0.000 C 
BRANCH  14  15
ATOM     15  S   UNL     1       6.387   4.868  17.525  0.00  0.00    +0.000 S 
ATOM     16  O   UNL     1       6.444   4.133  16.278  0.00  0.00    +0.000 OA
ATOM     17  O   UNL     1       7.039   4.383  18.725  0.00  0.00    +0.000 OA
BRANCH  15  18
ATOM     18  C   UNL     1       4.661   4.959  17.958  0.00  0.00    +0.000 A 
ATOM     19  C   UNL     1       3.680   5.889  17.657  0.00  0.00    +0.000 A 
ATOM     20  C   UNL     1       2.442   5.611  18.311  0.00  0.00    +0.000 A 
ATOM     21  C   UNL     1       2.530   4.468  19.064  0.00  0.00    +0.000 A 
ATOM     22 BR   UNL     1       1.115   3.798  20.093  0.00  0.00    +0.000 Br
ATOM     23  S   UNL     1       4.052   3.727  18.984  0.00  0.00    +0.000 S 
ENDBRANCH  15  18
ENDBRANCH  14  15
ENDBRANCH  13  14
ENDBRANCH   2  13
TORSDOF 6
ENDMDL
MODEL 3
REMARK VINA RESULT:      -6.5      6.601      7.784
REMARK  Name = 
REMARK  7 active torsions:
REMARK  status: ('A' for Active; 'I' for Inactive)
REMARK    1  A    between atoms: C_1  and  O_2
REMARK    2  A    between atoms: O_2  and  C_3
REMARK    3  A    between atoms: C_6  and  N_7
REMARK    4  A    between atoms: C_8  and  C_10
REMARK    5  A    between atoms: C_10  and  C_11
REMARK    6  A    between atoms: C_11  and  S_12
REMARK    7  A    between atoms: S_12  and  C_15
REMARK                            x       y       z     vdW  Elec       q    Type
REMARK                         _______ _______ _______ _____ _____    ______ ____
ROOT
ATOM      1  N   UNL     1       8.576  10.704  17.556  0.00  0.00    +0.000 N 
ATOM      2  C   UNL     1       8.552   9.527  18.287  0.00  0.00    +0.000 C 
ATOM      3  O   UNL     1       9.215   9.284  19.290  0.00  0.00    +0.000 OA
ATOM      4  H   UNL     1       7.992  10.759  16.730  0.00  0.00    +0.000 HD
ENDROOT
BRANCH   1   8
ATOM      5  C   UNL     1      10.891  14.138  18.476  0.00  0.00    +0.000 A 
ATOM      6  C   UNL     1       9.503  14.215  18.485  0.00  0.00    +0.000 A 
ATOM      7  C   UNL     1       8.725  13.089  18.201  0.00  0.00    +0.000 A 
ATOM      8  C   UNL     1       9.317  11.867  17.883  0.00  0.00    +0.000 A 
ATOM      9  C   UNL     1      10.717  11.794  17.867  0.00  0.00    +0.000 A 
ATOM     10  C   UNL     1      11.502  12.926  18.161  0.00  0.00    +0.000 A 
BRANCH   5  12
ATOM     11  C   UNL     1      11.006  16.470  18.092  0.00  0.00    +0.000 C 
ATOM     12  O   UNL     1      11.527  15.318  18.742  0.00  0.00    +0.000 OA
ENDBRANCH   5  12
ENDBRANCH   1   8
BRANCH   2  13
ATOM     13  C   UNL     1       7.615   8.469  17.746  0.00  0.00    +0.000 C 
BRANCH  13  14
ATOM     14  C   UNL     1       8.010   7.116  18.338  0.00  0.00    +0.000 C 
BRANCH  14  15
ATOM     15  S   UNL     1       7.232   5.785  17.472  0.00  0.00    +0.000 S 
ATOM     16  O   UNL     1       7.315   6.033  16.047  0.00  0.00    +0.000 OA
ATOM     17  O   UNL     1       7.677   4.535  18.053  0.00  0.00    +0.000 OA
BRANCH  15  18
ATOM     18  C   UNL     1       5.500   5.879  17.882  0.00  0.00    +0.000 A 
ATOM     19  C   UNL     1       4.448   6.567  17.301  0.00  0.00    +0.000 A 
ATOM     20  C   UNL     1       3.232   6.430  18.035  0.00  0.00    +0.000 A 
ATOM     21  C   UNL     1       3.408   5.626  19.132  0.00  0.00    +0.000 A 
ATOM     22 BR   UNL     1       2.044   5.237  20.356  0.00  0.00    +0.000 Br
ATOM     23  S   UNL     1       4.987   5.028  19.279  0.00  0.00    +0.000 S 
ENDBRANCH  15  18
ENDBRANCH  14  15
ENDBRANCH  13  14
ENDBRANCH   2  13
TORSDOF 6
ENDMDL
MODEL 4
REMARK VINA RESULT:      -6.4      5.779      6.883
REMARK  Name = 
REMARK  7 active torsions:
REMARK  status: ('A' for Active; 'I' for Inactive)
REMARK    1  A    between atoms: C_1  and  O_2
REMARK    2  A    between atoms: O_2  and  C_3
REMARK    3  A    between atoms: C_6  and  N_7
REMARK    4  A    between atoms: C_8  and  C_10
REMARK    5  A    between atoms: C_10  and  C_11
REMARK    6  A    between atoms: C_11  and  S_12
REMARK    7  A    between atoms: S_12  and  C_15
REMARK                            x       y       z     vdW  Elec       q    Type
REMARK                         _______ _______ _______ _____ _____    ______ ____
ROOT
ATOM      1  N   UNL     1       8.913   8.744  19.120  0.00  0.00    +0.000 N 
ATOM      2  C   UNL     1       8.080   8.110  18.212  0.00  0.00    +0.000 C 
ATOM      3  O   UNL     1       7.455   8.649  17.304  0.00  0.00    +0.000 OA
ATOM      4  H   UNL     1       9.348   8.177  19.837  0.00  0.00    +0.000 HD
ENDROOT
BRANCH   1   8
ATOM      5  C   UNL     1       9.959  12.855  19.217  0.00  0.00    +0.000 A 
ATOM      6  C   UNL     1       9.926  12.176  18.004  0.00  0.00    +0.000 A 
ATOM      7  C   UNL     1       9.567  10.826  17.952  0.00  0.00    +0.000 A 
ATOM      8  C   UNL     1       9.251  10.120  19.113  0.00  0.00    +0.000 A 
ATOM      9  C   UNL     1       9.293  10.805  20.336  0.00  0.00    +0.000 A 
ATOM     10  C   UNL     1       9.646  12.167  20.388  0.00  0.00    +0.000 A 
BRANCH   5  12
ATOM     11  C   UNL     1      11.611  14.473  19.711  0.00  0.00    +0.000 C 
ATOM     12  O   UNL     1      10.353  14.159  19.128  0.00  0.00    +0.000 OA
ENDBRANCH   5  12
ENDBRANCH   1   8
BRANCH   2  13
ATOM     13  C   UNL     1       7.951   6.616  18.412  0.00  0.00    +0.000 C 
BRANCH  13  14
ATOM     14  C   UNL     1       7.070   6.047  17.300  0.00  0.00    +0.000 C 
BRANCH  14  15
ATOM     15  S   UNL     1       5.883   4.904  17.942  0.00  0.00    +0.000 S 
ATOM     16  O   UNL     1       5.437   4.033  16.873  0.00  0.00    +0.000 OA
ATOM     17  O   UNL     1       6.383   4.376  19.195  0.00  0.00    +0.000 OA
BRANCH  15  18
ATOM     18  C   UNL     1       4.462   5.877  18.400  0.00  0.00    +0.000 A 
ATOM     19  C   UNL     1       3.528   5.731  19.412  0.00  0.00    +0.000 A 
ATOM     20  C   UNL     1       2.485   6.703  19.340  0.00  0.00    +0.000 A 
ATOM     21  C   UNL     1       2.684   7.559  18.288  0.00  0.00    +0.000 A 
ATOM     22 BR   UNL     1       1.507   8.951  17.852  0.00  0.00    +0.000 Br
ATOM     23  S   UNL     1       4.094   7.227  17.408  0.00  0.00    +0.000 S 
ENDBRANCH  15  18
ENDBRANCH  14  15
ENDBRANCH  13  14
ENDBRANCH   2  13
TORSDOF 6
ENDMDL
MODEL 5
REMARK VINA RESULT:      -6.4      2.582      3.153
REMARK  Name = 
REMARK  7 active torsions:
REMARK  status: ('A' for Active; 'I' for Inactive)
REMARK    1  A    between atoms: C_1  and  O_2
REMARK    2  A    between atoms: O_2  and  C_3
REMARK    3  A    between atoms: C_6  and  N_7
REMARK    4  A    between atoms: C_8  and  C_10
REMARK    5  A    between atoms: C_10  and  C_11
REMARK    6  A    between atoms: C_11  and  S_12
REMARK    7  A    between atoms: S_12  and  C_15
REMARK                            x       y       z     vdW  Elec       q    Type
REMARK                         _______ _______ _______ _____ _____    ______ ____
ROOT
ATOM      1  N   UNL     1       3.049   6.291  19.827  0.00  0.00    +0.000 N 
ATOM      2  C   UNL     1       2.650   5.001  19.517  0.00  0.00    +0.000 C 
ATOM      3  O   UNL     1       1.521   4.652  19.186  0.00  0.00    +0.000 OA
ATOM      4  H   UNL     1       4.011   6.433  20.109  0.00  0.00    +0.000 HD
ENDROOT
BRANCH   1   8
ATOM      5  C   UNL     1       0.620   9.751  19.457  0.00  0.00    +0.000 A 
ATOM      6  C   UNL     1       0.680   9.071  20.668  0.00  0.00    +0.000 A 
ATOM      7  C   UNL     1       1.487   7.940  20.813  0.00  0.00    +0.000 A 
ATOM      8  C   UNL     1       2.239   7.452  19.744  0.00  0.00    +0.000 A 
ATOM      9  C   UNL     1       2.171   8.134  18.521  0.00  0.00    +0.000 A 
ATOM     10  C   UNL     1       1.364   9.279  18.378  0.00  0.00    +0.000 A 
BRANCH   5  12
ATOM     11  C   UNL     1      -1.120  10.900  18.342  0.00  0.00    +0.000 C 
ATOM     12  O   UNL     1      -0.229  10.821  19.446  0.00  0.00    +0.000 OA
ENDBRANCH   5  12
ENDBRANCH   1   8
BRANCH   2  13
ATOM     13  C   UNL     1       3.742   3.961  19.625  0.00  0.00    +0.000 C 
BRANCH  13  14
ATOM     14  C   UNL     1       4.366   3.759  18.244  0.00  0.00    +0.000 C 
BRANCH  14  15
ATOM     15  S   UNL     1       5.747   4.836  17.999  0.00  0.00    +0.000 S 
ATOM     16  O   UNL     1       5.302   6.210  18.108  0.00  0.00    +0.000 OA
ATOM     17  O   UNL     1       6.864   4.335  18.773  0.00  0.00    +0.000 OA
BRANCH  15  18
ATOM     18  C   UNL     1       6.244   4.619  16.301  0.00  0.00    +0.000 A 
ATOM     19  C   UNL     1       7.288   5.156  15.567  0.00  0.00    +0.000 A 
ATOM     20  C   UNL     1       7.241   4.778  14.191  0.00  0.00    +0.000 A 
ATOM     21  C   UNL     1       6.175   3.953  13.944  0.00  0.00    +0.000 A 
ATOM     22 BR   UNL     1       5.766   3.275  12.246  0.00  0.00    +0.000 Br
ATOM     23  S   UNL     1       5.252   3.616  15.325  0.00  0.00    +0.000 S 
ENDBRANCH  15  18
ENDBRANCH  14  15
ENDBRANCH  13  14
ENDBRANCH   2  13
TORSDOF 6
ENDMDL
MODEL 6
REMARK VINA RESULT:      -6.4      6.140      7.278
REMARK  Name = 
REMARK  7 active torsions:
REMARK  status: ('A' for Active; 'I' for Inactive)
REMARK    1  A    between atoms: C_1  and  O_2
REMARK    2  A    between atoms: O_2  and  C_3
REMARK    3  A    between atoms: C_6  and  N_7
REMARK    4  A    between atoms: C_8  and  C_10
REMARK    5  A    between atoms: C_10  and  C_11
REMARK    6  A    between atoms: C_11  and  S_12
REMARK    7  A    between atoms: S_12  and  C_15
REMARK                            x       y       z     vdW  Elec       q    Type
REMARK                         _______ _______ _______ _____ _____    ______ ____
ROOT
ATOM      1  N   UNL     1       9.019   9.119  19.192  0.00  0.00    +0.000 N 
ATOM      2  C   UNL     1       8.173   8.791  18.145  0.00  0.00    +0.000 C 
ATOM      3  O   UNL     1       7.637   9.580  17.373  0.00  0.00    +0.000 OA
ATOM      4  H   UNL     1       9.372   8.365  19.768  0.00  0.00    +0.000 HD
ENDROOT
BRANCH   1   8
ATOM      5  C   UNL     1      10.381  13.049  20.028  0.00  0.00    +0.000 A 
ATOM      6  C   UNL     1       9.787  12.294  21.032  0.00  0.00    +0.000 A 
ATOM      7  C   UNL     1       9.348  10.991  20.779  0.00  0.00    +0.000 A 
ATOM      8  C   UNL     1       9.476  10.422  19.511  0.00  0.00    +0.000 A 
ATOM      9  C   UNL     1      10.069  11.190  18.499  0.00  0.00    +0.000 A 
ATOM     10  C   UNL     1      10.519  12.499  18.756  0.00  0.00    +0.000 A 
BRANCH   5  12
ATOM     11  C   UNL     1      10.947  15.243  19.350  0.00  0.00    +0.000 C 
ATOM     12  O   UNL     1      10.737  14.314  20.404  0.00  0.00    +0.000 OA
ENDBRANCH   5  12
ENDBRANCH   1   8
BRANCH   2  13
ATOM     13  C   UNL     1       7.906   7.310  17.991  0.00  0.00    +0.000 C 
BRANCH  13  14
ATOM     14  C   UNL     1       6.543   7.124  17.325  0.00  0.00    +0.000 C 
BRANCH  14  15
ATOM     15  S   UNL     1       6.413   5.535  16.561  0.00  0.00    +0.000 S 
ATOM     16  O   UNL     1       6.004   5.704  15.181  0.00  0.00    +0.000 OA
ATOM     17  O   UNL     1       7.580   4.755  16.919  0.00  0.00    +0.000 OA
BRANCH  15  18
ATOM     18  C   UNL     1       5.056   4.711  17.372  0.00  0.00    +0.000 A 
ATOM     19  C   UNL     1       4.105   3.818  16.907  0.00  0.00    +0.000 A 
ATOM     20  C   UNL     1       3.130   3.491  17.897  0.00  0.00    +0.000 A 
ATOM     21  C   UNL     1       3.396   4.133  19.079  0.00  0.00    +0.000 A 
ATOM     22 BR   UNL     1       2.320   3.976  20.605  0.00  0.00    +0.000 Br
ATOM     23  S   UNL     1       4.790   5.096  19.022  0.00  0.00    +0.000 S 
ENDBRANCH  15  18
ENDBRANCH  14  15
ENDBRANCH  13  14
ENDBRANCH   2  13
TORSDOF 6
ENDMDL
MODEL 7
REMARK VINA RESULT:      -6.3      3.089      5.043
REMARK  Name = 
REMARK  7 active torsions:
REMARK  status: ('A' for Active; 'I' for Inactive)
REMARK    1  A    between atoms: C_1  and  O_2
REMARK    2  A    between atoms: O_2  and  C_3
REMARK    3  A    between atoms: C_6  and  N_7
REMARK    4  A    between atoms: C_8  and  C_10
REMARK    5  A    between atoms: C_10  and  C_11
REMARK    6  A    between atoms: C_11  and  S_12
REMARK    7  A    between atoms: S_12  and  C_15
REMARK                            x       y       z     vdW  Elec       q    Type
REMARK                         _______ _______ _______ _____ _____    ______ ____
ROOT
ATOM      1  N   UNL     1       5.142   3.927  18.593  0.00  0.00    +0.000 N 
ATOM      2  C   UNL     1       4.352   3.184  17.731  0.00  0.00    +0.000 C 
ATOM      3  O   UNL     1       4.138   3.433  16.548  0.00  0.00    +0.000 OA
ATOM      4  H   UNL     1       5.211   3.618  19.555  0.00  0.00    +0.000 HD
ENDROOT
BRANCH   1   8
ATOM      5  C   UNL     1       7.330   7.398  17.511  0.00  0.00    +0.000 A 
ATOM      6  C   UNL     1       7.902   6.452  18.354  0.00  0.00    +0.000 A 
ATOM      7  C   UNL     1       7.203   5.295  18.707  0.00  0.00    +0.000 A 
ATOM      8  C   UNL     1       5.908   5.066  18.240  0.00  0.00    +0.000 A 
ATOM      9  C   UNL     1       5.330   6.025  17.396  0.00  0.00    +0.000 A 
ATOM     10  C   UNL     1       6.038   7.187  17.033  0.00  0.00    +0.000 A 
BRANCH   5  12
ATOM     11  C   UNL     1       8.465   9.269  18.408  0.00  0.00    +0.000 C 
ATOM     12  O   UNL     1       8.111   8.492  17.271  0.00  0.00    +0.000 OA
ENDBRANCH   5  12
ENDBRANCH   1   8
BRANCH   2  13
ATOM     13  C   UNL     1       3.701   1.972  18.360  0.00  0.00    +0.000 C 
BRANCH  13  14
ATOM     14  C   UNL     1       3.179   2.358  19.744  0.00  0.00    +0.000 C 
BRANCH  14  15
ATOM     15  S   UNL     1       1.581   3.107  19.642  0.00  0.00    +0.000 S 
ATOM     16  O   UNL     1       0.994   2.799  18.353  0.00  0.00    +0.000 OA
ATOM     17  O   UNL     1       0.874   2.854  20.880  0.00  0.00    +0.000 OA
BRANCH  15  18
ATOM     18  C   UNL     1       1.864   4.867  19.638  0.00  0.00    +0.000 A 
ATOM     19  C   UNL     1       2.023   5.780  20.667  0.00  0.00    +0.000 A 
ATOM     20  C   UNL     1       2.125   7.124  20.195  0.00  0.00    +0.000 A 
ATOM     21  C   UNL     1       2.059   7.171  18.827  0.00  0.00    +0.000 A 
ATOM     22 BR   UNL     1       2.127   8.765  17.844  0.00  0.00    +0.000 Br
ATOM     23  S   UNL     1       1.897   5.644  18.109  0.00  0.00    +0.000 S 
ENDBRANCH  15  18
ENDBRANCH  14  15
ENDBRANCH  13  14
ENDBRANCH   2  13
TORSDOF 6
ENDMDL
MODEL 8
REMARK VINA RESULT:      -6.3      3.356      5.005
REMARK  Name = 
REMARK  7 active torsions:
REMARK  status: ('A' for Active; 'I' for Inactive)
REMARK    1  A    between atoms: C_1  and  O_2
REMARK    2  A    between atoms: O_2  and  C_3
REMARK    3  A    between atoms: C_6  and  N_7
REMARK    4  A    between atoms: C_8  and  C_10
REMARK    5  A    between atoms: C_10  and  C_11
REMARK    6  A    between atoms: C_11  and  S_12
REMARK    7  A    between atoms: S_12  and  C_15
REMARK                            x       y       z     vdW  Elec       q    Type
REMARK                         _______ _______ _______ _____ _____    ______ ____
ROOT
ATOM      1  N   UNL     1       5.681   3.687  18.380  0.00  0.00    +0.000 N 
ATOM      2  C   UNL     1       4.897   3.395  19.483  0.00  0.00    +0.000 C 
ATOM      3  O   UNL     1       4.644   4.155  20.413  0.00  0.00    +0.000 OA
ATOM      4  H   UNL     1       5.827   2.954  17.697  0.00  0.00    +0.000 HD
ENDROOT
BRANCH   1   8
ATOM      5  C   UNL     1       7.336   7.487  17.470  0.00  0.00    +0.000 A 
ATOM      6  C   UNL     1       7.944   6.675  18.421  0.00  0.00    +0.000 A 
ATOM      7  C   UNL     1       7.423   5.413  18.721  0.00  0.00    +0.000 A 
ATOM      8  C   UNL     1       6.270   4.943  18.090  0.00  0.00    +0.000 A 
ATOM      9  C   UNL     1       5.654   5.767  17.137  0.00  0.00    +0.000 A 
ATOM     10  C   UNL     1       6.185   7.035  16.829  0.00  0.00    +0.000 A 
BRANCH   5  12
ATOM     11  C   UNL     1       8.577   9.252  18.438  0.00  0.00    +0.000 C 
ATOM     12  O   UNL     1       7.932   8.703  17.296  0.00  0.00    +0.000 OA
ENDBRANCH   5  12
ENDBRANCH   1   8
BRANCH   2  13
ATOM     13  C   UNL     1       4.335   1.990  19.504  0.00  0.00    +0.000 C 
BRANCH  13  14
ATOM     14  C   UNL     1       3.190   1.905  18.495  0.00  0.00    +0.000 C 
BRANCH  14  15
ATOM     15  S   UNL     1       1.677   2.502  19.190  0.00  0.00    +0.000 S 
ATOM     16  O   UNL     1       0.574   2.099  18.341  0.00  0.00    +0.000 OA
ATOM     17  O   UNL     1       1.683   2.226  20.612  0.00  0.00    +0.000 OA
BRANCH  15  18
ATOM     18  C   UNL     1       1.753   4.279  19.077  0.00  0.00    +0.000 A 
ATOM     19  C   UNL     1       2.127   5.125  18.046  0.00  0.00    +0.000 A 
ATOM     20  C   UNL     1       2.133   6.498  18.439  0.00  0.00    +0.000 A 
ATOM     21  C   UNL     1       1.742   6.636  19.746  0.00  0.00    +0.000 A 
ATOM     22 BR   UNL     1       1.656   8.287  20.628  0.00  0.00    +0.000 Br
ATOM     23  S   UNL     1       1.358   5.164  20.492  0.00  0.00    +0.000 S 
ENDBRANCH  15  18
ENDBRANCH  14  15
ENDBRANCH  13  14
ENDBRANCH   2  13
TORSDOF 6
ENDMDL
MODEL 9
REMARK VINA RESULT:      -6.2      4.559      7.766
REMARK  Name = 
REMARK  7 active torsions:
REMARK  status: ('A' for Active; 'I' for Inactive)
REMARK    1  A    between atoms: C_1  and  O_2
REMARK    2  A    between atoms: O_2  and  C_3
REMARK    3  A    between atoms: C_6  and  N_7
REMARK    4  A    between atoms: C_8  and  C_10
REMARK    5  A    between atoms: C_10  and  C_11
REMARK    6  A    between atoms: C_11  and  S_12
REMARK    7  A    between atoms: S_12  and  C_15
REMARK                            x       y       z     vdW  Elec       q    Type
REMARK                         _______ _______ _______ _____ _____    ______ ____
ROOT
ATOM      1  N   UNL     1       1.784   7.971  21.213  0.00  0.00    +0.000 N 
ATOM      2  C   UNL     1       0.588   8.445  21.728  0.00  0.00    +0.000 C 
ATOM      3  O   UNL     1      -0.535   8.046  21.434  0.00  0.00    +0.000 OA
ATOM      4  H   UNL     1       2.641   8.411  21.528  0.00  0.00    +0.000 HD
ENDROOT
BRANCH   1   8
ATOM      5  C   UNL     1       2.289   4.796  18.446  0.00  0.00    +0.000 A 
ATOM      6  C   UNL     1       1.856   4.526  19.739  0.00  0.00    +0.000 A 
ATOM      7  C   UNL     1       1.667   5.562  20.658  0.00  0.00    +0.000 A 
ATOM      8  C   UNL     1       1.927   6.888  20.311  0.00  0.00    +0.000 A 
ATOM      9  C   UNL     1       2.372   7.156  19.009  0.00  0.00    +0.000 A 
ATOM     10  C   UNL     1       2.554   6.114  18.080  0.00  0.00    +0.000 A 
BRANCH   5  12
ATOM     11  C   UNL     1       3.696   3.005  17.805  0.00  0.00    +0.000 C 
ATOM     12  O   UNL     1       2.459   3.690  17.661  0.00  0.00    +0.000 OA
ENDBRANCH   5  12
ENDBRANCH   1   8
BRANCH   2  13
ATOM     13  C   UNL     1       0.734   9.569  22.730  0.00  0.00    +0.000 C 
BRANCH  13  14
ATOM     14  C   UNL     1      -0.453  10.520  22.576  0.00  0.00    +0.000 C 
BRANCH  14  15
ATOM     15  S   UNL     1      -0.123  11.769  21.368  0.00  0.00    +0.000 S 
ATOM     16  O   UNL     1      -0.820  12.983  21.740  0.00  0.00    +0.000 OA
ATOM     17  O   UNL     1       1.296  11.764  21.077  0.00  0.00    +0.000 OA
BRANCH  15  18
ATOM     18  C   UNL     1      -0.892  11.209  19.861  0.00  0.00    +0.000 A 
ATOM     19  C   UNL     1      -0.474  10.321  18.884  0.00  0.00    +0.000 A 
ATOM     20  C   UNL     1      -1.381  10.252  17.783  0.00  0.00    +0.000 A 
ATOM     21  C   UNL     1      -2.459  11.074  17.982  0.00  0.00    +0.000 A 
ATOM     22 BR   UNL     1      -3.848  11.275  16.740  0.00  0.00    +0.000 Br
ATOM     23  S   UNL     1      -2.408  11.904  19.459  0.00  0.00    +0.000 S 
ENDBRANCH  15  18
ENDBRANCH  14  15
ENDBRANCH  13  14
ENDBRANCH   2  13
TORSDOF 6
ENDMDL
