MODEL 1
REMARK VINA RESULT:      -8.2      0.000      0.000
REMARK  Name = 
REMARK  5 active torsions:
REMARK  status: ('A' for Active; 'I' for Inactive)
REMARK    1  A    between atoms: C_1  and  S_2
REMARK    2  A    between atoms: S_2  and  N_5
REMARK    3  A    between atoms: N_5  and  C_6
REMARK    4  A    between atoms: C_6  and  C_7
REMARK    5  A    between atoms: C_10  and  C_11
REMARK                            x       y       z     vdW  Elec       q    Type
REMARK                         _______ _______ _______ _____ _____    ______ ____
ROOT
ATOM      1  C   UNL     1       1.869   6.311  19.822  0.00  0.00    +0.000 C 
ATOM      2  C   UNL     1       3.157   5.845  19.154  0.00  0.00    +0.000 C 
ATOM      3  N   UNL     1       3.262   4.401  19.187  0.00  0.00    +0.000 N 
ATOM      4  C   UNL     1       4.085   3.586  18.451  0.00  0.00    +0.000 A 
ATOM      5  C   UNL     1       3.745   2.316  18.886  0.00  0.00    +0.000 A 
ATOM      6  N   UNL     1       2.769   2.355  19.852  0.00  0.00    +0.000 NA
ATOM      7  C   UNL     1       2.500   3.629  20.027  0.00  0.00    +0.000 A 
ATOM      8  C   UNL     1       1.484   4.234  20.932  0.00  0.00    +0.000 C 
ATOM      9  O   UNL     1       1.723   5.648  21.088  0.00  0.00    +0.000 OA
ENDROOT
BRANCH   4  10
ATOM     10  C   UNL     1       5.061   4.021  17.457  0.00  0.00    +0.000 A 
ATOM     11  C   UNL     1       6.246   4.657  17.841  0.00  0.00    +0.000 A 
ATOM     12  C   UNL     1       7.182   5.076  16.897  0.00  0.00    +0.000 A 
ATOM     13  C   UNL     1       6.942   4.846  15.552  0.00  0.00    +0.000 A 
ATOM     14  C   UNL     1       5.778   4.185  15.150  0.00  0.00    +0.000 A 
ATOM     15  C   UNL     1       4.836   3.784  16.097  0.00  0.00    +0.000 A 
ATOM     16  O   UNL     1       5.489   3.904  13.838  0.00  0.00    +0.000 OA
ATOM     17  C   UNL     1       6.653   4.020  13.013  0.00  0.00    +0.000 C 
ATOM     18  C   UNL     1       7.417   5.295  13.330  0.00  0.00    +0.000 C 
ATOM     19  O   UNL     1       7.901   5.282  14.677  0.00  0.00    +0.000 OA
ENDBRANCH   4  10
BRANCH   1  20
ATOM     20  C   UNL     1       1.907   7.822  20.058  0.00  0.00    +0.000 C 
BRANCH  20  21
ATOM     21  N   UNL     1       1.814   8.130  21.507  0.00  0.00    +0.000 NA
ATOM     22  H   UNL     1       1.825   7.279  22.075  0.00  0.00    +0.000 HD
BRANCH  21  24
ATOM     23  C   UNL     1       0.353  10.232  20.627  0.00  0.00    +0.000 C 
ATOM     24  S   UNL     1       0.448   9.038  21.944  0.00  0.00    +0.000 S 
ATOM     25  O   UNL     1       0.759   9.711  23.169  0.00  0.00    +0.000 OA
ATOM     26  O   UNL     1      -0.691   8.134  21.839  0.00  0.00    +0.000 OA
ENDBRANCH  21  24
ENDBRANCH  20  21
ENDBRANCH   1  20
TORSDOF 4
ENDMDL
MODEL 2
REMARK VINA RESULT:      -8.2      2.898      7.493
REMARK  Name = 
REMARK  5 active torsions:
REMARK  status: ('A' for Active; 'I' for Inactive)
REMARK    1  A    between atoms: C_1  and  S_2
REMARK    2  A    between atoms: S_2  and  N_5
REMARK    3  A    between atoms: N_5  and  C_6
REMARK    4  A    between atoms: C_6  and  C_7
REMARK    5  A    between atoms: C_10  and  C_11
REMARK                            x       y       z     vdW  Elec       q    Type
REMARK                         _______ _______ _______ _____ _____    ______ ____
ROOT
ATOM      1  C   UNL     1       5.764   4.639  18.813  0.00  0.00    +0.000 C 
ATOM      2  C   UNL     1       4.574   5.581  18.678  0.00  0.00    +0.000 C 
ATOM      3  N   UNL     1       3.461   5.125  19.485  0.00  0.00    +0.000 N 
ATOM      4  C   UNL     1       2.347   5.822  19.876  0.00  0.00    +0.000 A 
ATOM      5  C   UNL     1       1.645   4.899  20.633  0.00  0.00    +0.000 A 
ATOM      6  N   UNL     1       2.295   3.691  20.691  0.00  0.00    +0.000 NA
ATOM      7  C   UNL     1       3.388   3.847  19.977  0.00  0.00    +0.000 A 
ATOM      8  C   UNL     1       4.476   2.858  19.742  0.00  0.00    +0.000 C 
ATOM      9  O   UNL     1       5.318   3.283  18.651  0.00  0.00    +0.000 OA
ENDROOT
BRANCH   4  10
ATOM     10  C   UNL     1       2.038   7.209  19.542  0.00  0.00    +0.000 A 
ATOM     11  C   UNL     1       2.200   7.690  18.239  0.00  0.00    +0.000 A 
ATOM     12  C   UNL     1       1.910   9.013  17.913  0.00  0.00    +0.000 A 
ATOM     13  C   UNL     1       1.435   9.867  18.897  0.00  0.00    +0.000 A 
ATOM     14  C   UNL     1       1.237   9.398  20.198  0.00  0.00    +0.000 A 
ATOM     15  C   UNL     1       1.547   8.078  20.523  0.00  0.00    +0.000 A 
ATOM     16  O   UNL     1       0.749  10.182  21.213  0.00  0.00    +0.000 OA
ATOM     17  C   UNL     1       0.133  11.370  20.702  0.00  0.00    +0.000 C 
ATOM     18  C   UNL     1       1.006  12.019  19.640  0.00  0.00    +0.000 C 
ATOM     19  O   UNL     1       1.168  11.154  18.511  0.00  0.00    +0.000 OA
ENDBRANCH   4  10
BRANCH   1  20
ATOM     20  C   UNL     1       6.811   4.944  17.741  0.00  0.00    +0.000 C 
BRANCH  20  21
ATOM     21  N   UNL     1       6.556   4.150  16.513  0.00  0.00    +0.000 NA
ATOM     22  H   UNL     1       7.250   3.408  16.393  0.00  0.00    +0.000 HD
BRANCH  21  24
ATOM     23  C   UNL     1       5.966   3.864  13.886  0.00  0.00    +0.000 C 
ATOM     24  S   UNL     1       6.509   5.064  15.085  0.00  0.00    +0.000 S 
ATOM     25  O   UNL     1       7.855   5.453  14.785  0.00  0.00    +0.000 OA
ATOM     26  O   UNL     1       5.454   6.053  15.268  0.00  0.00    +0.000 OA
ENDBRANCH  21  24
ENDBRANCH  20  21
ENDBRANCH   1  20
TORSDOF 4
ENDMDL
MODEL 3
REMARK VINA RESULT:      -7.7      2.965      7.227
REMARK  Name = 
REMARK  5 active torsions:
REMARK  status: ('A' for Active; 'I' for Inactive)
REMARK    1  A    between atoms: C_1  and  S_2
REMARK    2  A    between atoms: S_2  and  N_5
REMARK    3  A    between atoms: N_5  and  C_6
REMARK    4  A    between atoms: C_6  and  C_7
REMARK    5  A    between atoms: C_10  and  C_11
REMARK                            x       y       z     vdW  Elec       q    Type
REMARK                         _______ _______ _______ _____ _____    ______ ____
ROOT
ATOM      1  C   UNL     1       5.851   5.036  19.092  0.00  0.00    +0.000 C 
ATOM      2  C   UNL     1       4.586   5.885  19.082  0.00  0.00    +0.000 C 
ATOM      3  N   UNL     1       3.474   5.160  19.661  0.00  0.00    +0.000 N 
ATOM      4  C   UNL     1       2.274   5.651  20.109  0.00  0.00    +0.000 A 
ATOM      5  C   UNL     1       1.618   4.519  20.563  0.00  0.00    +0.000 A 
ATOM      6  N   UNL     1       2.378   3.388  20.390  0.00  0.00    +0.000 NA
ATOM      7  C   UNL     1       3.494   3.799  19.830  0.00  0.00    +0.000 A 
ATOM      8  C   UNL     1       4.687   2.987  19.462  0.00  0.00    +0.000 C 
ATOM      9  O   UNL     1       5.551   3.728  18.578  0.00  0.00    +0.000 OA
ENDROOT
BRANCH   4  10
ATOM     10  C   UNL     1       1.854   7.048  20.087  0.00  0.00    +0.000 A 
ATOM     11  C   UNL     1       1.196   7.621  21.180  0.00  0.00    +0.000 A 
ATOM     12  C   UNL     1       0.791   8.954  21.166  0.00  0.00    +0.000 A 
ATOM     13  C   UNL     1       1.058   9.734  20.052  0.00  0.00    +0.000 A 
ATOM     14  C   UNL     1       1.741   9.189  18.960  0.00  0.00    +0.000 A 
ATOM     15  C   UNL     1       2.128   7.850  18.973  0.00  0.00    +0.000 A 
ATOM     16  O   UNL     1       2.058   9.911  17.837  0.00  0.00    +0.000 OA
ATOM     17  C   UNL     1       1.950  11.318  18.076  0.00  0.00    +0.000 C 
ATOM     18  C   UNL     1       0.659  11.647  18.808  0.00  0.00    +0.000 C 
ATOM     19  O   UNL     1       0.634  11.035  20.101  0.00  0.00    +0.000 OA
ENDBRANCH   4  10
BRANCH   1  20
ATOM     20  C   UNL     1       6.930   5.675  18.216  0.00  0.00    +0.000 C 
BRANCH  20  21
ATOM     21  N   UNL     1       7.311   4.767  17.104  0.00  0.00    +0.000 NA
ATOM     22  H   UNL     1       8.327   4.662  17.036  0.00  0.00    +0.000 HD
BRANCH  21  24
ATOM     23  C   UNL     1       5.843   3.787  15.052  0.00  0.00    +0.000 C 
ATOM     24  S   UNL     1       6.726   5.239  15.583  0.00  0.00    +0.000 S 
ATOM     25  O   UNL     1       7.862   5.436  14.733  0.00  0.00    +0.000 OA
ATOM     26  O   UNL     1       5.765   6.307  15.830  0.00  0.00    +0.000 OA
ENDBRANCH  21  24
ENDBRANCH  20  21
ENDBRANCH   1  20
TORSDOF 4
ENDMDL
MODEL 4
REMARK VINA RESULT:      -7.7      3.067      7.258
REMARK  Name = 
REMARK  5 active torsions:
REMARK  status: ('A' for Active; 'I' for Inactive)
REMARK    1  A    between atoms: C_1  and  S_2
REMARK    2  A    between atoms: S_2  and  N_5
REMARK    3  A    between atoms: N_5  and  C_6
REMARK    4  A    between atoms: C_6  and  C_7
REMARK    5  A    between atoms: C_10  and  C_11
REMARK                            x       y       z     vdW  Elec       q    Type
REMARK                         _______ _______ _______ _____ _____    ______ ____
ROOT
ATOM      1  C   UNL     1       5.666   4.440  19.366  0.00  0.00    +0.000 C 
ATOM      2  C   UNL     1       4.532   5.418  19.082  0.00  0.00    +0.000 C 
ATOM      3  N   UNL     1       3.302   4.977  19.707  0.00  0.00    +0.000 N 
ATOM      4  C   UNL     1       2.160   5.697  19.948  0.00  0.00    +0.000 A 
ATOM      5  C   UNL     1       1.332   4.779  20.572  0.00  0.00    +0.000 A 
ATOM      6  N   UNL     1       1.936   3.552  20.695  0.00  0.00    +0.000 NA
ATOM      7  C   UNL     1       3.126   3.692  20.152  0.00  0.00    +0.000 A 
ATOM      8  C   UNL     1       4.212   2.678  20.055  0.00  0.00    +0.000 C 
ATOM      9  O   UNL     1       5.215   3.100  19.109  0.00  0.00    +0.000 OA
ENDROOT
BRANCH   4  10
ATOM     10  C   UNL     1       1.939   7.099  19.607  0.00  0.00    +0.000 A 
ATOM     11  C   UNL     1       2.142   7.564  18.304  0.00  0.00    +0.000 A 
ATOM     12  C   UNL     1       1.934   8.901  17.971  0.00  0.00    +0.000 A 
ATOM     13  C   UNL     1       1.503   9.786  18.947  0.00  0.00    +0.000 A 
ATOM     14  C   UNL     1       1.264   9.335  20.248  0.00  0.00    +0.000 A 
ATOM     15  C   UNL     1       1.492   8.000  20.580  0.00  0.00    +0.000 A 
ATOM     16  O   UNL     1       0.814  10.151  21.255  0.00  0.00    +0.000 OA
ATOM     17  C   UNL     1       0.276  11.371  20.734  0.00  0.00    +0.000 C 
ATOM     18  C   UNL     1       1.197  11.962  19.678  0.00  0.00    +0.000 C 
ATOM     19  O   UNL     1       1.317  11.085  18.554  0.00  0.00    +0.000 OA
ENDBRANCH   4  10
BRANCH   1  20
ATOM     20  C   UNL     1       6.866   4.737  18.466  0.00  0.00    +0.000 C 
BRANCH  20  21
ATOM     21  N   UNL     1       6.548   4.435  17.048  0.00  0.00    +0.000 NA
ATOM     22  H   UNL     1       7.113   3.660  16.692  0.00  0.00    +0.000 HD
BRANCH  21  24
ATOM     23  C   UNL     1       7.387   7.009  17.072  0.00  0.00    +0.000 C 
ATOM     24  S   UNL     1       6.735   5.751  15.993  0.00  0.00    +0.000 S 
ATOM     25  O   UNL     1       5.427   6.137  15.557  0.00  0.00    +0.000 OA
ATOM     26  O   UNL     1       7.772   5.367  15.043  0.00  0.00    +0.000 OA
ENDBRANCH  21  24
ENDBRANCH  20  21
ENDBRANCH   1  20
TORSDOF 4
ENDMDL
MODEL 5
REMARK VINA RESULT:      -7.6      2.821      7.303
REMARK  Name = 
REMARK  5 active torsions:
REMARK  status: ('A' for Active; 'I' for Inactive)
REMARK    1  A    between atoms: C_1  and  S_2
REMARK    2  A    between atoms: S_2  and  N_5
REMARK    3  A    between atoms: N_5  and  C_6
REMARK    4  A    between atoms: C_6  and  C_7
REMARK    5  A    between atoms: C_10  and  C_11
REMARK                            x       y       z     vdW  Elec       q    Type
REMARK                         _______ _______ _______ _____ _____    ______ ____
ROOT
ATOM      1  C   UNL     1       4.500   3.615  17.614  0.00  0.00    +0.000 C 
ATOM      2  C   UNL     1       3.544   4.762  17.917  0.00  0.00    +0.000 C 
ATOM      3  N   UNL     1       2.965   4.616  19.237  0.00  0.00    +0.000 N 
ATOM      4  C   UNL     1       2.315   5.557  19.994  0.00  0.00    +0.000 A 
ATOM      5  C   UNL     1       1.999   4.868  21.152  0.00  0.00    +0.000 A 
ATOM      6  N   UNL     1       2.425   3.564  21.100  0.00  0.00    +0.000 NA
ATOM      7  C   UNL     1       2.998   3.430  19.925  0.00  0.00    +0.000 A 
ATOM      8  C   UNL     1       3.671   2.224  19.366  0.00  0.00    +0.000 C 
ATOM      9  O   UNL     1       3.868   2.368  17.945  0.00  0.00    +0.000 OA
ENDROOT
BRANCH   4  10
ATOM     10  C   UNL     1       2.056   6.941  19.610  0.00  0.00    +0.000 A 
ATOM     11  C   UNL     1       2.302   7.386  18.307  0.00  0.00    +0.000 A 
ATOM     12  C   UNL     1       2.058   8.706  17.933  0.00  0.00    +0.000 A 
ATOM     13  C   UNL     1       1.548   9.594  18.867  0.00  0.00    +0.000 A 
ATOM     14  C   UNL     1       1.267   9.162  20.167  0.00  0.00    +0.000 A 
ATOM     15  C   UNL     1       1.530   7.845  20.540  0.00  0.00    +0.000 A 
ATOM     16  O   UNL     1       0.740   9.981  21.133  0.00  0.00    +0.000 OA
ATOM     17  C   UNL     1       0.180  11.168  20.559  0.00  0.00    +0.000 C 
ATOM     18  C   UNL     1       1.125  11.771  19.533  0.00  0.00    +0.000 C 
ATOM     19  O   UNL     1       1.331  10.876  18.437  0.00  0.00    +0.000 OA
ENDBRANCH   4  10
BRANCH   1  20
ATOM     20  C   UNL     1       4.866   3.603  16.129  0.00  0.00    +0.000 C 
BRANCH  20  21
ATOM     21  N   UNL     1       6.317   3.857  15.942  0.00  0.00    +0.000 NA
ATOM     22  H   UNL     1       6.858   3.571  16.762  0.00  0.00    +0.000 HD
BRANCH  21  24
ATOM     23  C   UNL     1       7.223   6.089  17.178  0.00  0.00    +0.000 C 
ATOM     24  S   UNL     1       6.705   5.471  15.590  0.00  0.00    +0.000 S 
ATOM     25  O   UNL     1       5.491   6.125  15.203  0.00  0.00    +0.000 OA
ATOM     26  O   UNL     1       7.862   5.427  14.705  0.00  0.00    +0.000 OA
ENDBRANCH  21  24
ENDBRANCH  20  21
ENDBRANCH   1  20
TORSDOF 4
ENDMDL
MODEL 6
REMARK VINA RESULT:      -7.6      1.653      1.781
REMARK  Name = 
REMARK  5 active torsions:
REMARK  status: ('A' for Active; 'I' for Inactive)
REMARK    1  A    between atoms: C_1  and  S_2
REMARK    2  A    between atoms: S_2  and  N_5
REMARK    3  A    between atoms: N_5  and  C_6
REMARK    4  A    between atoms: C_6  and  C_7
REMARK    5  A    between atoms: C_10  and  C_11
REMARK                            x       y       z     vdW  Elec       q    Type
REMARK                         _______ _______ _______ _____ _____    ______ ____
ROOT
ATOM      1  C   UNL     1       1.931   6.360  19.674  0.00  0.00    +0.000 C 
ATOM      2  C   UNL     1       3.212   5.872  19.008  0.00  0.00    +0.000 C 
ATOM      3  N   UNL     1       3.300   4.428  19.056  0.00  0.00    +0.000 N 
ATOM      4  C   UNL     1       4.112   3.596  18.327  0.00  0.00    +0.000 A 
ATOM      5  C   UNL     1       3.759   2.335  18.775  0.00  0.00    +0.000 A 
ATOM      6  N   UNL     1       2.785   2.394  19.741  0.00  0.00    +0.000 NA
ATOM      7  C   UNL     1       2.531   3.673  19.904  0.00  0.00    +0.000 A 
ATOM      8  C   UNL     1       1.524   4.299  20.805  0.00  0.00    +0.000 C 
ATOM      9  O   UNL     1       1.779   5.710  20.947  0.00  0.00    +0.000 OA
ENDROOT
BRANCH   4  10
ATOM     10  C   UNL     1       5.092   4.010  17.327  0.00  0.00    +0.000 A 
ATOM     11  C   UNL     1       6.295   4.616  17.703  0.00  0.00    +0.000 A 
ATOM     12  C   UNL     1       7.233   5.015  16.754  0.00  0.00    +0.000 A 
ATOM     13  C   UNL     1       6.978   4.794  15.410  0.00  0.00    +0.000 A 
ATOM     14  C   UNL     1       5.795   4.163  15.014  0.00  0.00    +0.000 A 
ATOM     15  C   UNL     1       4.851   3.782  15.967  0.00  0.00    +0.000 A 
ATOM     16  O   UNL     1       5.490   3.892  13.704  0.00  0.00    +0.000 OA
ATOM     17  C   UNL     1       6.651   3.983  12.871  0.00  0.00    +0.000 C 
ATOM     18  C   UNL     1       7.448   5.239  13.186  0.00  0.00    +0.000 C 
ATOM     19  O   UNL     1       7.941   5.209  14.529  0.00  0.00    +0.000 OA
ENDBRANCH   4  10
BRANCH   1  20
ATOM     20  C   UNL     1       1.986   7.872  19.895  0.00  0.00    +0.000 C 
BRANCH  20  21
ATOM     21  N   UNL     1       1.958   8.595  18.599  0.00  0.00    +0.000 NA
ATOM     22  H   UNL     1       2.902   8.798  18.260  0.00  0.00    +0.000 HD
BRANCH  21  24
ATOM     23  C   UNL     1       0.738  10.247  20.363  0.00  0.00    +0.000 C 
ATOM     24  S   UNL     1       1.085  10.050  18.628  0.00  0.00    +0.000 S 
ATOM     25  O   UNL     1      -0.142   9.823  17.925  0.00  0.00    +0.000 OA
ATOM     26  O   UNL     1       2.018  11.092  18.216  0.00  0.00    +0.000 OA
ENDBRANCH  21  24
ENDBRANCH  20  21
ENDBRANCH   1  20
TORSDOF 4
ENDMDL
MODEL 7
REMARK VINA RESULT:      -7.6      3.109      7.093
REMARK  Name = 
REMARK  5 active torsions:
REMARK  status: ('A' for Active; 'I' for Inactive)
REMARK    1  A    between atoms: C_1  and  S_2
REMARK    2  A    between atoms: S_2  and  N_5
REMARK    3  A    between atoms: N_5  and  C_6
REMARK    4  A    between atoms: C_6  and  C_7
REMARK    5  A    between atoms: C_10  and  C_11
REMARK                            x       y       z     vdW  Elec       q    Type
REMARK                         _______ _______ _______ _____ _____    ______ ____
ROOT
ATOM      1  C   UNL     1       2.050   3.382  17.839  0.00  0.00    +0.000 C 
ATOM      2  C   UNL     1       2.038   4.788  18.428  0.00  0.00    +0.000 C 
ATOM      3  N   UNL     1       3.089   5.598  17.848  0.00  0.00    +0.000 N 
ATOM      4  C   UNL     1       3.229   6.963  17.873  0.00  0.00    +0.000 A 
ATOM      5  C   UNL     1       4.395   7.175  17.157  0.00  0.00    +0.000 A 
ATOM      6  N   UNL     1       4.948   5.995  16.726  0.00  0.00    +0.000 NA
ATOM      7  C   UNL     1       4.146   5.051  17.167  0.00  0.00    +0.000 A 
ATOM      8  C   UNL     1       4.254   3.582  16.947  0.00  0.00    +0.000 C 
ATOM      9  O   UNL     1       3.393   2.870  17.857  0.00  0.00    +0.000 OA
ENDROOT
BRANCH   4  10
ATOM     10  C   UNL     1       2.322   7.908  18.516  0.00  0.00    +0.000 A 
ATOM     11  C   UNL     1       1.678   8.906  17.777  0.00  0.00    +0.000 A 
ATOM     12  C   UNL     1       0.813   9.813  18.385  0.00  0.00    +0.000 A 
ATOM     13  C   UNL     1       0.572   9.717  19.746  0.00  0.00    +0.000 A 
ATOM     14  C   UNL     1       1.182   8.708  20.497  0.00  0.00    +0.000 A 
ATOM     15  C   UNL     1       2.061   7.814  19.888  0.00  0.00    +0.000 A 
ATOM     16  O   UNL     1       0.969   8.541  21.843  0.00  0.00    +0.000 OA
ATOM     17  C   UNL     1      -0.196   9.251  22.277  0.00  0.00    +0.000 C 
ATOM     18  C   UNL     1      -0.213  10.661  21.710  0.00  0.00    +0.000 C 
ATOM     19  O   UNL     1      -0.289  10.638  20.281  0.00  0.00    +0.000 OA
ENDBRANCH   4  10
BRANCH   1  20
ATOM     20  C   UNL     1       1.156   2.452  18.660  0.00  0.00    +0.000 C 
BRANCH  20  21
ATOM     21  N   UNL     1       0.752   3.098  19.934  0.00  0.00    +0.000 NA
ATOM     22  H   UNL     1       0.634   4.109  19.822  0.00  0.00    +0.000 HD
BRANCH  21  24
ATOM     23  C   UNL     1       2.396   4.479  21.583  0.00  0.00    +0.000 C 
ATOM     24  S   UNL     1       1.822   2.832  21.224  0.00  0.00    +0.000 S 
ATOM     25  O   UNL     1       2.913   2.053  20.718  0.00  0.00    +0.000 OA
ATOM     26  O   UNL     1       1.007   2.367  22.339  0.00  0.00    +0.000 OA
ENDBRANCH  21  24
ENDBRANCH  20  21
ENDBRANCH   1  20
TORSDOF 4
ENDMDL
MODEL 8
REMARK VINA RESULT:      -7.5      0.905      1.030
REMARK  Name = 
REMARK  5 active torsions:
REMARK  status: ('A' for Active; 'I' for Inactive)
REMARK    1  A    between atoms: C_1  and  S_2
REMARK    2  A    between atoms: S_2  and  N_5
REMARK    3  A    between atoms: N_5  and  C_6
REMARK    4  A    between atoms: C_6  and  C_7
REMARK    5  A    between atoms: C_10  and  C_11
REMARK                            x       y       z     vdW  Elec       q    Type
REMARK                         _______ _______ _______ _____ _____    ______ ____
ROOT
ATOM      1  C   UNL     1       1.823   6.041  19.911  0.00  0.00    +0.000 C 
ATOM      2  C   UNL     1       3.086   5.580  19.195  0.00  0.00    +0.000 C 
ATOM      3  N   UNL     1       3.084   4.142  19.019  0.00  0.00    +0.000 N 
ATOM      4  C   UNL     1       3.860   3.382  18.181  0.00  0.00    +0.000 A 
ATOM      5  C   UNL     1       3.419   2.092  18.424  0.00  0.00    +0.000 A 
ATOM      6  N   UNL     1       2.429   2.065  19.375  0.00  0.00    +0.000 NA
ATOM      7  C   UNL     1       2.250   3.318  19.730  0.00  0.00    +0.000 A 
ATOM      8  C   UNL     1       1.263   3.861  20.704  0.00  0.00    +0.000 C 
ATOM      9  O   UNL     1       1.602   5.215  21.066  0.00  0.00    +0.000 OA
ENDROOT
BRANCH   4  10
ATOM     10  C   UNL     1       4.886   3.881  17.271  0.00  0.00    +0.000 A 
ATOM     11  C   UNL     1       6.050   4.485  17.758  0.00  0.00    +0.000 A 
ATOM     12  C   UNL     1       7.033   4.964  16.894  0.00  0.00    +0.000 A 
ATOM     13  C   UNL     1       6.862   4.827  15.526  0.00  0.00    +0.000 A 
ATOM     14  C   UNL     1       5.721   4.199  15.020  0.00  0.00    +0.000 A 
ATOM     15  C   UNL     1       4.732   3.738  15.887  0.00  0.00    +0.000 A 
ATOM     16  O   UNL     1       5.500   4.010  13.679  0.00  0.00    +0.000 OA
ATOM     17  C   UNL     1       6.705   4.178  12.925  0.00  0.00    +0.000 C 
ATOM     18  C   UNL     1       7.451   5.426  13.367  0.00  0.00    +0.000 C 
ATOM     19  O   UNL     1       7.865   5.319  14.733  0.00  0.00    +0.000 OA
ENDBRANCH   4  10
BRANCH   1  20
ATOM     20  C   UNL     1       1.966   7.494  20.364  0.00  0.00    +0.000 C 
BRANCH  20  21
ATOM     21  N   UNL     1       0.826   7.890  21.230  0.00  0.00    +0.000 NA
ATOM     22  H   UNL     1      -0.068   7.797  20.741  0.00  0.00    +0.000 HD
BRANCH  21  24
ATOM     23  C   UNL     1      -0.583   9.612  22.773  0.00  0.00    +0.000 C 
ATOM     24  S   UNL     1       0.930   9.469  21.844  0.00  0.00    +0.000 S 
ATOM     25  O   UNL     1       0.883  10.363  20.727  0.00  0.00    +0.000 OA
ATOM     26  O   UNL     1       2.052   9.470  22.775  0.00  0.00    +0.000 OA
ENDBRANCH  21  24
ENDBRANCH  20  21
ENDBRANCH   1  20
TORSDOF 4
ENDMDL
MODEL 9
REMARK VINA RESULT:      -7.5      2.860      7.964
REMARK  Name = 
REMARK  5 active torsions:
REMARK  status: ('A' for Active; 'I' for Inactive)
REMARK    1  A    between atoms: C_1  and  S_2
REMARK    2  A    between atoms: S_2  and  N_5
REMARK    3  A    between atoms: N_5  and  C_6
REMARK    4  A    between atoms: C_6  and  C_7
REMARK    5  A    between atoms: C_10  and  C_11
REMARK                            x       y       z     vdW  Elec       q    Type
REMARK                         _______ _______ _______ _____ _____    ______ ____
ROOT
ATOM      1  C   UNL     1       5.790   5.695  18.584  0.00  0.00    +0.000 C 
ATOM      2  C   UNL     1       4.506   6.514  18.633  0.00  0.00    +0.000 C 
ATOM      3  N   UNL     1       3.477   5.816  19.376  0.00  0.00    +0.000 N 
ATOM      4  C   UNL     1       2.313   6.317  19.901  0.00  0.00    +0.000 A 
ATOM      5  C   UNL     1       1.738   5.214  20.508  0.00  0.00    +0.000 A 
ATOM      6  N   UNL     1       2.509   4.088  20.350  0.00  0.00    +0.000 NA
ATOM      7  C   UNL     1       3.553   4.474  19.650  0.00  0.00    +0.000 A 
ATOM      8  C   UNL     1       4.726   3.659  19.231  0.00  0.00    +0.000 C 
ATOM      9  O   UNL     1       5.478   4.343  18.208  0.00  0.00    +0.000 OA
ENDROOT
BRANCH   4  10
ATOM     10  C   UNL     1       1.853   7.699  19.809  0.00  0.00    +0.000 A 
ATOM     11  C   UNL     1       1.802   8.362  18.578  0.00  0.00    +0.000 A 
ATOM     12  C   UNL     1       1.365   9.681  18.483  0.00  0.00    +0.000 A 
ATOM     13  C   UNL     1       0.958  10.347  19.629  0.00  0.00    +0.000 A 
ATOM     14  C   UNL     1       0.973   9.693  20.864  0.00  0.00    +0.000 A 
ATOM     15  C   UNL     1       1.428   8.379  20.956  0.00  0.00    +0.000 A 
ATOM     16  O   UNL     1       0.562  10.285  22.032  0.00  0.00    +0.000 OA
ATOM     17  C   UNL     1      -0.209  11.464  21.774  0.00  0.00    +0.000 C 
ATOM     18  C   UNL     1       0.461  12.329  20.719  0.00  0.00    +0.000 C 
ATOM     19  O   UNL     1       0.540  11.642  19.467  0.00  0.00    +0.000 OA
ENDBRANCH   4  10
BRANCH   1  20
ATOM     20  C   UNL     1       6.759   6.281  17.556  0.00  0.00    +0.000 C 
BRANCH  20  21
ATOM     21  N   UNL     1       6.272   6.037  16.174  0.00  0.00    +0.000 NA
ATOM     22  H   UNL     1       5.289   5.750  16.167  0.00  0.00    +0.000 HD
BRANCH  21  24
ATOM     23  C   UNL     1       5.888   3.837  14.644  0.00  0.00    +0.000 C 
ATOM     24  S   UNL     1       7.166   4.884  15.310  0.00  0.00    +0.000 S 
ATOM     25  O   UNL     1       7.935   4.140  16.263  0.00  0.00    +0.000 OA
ATOM     26  O   UNL     1       7.802   5.601  14.212  0.00  0.00    +0.000 OA
ENDBRANCH  21  24
ENDBRANCH  20  21
ENDBRANCH   1  20
TORSDOF 4
ENDMDL
