MODEL 1
REMARK VINA RESULT:      -6.7      0.000      0.000
REMARK  Name = 
REMARK  4 active torsions:
REMARK  status: ('A' for Active; 'I' for Inactive)
REMARK    1  A    between atoms: C_2  and  C_3
REMARK    2  A    between atoms: C_6  and  C_7
REMARK    3  A    between atoms: N_15  and  S_16
REMARK    4  A    between atoms: S_16  and  C_19
REMARK                            x       y       z     vdW  Elec       q    Type
REMARK                         _______ _______ _______ _____ _____    ______ ____
ROOT
ATOM      1  O   UNL     1       1.941   4.034  17.567  0.00  0.00    +0.000 OA
ATOM      2  C   UNL     1       2.786   4.899  17.770  0.00  0.00    +0.000 C 
ATOM      3  N   UNL     1       4.063   4.793  17.190  0.00  0.00    +0.000 N 
ATOM      4  C   UNL     1       5.159   5.757  17.380  0.00  0.00    +0.000 C 
ATOM      5  C   UNL     1       6.563   5.183  17.170  0.00  0.00    +0.000 C 
ATOM      6  N   UNL     1       6.659   4.395  15.911  0.00  0.00    +0.000 NA
ATOM      7  C   UNL     1       5.642   3.298  15.938  0.00  0.00    +0.000 C 
ATOM      8  C   UNL     1       4.216   3.848  16.067  0.00  0.00    +0.000 C 
ENDROOT
BRANCH   2   9
ATOM      9  C   UNL     1       2.492   6.047  18.598  0.00  0.00    +0.000 A 
ATOM     10  N   UNL     1       2.360   7.332  18.143  0.00  0.00    +0.000 N 
ATOM     11  N   UNL     1       2.133   8.242  19.089  0.00  0.00    +0.000 NA
ATOM     12  C   UNL     1       1.924   7.500  20.181  0.00  0.00    +0.000 A 
ATOM     13  C   UNL     1       2.144   6.125  19.935  0.00  0.00    +0.000 A 
ATOM     14 CL   UNL     1       1.998   4.863  21.062  0.00  0.00    +0.000 Cl
ATOM     15  H   UNL     1       2.433   7.667  17.192  0.00  0.00    +0.000 HD
BRANCH  12  16
ATOM     16  C   UNL     1       1.462   8.126  21.490  0.00  0.00    +0.000 C 
ATOM     17  C   UNL     1       1.022   9.578  21.494  0.00  0.00    +0.000 C 
ATOM     18  C   UNL     1      -0.007   8.505  21.580  0.00  0.00    +0.000 C 
ENDBRANCH  12  16
ENDBRANCH   2   9
BRANCH   6  19
ATOM     19  S   UNL     1       6.737   5.278  14.451  0.00  0.00    +0.000 S 
ATOM     20  O   UNL     1       5.695   6.282  14.484  0.00  0.00    +0.000 OA
ATOM     21  O   UNL     1       8.114   5.645  14.217  0.00  0.00    +0.000 OA
BRANCH  19  22
ATOM     22  C   UNL     1       6.272   4.067  13.239  0.00  0.00    +0.000 A 
ATOM     23  C   UNL     1       4.932   3.985  12.849  0.00  0.00    +0.000 A 
ATOM     24  C   UNL     1       4.552   3.043  11.895  0.00  0.00    +0.000 A 
ATOM     25  C   UNL     1       5.506   2.193  11.333  0.00  0.00    +0.000 A 
ATOM     26  C   UNL     1       6.846   2.282  11.721  0.00  0.00    +0.000 A 
ATOM     27  C   UNL     1       7.235   3.221  12.675  0.00  0.00    +0.000 A 
ENDBRANCH  19  22
ENDBRANCH   6  19
TORSDOF 4
ENDMDL
MODEL 2
REMARK VINA RESULT:      -6.7      3.242      4.530
REMARK  Name = 
REMARK  4 active torsions:
REMARK  status: ('A' for Active; 'I' for Inactive)
REMARK    1  A    between atoms: C_2  and  C_3
REMARK    2  A    between atoms: C_6  and  C_7
REMARK    3  A    between atoms: N_15  and  S_16
REMARK    4  A    between atoms: S_16  and  C_19
REMARK                            x       y       z     vdW  Elec       q    Type
REMARK                         _______ _______ _______ _____ _____    ______ ____
ROOT
ATOM      1  O   UNL     1       1.667   8.998  17.761  0.00  0.00    +0.000 OA
ATOM      2  C   UNL     1       1.699   8.390  18.826  0.00  0.00    +0.000 C 
ATOM      3  N   UNL     1       2.160   7.061  18.870  0.00  0.00    +0.000 N 
ATOM      4  C   UNL     1       2.224   6.230  20.083  0.00  0.00    +0.000 C 
ATOM      5  C   UNL     1       2.184   4.721  19.829  0.00  0.00    +0.000 C 
ATOM      6  N   UNL     1       3.136   4.310  18.762  0.00  0.00    +0.000 NA
ATOM      7  C   UNL     1       2.822   5.062  17.506  0.00  0.00    +0.000 C 
ATOM      8  C   UNL     1       2.932   6.579  17.709  0.00  0.00    +0.000 C 
ENDROOT
BRANCH   2   9
ATOM      9  C   UNL     1       1.277   9.020  20.056  0.00  0.00    +0.000 A 
ATOM     10  N   UNL     1       1.781   8.738  21.299  0.00  0.00    +0.000 N 
ATOM     11  N   UNL     1       1.211   9.407  22.301  0.00  0.00    +0.000 NA
ATOM     12  C   UNL     1       0.435  10.294  21.671  0.00  0.00    +0.000 A 
ATOM     13  C   UNL     1       0.430  10.093  20.271  0.00  0.00    +0.000 A 
ATOM     14 CL   UNL     1      -0.437  10.999  19.125  0.00  0.00    +0.000 Cl
ATOM     15  H   UNL     1       2.508   8.079  21.541  0.00  0.00    +0.000 HD
BRANCH  12  16
ATOM     16  C   UNL     1      -0.293  11.394  22.433  0.00  0.00    +0.000 C 
ATOM     17  C   UNL     1      -1.686  11.796  21.987  0.00  0.00    +0.000 C 
ATOM     18  C   UNL     1      -1.524  10.975  23.219  0.00  0.00    +0.000 C 
ENDBRANCH  12  16
ENDBRANCH   2   9
BRANCH   6  19
ATOM     19  S   UNL     1       4.791   4.256  19.181  0.00  0.00    +0.000 S 
ATOM     20  O   UNL     1       5.090   5.439  19.959  0.00  0.00    +0.000 OA
ATOM     21  O   UNL     1       5.085   2.939  19.693  0.00  0.00    +0.000 OA
BRANCH  19  22
ATOM     22  C   UNL     1       5.596   4.435  17.608  0.00  0.00    +0.000 A 
ATOM     23  C   UNL     1       6.528   5.462  17.443  0.00  0.00    +0.000 A 
ATOM     24  C   UNL     1       7.173   5.612  16.216  0.00  0.00    +0.000 A 
ATOM     25  C   UNL     1       6.889   4.737  15.166  0.00  0.00    +0.000 A 
ATOM     26  C   UNL     1       5.960   3.707  15.338  0.00  0.00    +0.000 A 
ATOM     27  C   UNL     1       5.311   3.550  16.562  0.00  0.00    +0.000 A 
ENDBRANCH  19  22
ENDBRANCH   6  19
TORSDOF 4
ENDMDL
MODEL 3
REMARK VINA RESULT:      -6.7      3.215      4.613
REMARK  Name = 
REMARK  4 active torsions:
REMARK  status: ('A' for Active; 'I' for Inactive)
REMARK    1  A    between atoms: C_2  and  C_3
REMARK    2  A    between atoms: C_6  and  C_7
REMARK    3  A    between atoms: N_15  and  S_16
REMARK    4  A    between atoms: S_16  and  C_19
REMARK                            x       y       z     vdW  Elec       q    Type
REMARK                         _______ _______ _______ _____ _____    ______ ____
ROOT
ATOM      1  O   UNL     1       1.690   9.333  18.177  0.00  0.00    +0.000 OA
ATOM      2  C   UNL     1       1.651   8.591  19.153  0.00  0.00    +0.000 C 
ATOM      3  N   UNL     1       2.096   7.260  19.050  0.00  0.00    +0.000 N 
ATOM      4  C   UNL     1       2.077   6.277  20.145  0.00  0.00    +0.000 C 
ATOM      5  C   UNL     1       2.039   4.814  19.694  0.00  0.00    +0.000 C 
ATOM      6  N   UNL     1       3.052   4.531  18.641  0.00  0.00    +0.000 NA
ATOM      7  C   UNL     1       2.823   5.445  17.478  0.00  0.00    +0.000 C 
ATOM      8  C   UNL     1       2.934   6.920  17.885  0.00  0.00    +0.000 C 
ENDROOT
BRANCH   2   9
ATOM      9  C   UNL     1       1.158   9.062  20.427  0.00  0.00    +0.000 A 
ATOM     10  N   UNL     1       1.786   8.879  21.631  0.00  0.00    +0.000 N 
ATOM     11  N   UNL     1       1.128   9.357  22.686  0.00  0.00    +0.000 NA
ATOM     12  C   UNL     1       0.124  10.044  22.133  0.00  0.00    +0.000 A 
ATOM     13  C   UNL     1       0.088   9.887  20.727  0.00  0.00    +0.000 A 
ATOM     14 CL   UNL     1      -1.039  10.583  19.664  0.00  0.00    +0.000 Cl
ATOM     15  H   UNL     1       2.665   8.412  21.810  0.00  0.00    +0.000 HD
BRANCH  12  16
ATOM     16  C   UNL     1      -0.806  10.908  22.974  0.00  0.00    +0.000 C 
ATOM     17  C   UNL     1      -0.807  12.410  22.758  0.00  0.00    +0.000 C 
ATOM     18  C   UNL     1      -1.942  11.598  22.239  0.00  0.00    +0.000 C 
ENDBRANCH  12  16
ENDBRANCH   2   9
BRANCH   6  19
ATOM     19  S   UNL     1       4.677   4.395  19.149  0.00  0.00    +0.000 S 
ATOM     20  O   UNL     1       4.991   5.559  19.949  0.00  0.00    +0.000 OA
ATOM     21  O   UNL     1       4.879   3.062  19.667  0.00  0.00    +0.000 OA
BRANCH  19  22
ATOM     22  C   UNL     1       5.574   4.539  17.623  0.00  0.00    +0.000 A 
ATOM     23  C   UNL     1       5.283   3.651  16.585  0.00  0.00    +0.000 A 
ATOM     24  C   UNL     1       5.975   3.754  15.380  0.00  0.00    +0.000 A 
ATOM     25  C   UNL     1       6.947   4.743  15.214  0.00  0.00    +0.000 A 
ATOM     26  C   UNL     1       7.230   5.633  16.252  0.00  0.00    +0.000 A 
ATOM     27  C   UNL     1       6.543   5.537  17.462  0.00  0.00    +0.000 A 
ENDBRANCH  19  22
ENDBRANCH   6  19
TORSDOF 4
ENDMDL
MODEL 4
REMARK VINA RESULT:      -6.7      5.369      9.740
REMARK  Name = 
REMARK  4 active torsions:
REMARK  status: ('A' for Active; 'I' for Inactive)
REMARK    1  A    between atoms: C_2  and  C_3
REMARK    2  A    between atoms: C_6  and  C_7
REMARK    3  A    between atoms: N_15  and  S_16
REMARK    4  A    between atoms: S_16  and  C_19
REMARK                            x       y       z     vdW  Elec       q    Type
REMARK                         _______ _______ _______ _____ _____    ______ ____
ROOT
ATOM      1  O   UNL     1       3.191   7.653  17.527  0.00  0.00    +0.000 OA
ATOM      2  C   UNL     1       2.495   7.623  18.537  0.00  0.00    +0.000 C 
ATOM      3  N   UNL     1       1.860   8.792  18.995  0.00  0.00    +0.000 N 
ATOM      4  C   UNL     1       1.023   8.880  20.202  0.00  0.00    +0.000 C 
ATOM      5  C   UNL     1       0.930  10.278  20.819  0.00  0.00    +0.000 C 
ATOM      6  N   UNL     1       0.633  11.319  19.798  0.00  0.00    +0.000 NA
ATOM      7  C   UNL     1       1.688  11.282  18.737  0.00  0.00    +0.000 C 
ATOM      8  C   UNL     1       1.750   9.915  18.044  0.00  0.00    +0.000 C 
ENDROOT
BRANCH   2   9
ATOM      9  C   UNL     1       2.304   6.395  19.274  0.00  0.00    +0.000 A 
ATOM     10  N   UNL     1       2.451   6.258  20.629  0.00  0.00    +0.000 N 
ATOM     11  N   UNL     1       2.271   5.022  21.092  0.00  0.00    +0.000 NA
ATOM     12  C   UNL     1       1.806   4.363  20.026  0.00  0.00    +0.000 A 
ATOM     13  C   UNL     1       1.815   5.167  18.862  0.00  0.00    +0.000 A 
ATOM     14 CL   UNL     1       1.317   4.698  17.308  0.00  0.00    +0.000 Cl
ATOM     15  H   UNL     1       2.695   6.970  21.303  0.00  0.00    +0.000 HD
BRANCH  12  16
ATOM     16  C   UNL     1       1.302   2.930  20.135  0.00  0.00    +0.000 C 
ATOM     17  C   UNL     1       0.761   2.246  18.893  0.00  0.00    +0.000 C 
ATOM     18  C   UNL     1       2.108   1.869  19.405  0.00  0.00    +0.000 C 
ENDBRANCH  12  16
ENDBRANCH   2   9
BRANCH   6  19
ATOM     19  S   UNL     1      -0.973  11.401  19.222  0.00  0.00    +0.000 S 
ATOM     20  O   UNL     1      -1.003  12.341  18.123  0.00  0.00    +0.000 OA
ATOM     21  O   UNL     1      -1.465  10.053  19.060  0.00  0.00    +0.000 OA
BRANCH  19  22
ATOM     22  C   UNL     1      -1.836  12.146  20.584  0.00  0.00    +0.000 A 
ATOM     23  C   UNL     1      -1.555  11.705  21.880  0.00  0.00    +0.000 A 
ATOM     24  C   UNL     1      -2.220  12.283  22.960  0.00  0.00    +0.000 A 
ATOM     25  C   UNL     1      -3.154  13.297  22.744  0.00  0.00    +0.000 A 
ATOM     26  C   UNL     1      -3.427  13.739  21.447  0.00  0.00    +0.000 A 
ATOM     27  C   UNL     1      -2.768  13.166  20.361  0.00  0.00    +0.000 A 
ENDBRANCH  19  22
ENDBRANCH   6  19
TORSDOF 4
ENDMDL
MODEL 5
REMARK VINA RESULT:      -6.6      4.390      9.609
REMARK  Name = 
REMARK  4 active torsions:
REMARK  status: ('A' for Active; 'I' for Inactive)
REMARK    1  A    between atoms: C_2  and  C_3
REMARK    2  A    between atoms: C_6  and  C_7
REMARK    3  A    between atoms: N_15  and  S_16
REMARK    4  A    between atoms: S_16  and  C_19
REMARK                            x       y       z     vdW  Elec       q    Type
REMARK                         _______ _______ _______ _____ _____    ______ ____
ROOT
ATOM      1  O   UNL     1       2.238   6.215  20.475  0.00  0.00    +0.000 OA
ATOM      2  C   UNL     1       2.352   6.938  19.490  0.00  0.00    +0.000 C 
ATOM      3  N   UNL     1       1.664   8.163  19.426  0.00  0.00    +0.000 N 
ATOM      4  C   UNL     1       1.709   9.098  18.291  0.00  0.00    +0.000 C 
ATOM      5  C   UNL     1       0.494  10.022  18.171  0.00  0.00    +0.000 C 
ATOM      6  N   UNL     1       0.150  10.661  19.470  0.00  0.00    +0.000 NA
ATOM      7  C   UNL     1      -0.098   9.597  20.492  0.00  0.00    +0.000 C 
ATOM      8  C   UNL     1       1.133   8.703  20.693  0.00  0.00    +0.000 C 
ENDROOT
BRANCH   2   9
ATOM      9  C   UNL     1       3.197   6.557  18.381  0.00  0.00    +0.000 A 
ATOM     10  N   UNL     1       4.044   7.400  17.710  0.00  0.00    +0.000 N 
ATOM     11  N   UNL     1       4.695   6.846  16.688  0.00  0.00    +0.000 NA
ATOM     12  C   UNL     1       4.404   5.548  16.811  0.00  0.00    +0.000 A 
ATOM     13  C   UNL     1       3.467   5.310  17.844  0.00  0.00    +0.000 A 
ATOM     14 CL   UNL     1       2.834   3.804  18.305  0.00  0.00    +0.000 Cl
ATOM     15  H   UNL     1       4.213   8.381  17.886  0.00  0.00    +0.000 HD
BRANCH  12  16
ATOM     16  C   UNL     1       5.076   4.498  15.936  0.00  0.00    +0.000 C 
ATOM     17  C   UNL     1       6.141   4.938  14.949  0.00  0.00    +0.000 C 
ATOM     18  C   UNL     1       6.551   4.238  16.198  0.00  0.00    +0.000 C 
ENDBRANCH  12  16
ENDBRANCH   2   9
BRANCH   6  19
ATOM     19  S   UNL     1       1.151  11.946  19.988  0.00  0.00    +0.000 S 
ATOM     20  O   UNL     1       1.590  11.651  21.334  0.00  0.00    +0.000 OA
ATOM     21  O   UNL     1       2.105  12.226  18.941  0.00  0.00    +0.000 OA
BRANCH  19  22
ATOM     22  C   UNL     1       0.016  13.308  20.083  0.00  0.00    +0.000 A 
ATOM     23  C   UNL     1       0.343  14.503  19.437  0.00  0.00    +0.000 A 
ATOM     24  C   UNL     1      -0.540  15.579  19.499  0.00  0.00    +0.000 A 
ATOM     25  C   UNL     1      -1.743  15.458  20.197  0.00  0.00    +0.000 A 
ATOM     26  C   UNL     1      -2.069  14.259  20.836  0.00  0.00    +0.000 A 
ATOM     27  C   UNL     1      -1.191  13.177  20.781  0.00  0.00    +0.000 A 
ENDBRANCH  19  22
ENDBRANCH   6  19
TORSDOF 4
ENDMDL
MODEL 6
REMARK VINA RESULT:      -6.6      4.169      9.722
REMARK  Name = 
REMARK  4 active torsions:
REMARK  status: ('A' for Active; 'I' for Inactive)
REMARK    1  A    between atoms: C_2  and  C_3
REMARK    2  A    between atoms: C_6  and  C_7
REMARK    3  A    between atoms: N_15  and  S_16
REMARK    4  A    between atoms: S_16  and  C_19
REMARK                            x       y       z     vdW  Elec       q    Type
REMARK                         _______ _______ _______ _____ _____    ______ ____
ROOT
ATOM      1  O   UNL     1       2.431   5.948  20.498  0.00  0.00    +0.000 OA
ATOM      2  C   UNL     1       2.498   6.725  19.550  0.00  0.00    +0.000 C 
ATOM      3  N   UNL     1       1.739   7.910  19.551  0.00  0.00    +0.000 N 
ATOM      4  C   UNL     1       1.724   8.902  18.465  0.00  0.00    +0.000 C 
ATOM      5  C   UNL     1       0.456   9.759  18.395  0.00  0.00    +0.000 C 
ATOM      6  N   UNL     1       0.084  10.310  19.726  0.00  0.00    +0.000 NA
ATOM      7  C   UNL     1      -0.097   9.182  20.693  0.00  0.00    +0.000 C 
ATOM      8  C   UNL     1       1.184   8.353  20.845  0.00  0.00    +0.000 C 
ENDROOT
BRANCH   2   9
ATOM      9  C   UNL     1       3.358   6.451  18.422  0.00  0.00    +0.000 A 
ATOM     10  N   UNL     1       4.362   7.271  17.979  0.00  0.00    +0.000 N 
ATOM     11  N   UNL     1       4.999   6.842  16.891  0.00  0.00    +0.000 NA
ATOM     12  C   UNL     1       4.519   5.606  16.725  0.00  0.00    +0.000 A 
ATOM     13  C   UNL     1       3.486   5.312  17.645  0.00  0.00    +0.000 A 
ATOM     14 CL   UNL     1       2.613   3.859  17.752  0.00  0.00    +0.000 Cl
ATOM     15  H   UNL     1       4.656   8.158  18.364  0.00  0.00    +0.000 HD
BRANCH  12  16
ATOM     16  C   UNL     1       5.096   4.664  15.677  0.00  0.00    +0.000 C 
ATOM     17  C   UNL     1       6.290   5.120  14.860  0.00  0.00    +0.000 C 
ATOM     18  C   UNL     1       6.489   4.119  15.946  0.00  0.00    +0.000 C 
ENDBRANCH  12  16
ENDBRANCH   2   9
BRANCH   6  19
ATOM     19  S   UNL     1       1.011  11.623  20.306  0.00  0.00    +0.000 S 
ATOM     20  O   UNL     1       1.770  11.160  21.447  0.00  0.00    +0.000 OA
ATOM     21  O   UNL     1       1.667  12.245  19.180  0.00  0.00    +0.000 OA
BRANCH  19  22
ATOM     22  C   UNL     1      -0.232  12.739  20.910  0.00  0.00    +0.000 A 
ATOM     23  C   UNL     1      -0.661  12.616  22.234  0.00  0.00    +0.000 A 
ATOM     24  C   UNL     1      -1.631  13.487  22.724  0.00  0.00    +0.000 A 
ATOM     25  C   UNL     1      -2.165  14.477  21.896  0.00  0.00    +0.000 A 
ATOM     26  C   UNL     1      -1.728  14.601  20.575  0.00  0.00    +0.000 A 
ATOM     27  C   UNL     1      -0.758  13.733  20.076  0.00  0.00    +0.000 A 
ENDBRANCH  19  22
ENDBRANCH   6  19
TORSDOF 4
ENDMDL
MODEL 7
REMARK VINA RESULT:      -6.6      5.355      9.790
REMARK  Name = 
REMARK  4 active torsions:
REMARK  status: ('A' for Active; 'I' for Inactive)
REMARK    1  A    between atoms: C_2  and  C_3
REMARK    2  A    between atoms: C_6  and  C_7
REMARK    3  A    between atoms: N_15  and  S_16
REMARK    4  A    between atoms: S_16  and  C_19
REMARK                            x       y       z     vdW  Elec       q    Type
REMARK                         _______ _______ _______ _____ _____    ______ ____
ROOT
ATOM      1  O   UNL     1       3.276   8.075  17.568  0.00  0.00    +0.000 OA
ATOM      2  C   UNL     1       2.549   8.028  18.555  0.00  0.00    +0.000 C 
ATOM      3  N   UNL     1       1.813   9.161  18.948  0.00  0.00    +0.000 N 
ATOM      4  C   UNL     1       0.929   9.226  20.122  0.00  0.00    +0.000 C 
ATOM      5  C   UNL     1       0.710  10.634  20.684  0.00  0.00    +0.000 C 
ATOM      6  N   UNL     1       0.373  11.613  19.615  0.00  0.00    +0.000 NA
ATOM      7  C   UNL     1       1.465  11.620  18.591  0.00  0.00    +0.000 C 
ATOM      8  C   UNL     1       1.653  10.238  17.952  0.00  0.00    +0.000 C 
ENDROOT
BRANCH   2   9
ATOM      9  C   UNL     1       2.424   6.815  19.330  0.00  0.00    +0.000 A 
ATOM     10  N   UNL     1       1.934   6.743  20.608  0.00  0.00    +0.000 N 
ATOM     11  N   UNL     1       1.952   5.526  21.149  0.00  0.00    +0.000 NA
ATOM     12  C   UNL     1       2.292   4.742  20.121  0.00  0.00    +0.000 A 
ATOM     13  C   UNL     1       2.607   5.492  18.965  0.00  0.00    +0.000 A 
ATOM     14 CL   UNL     1       3.097   4.871  17.462  0.00  0.00    +0.000 Cl
ATOM     15  H   UNL     1       1.586   7.498  21.183  0.00  0.00    +0.000 HD
BRANCH  12  16
ATOM     16  C   UNL     1       2.277   3.224  20.242  0.00  0.00    +0.000 C 
ATOM     17  C   UNL     1       1.423   2.583  21.321  0.00  0.00    +0.000 C 
ATOM     18  C   UNL     1       0.969   2.528  19.903  0.00  0.00    +0.000 C 
ENDBRANCH  12  16
ENDBRANCH   2   9
BRANCH   6  19
ATOM     19  S   UNL     1      -1.214  11.553  18.984  0.00  0.00    +0.000 S 
ATOM     20  O   UNL     1      -1.236  12.332  17.766  0.00  0.00    +0.000 OA
ATOM     21  O   UNL     1      -1.652  10.178  18.993  0.00  0.00    +0.000 OA
BRANCH  19  22
ATOM     22  C   UNL     1      -2.150  12.443  20.203  0.00  0.00    +0.000 A 
ATOM     23  C   UNL     1      -3.537  12.524  20.058  0.00  0.00    +0.000 A 
ATOM     24  C   UNL     1      -4.287  13.214  21.010  0.00  0.00    +0.000 A 
ATOM     25  C   UNL     1      -3.652  13.814  22.099  0.00  0.00    +0.000 A 
ATOM     26  C   UNL     1      -2.265  13.724  22.244  0.00  0.00    +0.000 A 
ATOM     27  C   UNL     1      -1.507  13.036  21.297  0.00  0.00    +0.000 A 
ENDBRANCH  19  22
ENDBRANCH   6  19
TORSDOF 4
ENDMDL
MODEL 8
REMARK VINA RESULT:      -6.5      6.329      9.667
REMARK  Name = 
REMARK  4 active torsions:
REMARK  status: ('A' for Active; 'I' for Inactive)
REMARK    1  A    between atoms: C_2  and  C_3
REMARK    2  A    between atoms: C_6  and  C_7
REMARK    3  A    between atoms: N_15  and  S_16
REMARK    4  A    between atoms: S_16  and  C_19
REMARK                            x       y       z     vdW  Elec       q    Type
REMARK                         _______ _______ _______ _____ _____    ______ ____
ROOT
ATOM      1  O   UNL     1      -1.481  14.579  21.464  0.00  0.00    +0.000 OA
ATOM      2  C   UNL     1      -2.020  13.556  21.051  0.00  0.00    +0.000 C 
ATOM      3  N   UNL     1      -1.238  12.479  20.594  0.00  0.00    +0.000 N 
ATOM      4  C   UNL     1      -1.773  11.216  20.060  0.00  0.00    +0.000 C 
ATOM      5  C   UNL     1      -0.828  10.467  19.115  0.00  0.00    +0.000 C 
ATOM      6  N   UNL     1       0.546  10.356  19.676  0.00  0.00    +0.000 NA
ATOM      7  C   UNL     1       1.072  11.726  19.967  0.00  0.00    +0.000 C 
ATOM      8  C   UNL     1       0.187  12.473  20.974  0.00  0.00    +0.000 C 
ENDROOT
BRANCH   2   9
ATOM      9  C   UNL     1      -3.459  13.428  21.032  0.00  0.00    +0.000 A 
ATOM     10  N   UNL     1      -4.252  13.623  19.932  0.00  0.00    +0.000 N 
ATOM     11  N   UNL     1      -5.560  13.497  20.153  0.00  0.00    +0.000 NA
ATOM     12  C   UNL     1      -5.612  13.020  21.400  0.00  0.00    +0.000 A 
ATOM     13  C   UNL     1      -4.333  12.965  22.000  0.00  0.00    +0.000 A 
ATOM     14 CL   UNL     1      -3.978  12.432  23.573  0.00  0.00    +0.000 Cl
ATOM     15  H   UNL     1      -3.966  13.867  18.993  0.00  0.00    +0.000 HD
BRANCH  12  16
ATOM     16  C   UNL     1      -6.927  12.565  22.021  0.00  0.00    +0.000 C 
ATOM     17  C   UNL     1      -7.117  12.706  23.519  0.00  0.00    +0.000 C 
ATOM     18  C   UNL     1      -7.814  13.652  22.604  0.00  0.00    +0.000 C 
ENDBRANCH  12  16
ENDBRANCH   2   9
BRANCH   6  19
ATOM     19  S   UNL     1       0.782   9.208  20.919  0.00  0.00    +0.000 S 
ATOM     20  O   UNL     1       1.702   9.778  21.879  0.00  0.00    +0.000 OA
ATOM     21  O   UNL     1      -0.511   8.716  21.333  0.00  0.00    +0.000 OA
BRANCH  19  22
ATOM     22  C   UNL     1       1.633   7.895  20.079  0.00  0.00    +0.000 A 
ATOM     23  C   UNL     1       1.747   6.655  20.712  0.00  0.00    +0.000 A 
ATOM     24  C   UNL     1       2.408   5.613  20.063  0.00  0.00    +0.000 A 
ATOM     25  C   UNL     1       2.945   5.810  18.790  0.00  0.00    +0.000 A 
ATOM     26  C   UNL     1       2.822   7.050  18.158  0.00  0.00    +0.000 A 
ATOM     27  C   UNL     1       2.164   8.099  18.800  0.00  0.00    +0.000 A 
ENDBRANCH  19  22
ENDBRANCH   6  19
TORSDOF 4
ENDMDL
MODEL 9
REMARK VINA RESULT:      -6.4      9.218     11.771
REMARK  Name = 
REMARK  4 active torsions:
REMARK  status: ('A' for Active; 'I' for Inactive)
REMARK    1  A    between atoms: C_2  and  C_3
REMARK    2  A    between atoms: C_6  and  C_7
REMARK    3  A    between atoms: N_15  and  S_16
REMARK    4  A    between atoms: S_16  and  C_19
REMARK                            x       y       z     vdW  Elec       q    Type
REMARK                         _______ _______ _______ _____ _____    ______ ____
ROOT
ATOM      1  O   UNL     1       2.544  17.249  17.789  0.00  0.00    +0.000 OA
ATOM      2  C   UNL     1       2.951  16.260  18.391  0.00  0.00    +0.000 C 
ATOM      3  N   UNL     1       2.063  15.477  19.151  0.00  0.00    +0.000 N 
ATOM      4  C   UNL     1       2.441  14.286  19.927  0.00  0.00    +0.000 C 
ATOM      5  C   UNL     1       1.505  13.956  21.094  0.00  0.00    +0.000 C 
ATOM      6  N   UNL     1       0.075  13.985  20.684  0.00  0.00    +0.000 NA
ATOM      7  C   UNL     1      -0.248  15.331  20.117  0.00  0.00    +0.000 C 
ATOM      8  C   UNL     1       0.621  15.656  18.895  0.00  0.00    +0.000 C 
ENDROOT
BRANCH   2   9
ATOM      9  C   UNL     1       4.341  15.870  18.328  0.00  0.00    +0.000 A 
ATOM     10  N   UNL     1       4.854  14.912  17.493  0.00  0.00    +0.000 N 
ATOM     11  N   UNL     1       6.158  14.682  17.636  0.00  0.00    +0.000 NA
ATOM     12  C   UNL     1       6.550  15.655  18.464  0.00  0.00    +0.000 A 
ATOM     13  C   UNL     1       5.457  16.420  18.935  0.00  0.00    +0.000 A 
ATOM     14 CL   UNL     1       5.534  17.733  20.010  0.00  0.00    +0.000 Cl
ATOM     15  H   UNL     1       4.361  14.357  16.807  0.00  0.00    +0.000 HD
BRANCH  12  16
ATOM     16  C   UNL     1       8.021  15.882  18.783  0.00  0.00    +0.000 C 
ATOM     17  C   UNL     1       8.476  15.819  20.229  0.00  0.00    +0.000 C 
ATOM     18  C   UNL     1       8.793  14.686  19.316  0.00  0.00    +0.000 C 
ENDBRANCH  12  16
ENDBRANCH   2   9
BRANCH   6  19
ATOM     19  S   UNL     1      -0.495  12.657  19.773  0.00  0.00    +0.000 S 
ATOM     20  O   UNL     1      -1.875  12.916  19.427  0.00  0.00    +0.000 OA
ATOM     21  O   UNL     1       0.482  12.356  18.753  0.00  0.00    +0.000 OA
BRANCH  19  22
ATOM     22  C   UNL     1      -0.482  11.337  20.961  0.00  0.00    +0.000 A 
ATOM     23  C   UNL     1       0.061  10.104  20.590  0.00  0.00    +0.000 A 
ATOM     24  C   UNL     1       0.084   9.059  21.513  0.00  0.00    +0.000 A 
ATOM     25  C   UNL     1      -0.430   9.250  22.797  0.00  0.00    +0.000 A 
ATOM     26  C   UNL     1      -0.967  10.486  23.165  0.00  0.00    +0.000 A 
ATOM     27  C   UNL     1      -0.994  11.537  22.249  0.00  0.00    +0.000 A 
ENDBRANCH  19  22
ENDBRANCH   6  19
TORSDOF 4
ENDMDL
