MODEL 1
REMARK VINA RESULT:      -7.0      0.000      0.000
REMARK  Name = 
REMARK  5 active torsions:
REMARK  status: ('A' for Active; 'I' for Inactive)
REMARK    1  A    between atoms: C_1  and  S_2
REMARK    2  A    between atoms: S_2  and  N_5
REMARK    3  A    between atoms: N_8  and  C_9
REMARK    4  A    between atoms: C_9  and  C_10
REMARK    5  A    between atoms: C_16  and  C_17
REMARK                            x       y       z     vdW  Elec       q    Type
REMARK                         _______ _______ _______ _____ _____    ______ ____
ROOT
ATOM      1  N   UNL     1       6.806   4.168  15.735  0.00  0.00    +0.000 NA
ATOM      2  C   UNL     1       5.811   3.200  16.233  0.00  0.00    +0.000 C 
ATOM      3  C   UNL     1       4.508   3.837  16.736  0.00  0.00    +0.000 C 
ATOM      4  N   UNL     1       4.561   4.836  17.842  0.00  0.00    +0.000 NA
ATOM      5  C   UNL     1       5.419   6.007  17.511  0.00  0.00    +0.000 C 
ATOM      6  C   UNL     1       6.951   5.885  17.576  0.00  0.00    +0.000 C 
ATOM      7  C   UNL     1       7.629   4.759  16.814  0.00  0.00    +0.000 C 
ENDROOT
BRANCH   6   8
ATOM      8  C   UNL     1       7.446   5.908  19.012  0.00  0.00    +0.000 C 
ATOM      9  N   UNL     1       8.442   6.789  19.305  0.00  0.00    +0.000 N 
ATOM     10  O   UNL     1       6.957   5.210  19.898  0.00  0.00    +0.000 OA
ATOM     11  H   UNL     1       9.038   7.144  18.562  0.00  0.00    +0.000 HD
ATOM     12  H   UNL     1       8.842   6.722  20.236  0.00  0.00    +0.000 HD
ENDBRANCH   6   8
BRANCH   1  14
ATOM     13  C   UNL     1       6.031   3.749  13.182  0.00  0.00    +0.000 C 
ATOM     14  S   UNL     1       6.545   5.027  14.309  0.00  0.00    +0.000 S 
ATOM     15  O   UNL     1       7.821   5.530  13.848  0.00  0.00    +0.000 OA
ATOM     16  O   UNL     1       5.421   5.917  14.490  0.00  0.00    +0.000 OA
ENDBRANCH   1  14
BRANCH   4  17
ATOM     17  C   UNL     1       3.173   5.395  18.009  0.00  0.00    +0.000 C 
BRANCH  17  18
ATOM     18  C   UNL     1       2.267   4.555  18.870  0.00  0.00    +0.000 A 
ATOM     19  C   UNL     1       1.339   3.610  18.483  0.00  0.00    +0.000 A 
ATOM     20  C   UNL     1       0.626   3.068  19.592  0.00  0.00    +0.000 A 
ATOM     21  C   UNL     1       1.054   3.593  20.791  0.00  0.00    +0.000 A 
ATOM     22  S   UNL     1       2.320   4.720  20.580  0.00  0.00    +0.000 S 
ENDBRANCH  17  18
ENDBRANCH   4  17
TORSDOF 4
ENDMDL
MODEL 2
REMARK VINA RESULT:      -6.9      3.001      4.606
REMARK  Name = 
REMARK  5 active torsions:
REMARK  status: ('A' for Active; 'I' for Inactive)
REMARK    1  A    between atoms: C_1  and  S_2
REMARK    2  A    between atoms: S_2  and  N_5
REMARK    3  A    between atoms: N_8  and  C_9
REMARK    4  A    between atoms: C_9  and  C_10
REMARK    5  A    between atoms: C_16  and  C_17
REMARK                            x       y       z     vdW  Elec       q    Type
REMARK                         _______ _______ _______ _____ _____    ______ ____
ROOT
ATOM      1  N   UNL     1       5.740   5.001  16.823  0.00  0.00    +0.000 NA
ATOM      2  C   UNL     1       4.976   6.219  16.492  0.00  0.00    +0.000 C 
ATOM      3  C   UNL     1       4.196   6.815  17.672  0.00  0.00    +0.000 C 
ATOM      4  N   UNL     1       3.178   5.981  18.373  0.00  0.00    +0.000 NA
ATOM      5  C   UNL     1       3.755   4.727  18.931  0.00  0.00    +0.000 C 
ATOM      6  C   UNL     1       4.061   3.538  18.006  0.00  0.00    +0.000 C 
ATOM      7  C   UNL     1       4.919   3.771  16.773  0.00  0.00    +0.000 C 
ENDROOT
BRANCH   6   8
ATOM      8  C   UNL     1       2.791   2.800  17.618  0.00  0.00    +0.000 C 
ATOM      9  N   UNL     1       2.601   1.571  18.173  0.00  0.00    +0.000 N 
ATOM     10  O   UNL     1       1.937   3.284  16.878  0.00  0.00    +0.000 OA
ATOM     11  H   UNL     1       3.395   1.049  18.532  0.00  0.00    +0.000 HD
ATOM     12  H   UNL     1       1.808   1.039  17.826  0.00  0.00    +0.000 HD
ENDBRANCH   6   8
BRANCH   1  14
ATOM     13  C   UNL     1       7.614   6.763  17.647  0.00  0.00    +0.000 C 
ATOM     14  S   UNL     1       7.092   5.070  17.826  0.00  0.00    +0.000 S 
ATOM     15  O   UNL     1       8.122   4.232  17.250  0.00  0.00    +0.000 OA
ATOM     16  O   UNL     1       6.676   4.892  19.199  0.00  0.00    +0.000 OA
ENDBRANCH   1  14
BRANCH   4  17
ATOM     17  C   UNL     1       2.700   6.765  19.566  0.00  0.00    +0.000 C 
BRANCH  17  18
ATOM     18  C   UNL     1       1.924   8.008  19.219  0.00  0.00    +0.000 A 
ATOM     19  C   UNL     1       1.737   8.594  17.984  0.00  0.00    +0.000 A 
ATOM     20  C   UNL     1       0.990   9.805  18.068  0.00  0.00    +0.000 A 
ATOM     21  C   UNL     1       0.604  10.088  19.358  0.00  0.00    +0.000 A 
ATOM     22  S   UNL     1       1.126   8.891  20.459  0.00  0.00    +0.000 S 
ENDBRANCH  17  18
ENDBRANCH   4  17
TORSDOF 4
ENDMDL
MODEL 3
REMARK VINA RESULT:      -6.5      1.871      3.864
REMARK  Name = 
REMARK  5 active torsions:
REMARK  status: ('A' for Active; 'I' for Inactive)
REMARK    1  A    between atoms: C_1  and  S_2
REMARK    2  A    between atoms: S_2  and  N_5
REMARK    3  A    between atoms: N_8  and  C_9
REMARK    4  A    between atoms: C_9  and  C_10
REMARK    5  A    between atoms: C_16  and  C_17
REMARK                            x       y       z     vdW  Elec       q    Type
REMARK                         _______ _______ _______ _____ _____    ______ ____
ROOT
ATOM      1  N   UNL     1       6.203   6.048  17.307  0.00  0.00    +0.000 NA
ATOM      2  C   UNL     1       4.776   6.340  17.541  0.00  0.00    +0.000 C 
ATOM      3  C   UNL     1       3.922   5.103  17.849  0.00  0.00    +0.000 C 
ATOM      4  N   UNL     1       3.860   3.989  16.860  0.00  0.00    +0.000 NA
ATOM      5  C   UNL     1       5.203   3.422  16.558  0.00  0.00    +0.000 C 
ATOM      6  C   UNL     1       6.167   4.172  15.623  0.00  0.00    +0.000 C 
ATOM      7  C   UNL     1       6.488   5.628  15.917  0.00  0.00    +0.000 C 
ENDROOT
BRANCH   6   8
ATOM      8  C   UNL     1       5.757   4.017  14.168  0.00  0.00    +0.000 C 
ATOM      9  N   UNL     1       6.519   3.190  13.400  0.00  0.00    +0.000 N 
ATOM     10  O   UNL     1       4.764   4.563  13.693  0.00  0.00    +0.000 OA
ATOM     11  H   UNL     1       7.472   2.975  13.679  0.00  0.00    +0.000 HD
ATOM     12  H   UNL     1       6.306   3.177  12.407  0.00  0.00    +0.000 HD
ENDBRANCH   6   8
BRANCH   1  14
ATOM     13  C   UNL     1       8.227   6.962  18.844  0.00  0.00    +0.000 C 
ATOM     14  S   UNL     1       7.201   5.535  18.563  0.00  0.00    +0.000 S 
ATOM     15  O   UNL     1       8.051   4.478  18.059  0.00  0.00    +0.000 OA
ATOM     16  O   UNL     1       6.404   5.338  19.753  0.00  0.00    +0.000 OA
ENDBRANCH   1  14
BRANCH   4  17
ATOM     17  C   UNL     1       3.087   2.865  17.496  0.00  0.00    +0.000 C 
BRANCH  17  18
ATOM     18  C   UNL     1       2.490   3.206  18.835  0.00  0.00    +0.000 A 
ATOM     19  C   UNL     1       1.300   3.845  19.114  0.00  0.00    +0.000 A 
ATOM     20  C   UNL     1       1.107   4.045  20.512  0.00  0.00    +0.000 A 
ATOM     21  C   UNL     1       2.141   3.523  21.257  0.00  0.00    +0.000 A 
ATOM     22  S   UNL     1       3.327   2.784  20.276  0.00  0.00    +0.000 S 
ENDBRANCH  17  18
ENDBRANCH   4  17
TORSDOF 4
ENDMDL
MODEL 4
REMARK VINA RESULT:      -6.4      1.082      1.187
REMARK  Name = 
REMARK  5 active torsions:
REMARK  status: ('A' for Active; 'I' for Inactive)
REMARK    1  A    between atoms: C_1  and  S_2
REMARK    2  A    between atoms: S_2  and  N_5
REMARK    3  A    between atoms: N_8  and  C_9
REMARK    4  A    between atoms: C_9  and  C_10
REMARK    5  A    between atoms: C_16  and  C_17
REMARK                            x       y       z     vdW  Elec       q    Type
REMARK                         _______ _______ _______ _____ _____    ______ ____
ROOT
ATOM      1  N   UNL     1       6.500   4.162  15.782  0.00  0.00    +0.000 NA
ATOM      2  C   UNL     1       5.621   3.244  16.531  0.00  0.00    +0.000 C 
ATOM      3  C   UNL     1       4.407   3.923  17.180  0.00  0.00    +0.000 C 
ATOM      4  N   UNL     1       4.623   5.027  18.160  0.00  0.00    +0.000 NA
ATOM      5  C   UNL     1       5.390   6.162  17.578  0.00  0.00    +0.000 C 
ATOM      6  C   UNL     1       6.913   6.053  17.398  0.00  0.00    +0.000 C 
ATOM      7  C   UNL     1       7.479   4.860  16.646  0.00  0.00    +0.000 C 
ENDROOT
BRANCH   6   8
ATOM      8  C   UNL     1       7.639   6.220  18.722  0.00  0.00    +0.000 C 
ATOM      9  N   UNL     1       7.416   5.267  19.670  0.00  0.00    +0.000 N 
ATOM     10  O   UNL     1       8.431   7.134  18.939  0.00  0.00    +0.000 OA
ATOM     11  H   UNL     1       6.577   4.696  19.625  0.00  0.00    +0.000 HD
ATOM     12  H   UNL     1       7.816   5.443  20.586  0.00  0.00    +0.000 HD
ENDBRANCH   6   8
BRANCH   1  14
ATOM     13  C   UNL     1       7.523   5.131  13.478  0.00  0.00    +0.000 C 
ATOM     14  S   UNL     1       5.989   4.875  14.344  0.00  0.00    +0.000 S 
ATOM     15  O   UNL     1       5.440   6.176  14.657  0.00  0.00    +0.000 OA
ATOM     16  O   UNL     1       5.222   3.913  13.583  0.00  0.00    +0.000 OA
ENDBRANCH   1  14
BRANCH   4  17
ATOM     17  C   UNL     1       3.270   5.594  18.501  0.00  0.00    +0.000 C 
BRANCH  17  18
ATOM     18  C   UNL     1       2.346   4.622  19.185  0.00  0.00    +0.000 A 
ATOM     19  C   UNL     1       1.381   3.809  18.628  0.00  0.00    +0.000 A 
ATOM     20  C   UNL     1       0.663   3.070  19.612  0.00  0.00    +0.000 A 
ATOM     21  C   UNL     1       1.123   3.318  20.885  0.00  0.00    +0.000 A 
ATOM     22  S   UNL     1       2.425   4.423  20.890  0.00  0.00    +0.000 S 
ENDBRANCH  17  18
ENDBRANCH   4  17
TORSDOF 4
ENDMDL
MODEL 5
REMARK VINA RESULT:      -6.4      1.095      1.341
REMARK  Name = 
REMARK  5 active torsions:
REMARK  status: ('A' for Active; 'I' for Inactive)
REMARK    1  A    between atoms: C_1  and  S_2
REMARK    2  A    between atoms: S_2  and  N_5
REMARK    3  A    between atoms: N_8  and  C_9
REMARK    4  A    between atoms: C_9  and  C_10
REMARK    5  A    between atoms: C_16  and  C_17
REMARK                            x       y       z     vdW  Elec       q    Type
REMARK                         _______ _______ _______ _____ _____    ______ ____
ROOT
ATOM      1  N   UNL     1       6.494   4.151  15.884  0.00  0.00    +0.000 NA
ATOM      2  C   UNL     1       5.583   3.251  16.616  0.00  0.00    +0.000 C 
ATOM      3  C   UNL     1       4.402   3.962  17.291  0.00  0.00    +0.000 C 
ATOM      4  N   UNL     1       4.668   5.031  18.296  0.00  0.00    +0.000 NA
ATOM      5  C   UNL     1       5.478   6.149  17.737  0.00  0.00    +0.000 C 
ATOM      6  C   UNL     1       6.994   5.983  17.542  0.00  0.00    +0.000 C 
ATOM      7  C   UNL     1       7.506   4.786  16.757  0.00  0.00    +0.000 C 
ENDROOT
BRANCH   6   8
ATOM      8  C   UNL     1       7.735   6.087  18.865  0.00  0.00    +0.000 C 
ATOM      9  N   UNL     1       8.491   7.202  19.060  0.00  0.00    +0.000 N 
ATOM     10  O   UNL     1       7.637   5.242  19.753  0.00  0.00    +0.000 OA
ATOM     11  H   UNL     1       8.811   7.743  18.261  0.00  0.00    +0.000 HD
ATOM     12  H   UNL     1       9.068   7.214  19.896  0.00  0.00    +0.000 HD
ENDBRANCH   6   8
BRANCH   1  14
ATOM     13  C   UNL     1       7.542   5.150  13.604  0.00  0.00    +0.000 C 
ATOM     14  S   UNL     1       6.003   4.919  14.467  0.00  0.00    +0.000 S 
ATOM     15  O   UNL     1       5.497   6.229  14.818  0.00  0.00    +0.000 OA
ATOM     16  O   UNL     1       5.204   4.005  13.683  0.00  0.00    +0.000 OA
ENDBRANCH   1  14
BRANCH   4  17
ATOM     17  C   UNL     1       3.343   5.644  18.661  0.00  0.00    +0.000 C 
BRANCH  17  18
ATOM     18  C   UNL     1       2.420   4.720  19.410  0.00  0.00    +0.000 A 
ATOM     19  C   UNL     1       2.301   4.534  20.772  0.00  0.00    +0.000 A 
ATOM     20  C   UNL     1       1.354   3.519  21.099  0.00  0.00    +0.000 A 
ATOM     21  C   UNL     1       0.758   2.986  19.978  0.00  0.00    +0.000 A 
ATOM     22  S   UNL     1       1.325   3.717  18.543  0.00  0.00    +0.000 S 
ENDBRANCH  17  18
ENDBRANCH   4  17
TORSDOF 4
ENDMDL
MODEL 6
REMARK VINA RESULT:      -6.3      3.417      4.719
REMARK  Name = 
REMARK  5 active torsions:
REMARK  status: ('A' for Active; 'I' for Inactive)
REMARK    1  A    between atoms: C_1  and  S_2
REMARK    2  A    between atoms: S_2  and  N_5
REMARK    3  A    between atoms: N_8  and  C_9
REMARK    4  A    between atoms: C_9  and  C_10
REMARK    5  A    between atoms: C_16  and  C_17
REMARK                            x       y       z     vdW  Elec       q    Type
REMARK                         _______ _______ _______ _____ _____    ______ ____
ROOT
ATOM      1  N   UNL     1       3.370   3.442  19.388  0.00  0.00    +0.000 NA
ATOM      2  C   UNL     1       2.660   4.402  20.254  0.00  0.00    +0.000 C 
ATOM      3  C   UNL     1       2.251   5.703  19.550  0.00  0.00    +0.000 C 
ATOM      4  N   UNL     1       3.300   6.557  18.922  0.00  0.00    +0.000 NA
ATOM      5  C   UNL     1       4.082   5.828  17.885  0.00  0.00    +0.000 C 
ATOM      6  C   UNL     1       5.174   4.829  18.302  0.00  0.00    +0.000 C 
ATOM      7  C   UNL     1       4.820   3.722  19.280  0.00  0.00    +0.000 C 
ENDROOT
BRANCH   6   8
ATOM      8  C   UNL     1       6.430   5.546  18.767  0.00  0.00    +0.000 C 
ATOM      9  N   UNL     1       6.976   6.450  17.907  0.00  0.00    +0.000 N 
ATOM     10  O   UNL     1       6.924   5.374  19.880  0.00  0.00    +0.000 OA
ATOM     11  H   UNL     1       6.770   6.392  16.914  0.00  0.00    +0.000 HD
ATOM     12  H   UNL     1       7.873   6.843  18.178  0.00  0.00    +0.000 HD
ENDBRANCH   6   8
BRANCH   1  14
ATOM     13  C   UNL     1       1.061   2.121  18.920  0.00  0.00    +0.000 C 
ATOM     14  S   UNL     1       2.572   2.644  18.137  0.00  0.00    +0.000 S 
ATOM     15  O   UNL     1       3.328   1.456  17.806  0.00  0.00    +0.000 OA
ATOM     16  O   UNL     1       2.216   3.602  17.114  0.00  0.00    +0.000 OA
ENDBRANCH   1  14
BRANCH   4  17
ATOM     17  C   UNL     1       2.595   7.664  18.183  0.00  0.00    +0.000 C 
BRANCH  17  18
ATOM     18  C   UNL     1       1.747   8.548  19.058  0.00  0.00    +0.000 A 
ATOM     19  C   UNL     1       1.527   8.465  20.417  0.00  0.00    +0.000 A 
ATOM     20  C   UNL     1       0.607   9.451  20.878  0.00  0.00    +0.000 A 
ATOM     21  C   UNL     1       0.179  10.275  19.861  0.00  0.00    +0.000 A 
ATOM     22  S   UNL     1       0.896   9.871  18.365  0.00  0.00    +0.000 S 
ENDBRANCH  17  18
ENDBRANCH   4  17
TORSDOF 4
ENDMDL
MODEL 7
REMARK VINA RESULT:      -6.2      2.038      2.939
REMARK  Name = 
REMARK  5 active torsions:
REMARK  status: ('A' for Active; 'I' for Inactive)
REMARK    1  A    between atoms: C_1  and  S_2
REMARK    2  A    between atoms: S_2  and  N_5
REMARK    3  A    between atoms: N_8  and  C_9
REMARK    4  A    between atoms: C_9  and  C_10
REMARK    5  A    between atoms: C_16  and  C_17
REMARK                            x       y       z     vdW  Elec       q    Type
REMARK                         _______ _______ _______ _____ _____    ______ ____
ROOT
ATOM      1  N   UNL     1       6.504   6.066  16.880  0.00  0.00    +0.000 NA
ATOM      2  C   UNL     1       7.095   5.659  18.169  0.00  0.00    +0.000 C 
ATOM      3  C   UNL     1       6.403   4.460  18.830  0.00  0.00    +0.000 C 
ATOM      4  N   UNL     1       4.951   4.541  19.158  0.00  0.00    +0.000 NA
ATOM      5  C   UNL     1       4.111   4.814  17.959  0.00  0.00    +0.000 C 
ATOM      6  C   UNL     1       4.037   6.234  17.375  0.00  0.00    +0.000 C 
ATOM      7  C   UNL     1       5.331   6.955  17.036  0.00  0.00    +0.000 C 
ENDROOT
BRANCH   6   8
ATOM      8  C   UNL     1       3.151   7.134  18.220  0.00  0.00    +0.000 C 
ATOM      9  N   UNL     1       2.924   6.741  19.504  0.00  0.00    +0.000 N 
ATOM     10  O   UNL     1       2.687   8.194  17.805  0.00  0.00    +0.000 OA
ATOM     11  H   UNL     1       3.043   5.766  19.764  0.00  0.00    +0.000 HD
ATOM     12  H   UNL     1       2.245   7.287  20.027  0.00  0.00    +0.000 HD
ENDBRANCH   6   8
BRANCH   1  14
ATOM     13  C   UNL     1       5.256   5.609  14.529  0.00  0.00    +0.000 C 
ATOM     14  S   UNL     1       6.644   5.090  15.513  0.00  0.00    +0.000 S 
ATOM     15  O   UNL     1       6.409   3.720  15.914  0.00  0.00    +0.000 OA
ATOM     16  O   UNL     1       7.843   5.454  14.791  0.00  0.00    +0.000 OA
ENDBRANCH   1  14
BRANCH   4  17
ATOM     17  C   UNL     1       4.523   3.181  19.643  0.00  0.00    +0.000 C 
BRANCH  17  18
ATOM     18  C   UNL     1       3.031   2.989  19.707  0.00  0.00    +0.000 A 
ATOM     19  C   UNL     1       2.202   2.348  18.810  0.00  0.00    +0.000 A 
ATOM     20  C   UNL     1       0.830   2.429  19.187  0.00  0.00    +0.000 A 
ATOM     21  C   UNL     1       0.659   3.101  20.376  0.00  0.00    +0.000 A 
ATOM     22  S   UNL     1       2.145   3.616  21.040  0.00  0.00    +0.000 S 
ENDBRANCH  17  18
ENDBRANCH   4  17
TORSDOF 4
ENDMDL
MODEL 8
REMARK VINA RESULT:      -6.2      3.320      6.039
REMARK  Name = 
REMARK  5 active torsions:
REMARK  status: ('A' for Active; 'I' for Inactive)
REMARK    1  A    between atoms: C_1  and  S_2
REMARK    2  A    between atoms: S_2  and  N_5
REMARK    3  A    between atoms: N_8  and  C_9
REMARK    4  A    between atoms: C_9  and  C_10
REMARK    5  A    between atoms: C_16  and  C_17
REMARK                            x       y       z     vdW  Elec       q    Type
REMARK                         _______ _______ _______ _____ _____    ______ ____
ROOT
ATOM      1  N   UNL     1       1.906   3.657  18.668  0.00  0.00    +0.000 NA
ATOM      2  C   UNL     1       2.359   3.421  17.284  0.00  0.00    +0.000 C 
ATOM      3  C   UNL     1       3.867   3.609  17.074  0.00  0.00    +0.000 C 
ATOM      4  N   UNL     1       4.493   4.924  17.392  0.00  0.00    +0.000 NA
ATOM      5  C   UNL     1       4.284   5.325  18.811  0.00  0.00    +0.000 C 
ATOM      6  C   UNL     1       2.926   5.885  19.264  0.00  0.00    +0.000 C 
ATOM      7  C   UNL     1       1.668   5.088  18.963  0.00  0.00    +0.000 C 
ENDROOT
BRANCH   6   8
ATOM      8  C   UNL     1       2.745   7.325  18.815  0.00  0.00    +0.000 C 
ATOM      9  N   UNL     1       3.341   7.682  17.643  0.00  0.00    +0.000 N 
ATOM     10  O   UNL     1       2.061   8.136  19.434  0.00  0.00    +0.000 OA
ATOM     11  H   UNL     1       4.122   7.139  17.286  0.00  0.00    +0.000 HD
ATOM     12  H   UNL     1       3.308   8.669  17.405  0.00  0.00    +0.000 HD
ENDBRANCH   6   8
BRANCH   1  14
ATOM     13  C   UNL     1       1.346   3.202  21.271  0.00  0.00    +0.000 C 
ATOM     14  S   UNL     1       2.324   2.600  19.912  0.00  0.00    +0.000 S 
ATOM     15  O   UNL     1       3.715   2.822  20.242  0.00  0.00    +0.000 OA
ATOM     16  O   UNL     1       1.844   1.275  19.590  0.00  0.00    +0.000 OA
ENDBRANCH   1  14
BRANCH   4  17
ATOM     17  C   UNL     1       5.982   4.762  17.240  0.00  0.00    +0.000 C 
BRANCH  17  18
ATOM     18  C   UNL     1       6.780   5.980  17.624  0.00  0.00    +0.000 A 
ATOM     19  C   UNL     1       6.804   7.222  17.024  0.00  0.00    +0.000 A 
ATOM     20  C   UNL     1       7.739   8.103  17.642  0.00  0.00    +0.000 A 
ATOM     21  C   UNL     1       8.374   7.516  18.712  0.00  0.00    +0.000 A 
ATOM     22  S   UNL     1       7.834   5.918  18.979  0.00  0.00    +0.000 S 
ENDBRANCH  17  18
ENDBRANCH   4  17
TORSDOF 4
ENDMDL
MODEL 9
REMARK VINA RESULT:      -6.2      2.328      5.947
REMARK  Name = 
REMARK  5 active torsions:
REMARK  status: ('A' for Active; 'I' for Inactive)
REMARK    1  A    between atoms: C_1  and  S_2
REMARK    2  A    between atoms: S_2  and  N_5
REMARK    3  A    between atoms: N_8  and  C_9
REMARK    4  A    between atoms: C_9  and  C_10
REMARK    5  A    between atoms: C_16  and  C_17
REMARK                            x       y       z     vdW  Elec       q    Type
REMARK                         _______ _______ _______ _____ _____    ______ ____
ROOT
ATOM      1  N   UNL     1       3.850   4.435  19.056  0.00  0.00    +0.000 NA
ATOM      2  C   UNL     1       3.141   4.690  17.788  0.00  0.00    +0.000 C 
ATOM      3  C   UNL     1       3.769   4.007  16.566  0.00  0.00    +0.000 C 
ATOM      4  N   UNL     1       5.185   4.308  16.205  0.00  0.00    +0.000 NA
ATOM      5  C   UNL     1       6.133   3.993  17.309  0.00  0.00    +0.000 C 
ATOM      6  C   UNL     1       6.260   4.942  18.512  0.00  0.00    +0.000 C 
ATOM      7  C   UNL     1       5.002   5.340  19.267  0.00  0.00    +0.000 C 
ENDROOT
BRANCH   6   8
ATOM      8  C   UNL     1       7.062   6.182  18.156  0.00  0.00    +0.000 C 
ATOM      9  N   UNL     1       6.619   6.917  17.098  0.00  0.00    +0.000 N 
ATOM     10  O   UNL     1       8.039   6.553  18.801  0.00  0.00    +0.000 OA
ATOM     11  H   UNL     1       6.020   6.488  16.398  0.00  0.00    +0.000 HD
ATOM     12  H   UNL     1       7.219   7.679  16.798  0.00  0.00    +0.000 HD
ENDBRANCH   6   8
BRANCH   1  14
ATOM     13  C   UNL     1       2.681   3.114  21.101  0.00  0.00    +0.000 C 
ATOM     14  S   UNL     1       3.839   2.907  19.765  0.00  0.00    +0.000 S 
ATOM     15  O   UNL     1       5.142   2.672  20.348  0.00  0.00    +0.000 OA
ATOM     16  O   UNL     1       3.261   1.958  18.840  0.00  0.00    +0.000 OA
ENDBRANCH   1  14
BRANCH   4  17
ATOM     17  C   UNL     1       5.567   3.386  15.077  0.00  0.00    +0.000 C 
BRANCH  17  18
ATOM     18  C   UNL     1       6.406   4.032  14.007  0.00  0.00    +0.000 A 
ATOM     19  C   UNL     1       7.316   5.062  14.127  0.00  0.00    +0.000 A 
ATOM     20  C   UNL     1       7.869   5.444  12.870  0.00  0.00    +0.000 A 
ATOM     21  C   UNL     1       7.386   4.673  11.836  0.00  0.00    +0.000 A 
ATOM     22  S   UNL     1       6.287   3.486  12.382  0.00  0.00    +0.000 S 
ENDBRANCH  17  18
ENDBRANCH   4  17
TORSDOF 4
ENDMDL
