MODEL 1
REMARK VINA RESULT:      -8.9      0.000      0.000
REMARK  Name = 
REMARK  6 active torsions:
REMARK  status: ('A' for Active; 'I' for Inactive)
REMARK    1  A    between atoms: C_1  and  C_2
REMARK    2  A    between atoms: C_10  and  S_11
REMARK    3  A    between atoms: S_11  and  N_14
REMARK    4  A    between atoms: N_14  and  C_15
REMARK    5  A    between atoms: C_17  and  C_18
REMARK    6  A    between atoms: C_26  and  C_27
REMARK                            x       y       z     vdW  Elec       q    Type
REMARK                         _______ _______ _______ _____ _____    ______ ____
ROOT
ATOM      1  S   UNL     1       2.919   3.237  18.218  0.00  0.00    +0.000 S 
ATOM      2  O   UNL     1       2.417   2.223  19.111  0.00  0.00    +0.000 OA
ATOM      3  O   UNL     1       2.508   3.247  16.830  0.00  0.00    +0.000 OA
ENDROOT
BRANCH   1  13
ATOM      4  C   UNL     1       0.467  10.597  21.550  0.00  0.00    +0.000 C 
ATOM      5  C   UNL     1       0.770   9.135  21.308  0.00  0.00    +0.000 C 
ATOM      6  O   UNL     1       0.401   8.326  22.160  0.00  0.00    +0.000 OA
ATOM      7  N   UNL     1       1.421   8.819  20.110  0.00  0.00    +0.000 N 
ATOM      8  C   UNL     1       1.841   9.840  19.139  0.00  0.00    +0.000 C 
ATOM      9  C   UNL     1       1.560   9.368  17.726  0.00  0.00    +0.000 C 
ATOM     10  O   UNL     1       2.297   8.184  17.419  0.00  0.00    +0.000 OA
ATOM     11  C   UNL     1       2.218   7.227  18.405  0.00  0.00    +0.000 A 
ATOM     12  C   UNL     1       2.593   5.939  18.001  0.00  0.00    +0.000 A 
ATOM     13  C   UNL     1       2.565   4.857  18.901  0.00  0.00    +0.000 A 
ATOM     14  C   UNL     1       2.165   5.080  20.225  0.00  0.00    +0.000 A 
ATOM     15  C   UNL     1       2.089   4.053  21.320  0.00  0.00    +0.000 C 
ATOM     16  C   UNL     1       1.778   6.392  20.603  0.00  0.00    +0.000 A 
ATOM     17  C   UNL     1       1.793   7.481  19.722  0.00  0.00    +0.000 A 
ENDBRANCH   1  13
BRANCH   1  18
ATOM     18  N   UNL     1       4.625   3.148  18.299  0.00  0.00    +0.000 N 
ATOM     19  H   UNL     1       4.878   2.156  18.242  0.00  0.00    +0.000 HD
BRANCH  18  20
ATOM     20  C   UNL     1       5.329   3.985  17.364  0.00  0.00    +0.000 A 
ATOM     21  C   UNL     1       5.271   3.661  16.006  0.00  0.00    +0.000 A 
ATOM     22  C   UNL     1       6.056   4.359  15.070  0.00  0.00    +0.000 A 
ATOM     23  C   UNL     1       6.880   5.406  15.516  0.00  0.00    +0.000 A 
ATOM     24  C   UNL     1       6.932   5.741  16.872  0.00  0.00    +0.000 A 
ATOM     25  C   UNL     1       6.167   5.025  17.796  0.00  0.00    +0.000 A 
ATOM     26 CL   UNL     1       6.278   5.452  19.465  0.00  0.00    +0.000 Cl
BRANCH  22  27
ATOM     27  C   UNL     1       6.045   3.974  13.609  0.00  0.00    +0.000 C 
ATOM     28  F   UNL     1       4.842   4.177  13.003  0.00  0.00    +0.000 F 
ATOM     29  F   UNL     1       6.954   4.675  12.880  0.00  0.00    +0.000 F 
ATOM     30  F   UNL     1       6.341   2.659  13.419  0.00  0.00    +0.000 F 
ENDBRANCH  22  27
ENDBRANCH  18  20
ENDBRANCH   1  18
TORSDOF 4
ENDMDL
MODEL 2
REMARK VINA RESULT:      -8.1      1.598      1.963
REMARK  Name = 
REMARK  6 active torsions:
REMARK  status: ('A' for Active; 'I' for Inactive)
REMARK    1  A    between atoms: C_1  and  C_2
REMARK    2  A    between atoms: C_10  and  S_11
REMARK    3  A    between atoms: S_11  and  N_14
REMARK    4  A    between atoms: N_14  and  C_15
REMARK    5  A    between atoms: C_17  and  C_18
REMARK    6  A    between atoms: C_26  and  C_27
REMARK                            x       y       z     vdW  Elec       q    Type
REMARK                         _______ _______ _______ _____ _____    ______ ____
ROOT
ATOM      1  S   UNL     1       3.472   5.486  17.919  0.00  0.00    +0.000 S 
ATOM      2  O   UNL     1       4.512   4.830  18.672  0.00  0.00    +0.000 OA
ATOM      3  O   UNL     1       2.444   4.702  17.269  0.00  0.00    +0.000 OA
ENDROOT
BRANCH   1  13
ATOM      4  C   UNL     1      -1.082  10.730  22.718  0.00  0.00    +0.000 C 
ATOM      5  C   UNL     1      -0.403   9.516  22.124  0.00  0.00    +0.000 C 
ATOM      6  O   UNL     1      -0.658   8.419  22.622  0.00  0.00    +0.000 OA
ATOM      7  N   UNL     1       0.440   9.741  21.030  0.00  0.00    +0.000 N 
ATOM      8  C   UNL     1       0.705  11.084  20.493  0.00  0.00    +0.000 C 
ATOM      9  C   UNL     1       0.714  11.049  18.976  0.00  0.00    +0.000 C 
ATOM     10  O   UNL     1       1.750  10.199  18.483  0.00  0.00    +0.000 OA
ATOM     11  C   UNL     1       1.795   8.978  19.118  0.00  0.00    +0.000 A 
ATOM     12  C   UNL     1       2.519   7.991  18.436  0.00  0.00    +0.000 A 
ATOM     13  C   UNL     1       2.655   6.694  18.962  0.00  0.00    +0.000 A 
ATOM     14  C   UNL     1       2.061   6.392  20.196  0.00  0.00    +0.000 A 
ATOM     15  C   UNL     1       2.114   5.071  20.912  0.00  0.00    +0.000 C 
ATOM     16  C   UNL     1       1.323   7.406  20.857  0.00  0.00    +0.000 A 
ATOM     17  C   UNL     1       1.171   8.702  20.348  0.00  0.00    +0.000 A 
ENDBRANCH   1  13
BRANCH   1  18
ATOM     18  N   UNL     1       4.262   6.456  16.752  0.00  0.00    +0.000 N 
ATOM     19  H   UNL     1       4.530   7.330  17.218  0.00  0.00    +0.000 HD
BRANCH  18  20
ATOM     20  C   UNL     1       5.340   5.815  16.049  0.00  0.00    +0.000 A 
ATOM     21  C   UNL     1       5.060   5.176  14.838  0.00  0.00    +0.000 A 
ATOM     22  C   UNL     1       6.046   4.414  14.187  0.00  0.00    +0.000 A 
ATOM     23  C   UNL     1       7.327   4.324  14.757  0.00  0.00    +0.000 A 
ATOM     24  C   UNL     1       7.616   4.971  15.961  0.00  0.00    +0.000 A 
ATOM     25  C   UNL     1       6.622   5.705  16.612  0.00  0.00    +0.000 A 
ATOM     26 CL   UNL     1       7.010   6.468  18.112  0.00  0.00    +0.000 Cl
BRANCH  22  27
ATOM     27  C   UNL     1       5.732   3.671  12.909  0.00  0.00    +0.000 C 
ATOM     28  F   UNL     1       5.932   2.327  12.998  0.00  0.00    +0.000 F 
ATOM     29  F   UNL     1       4.438   3.831  12.519  0.00  0.00    +0.000 F 
ATOM     30  F   UNL     1       6.496   4.094  11.865  0.00  0.00    +0.000 F 
ENDBRANCH  22  27
ENDBRANCH  18  20
ENDBRANCH   1  18
TORSDOF 4
ENDMDL
MODEL 3
REMARK VINA RESULT:      -8.1      2.580      2.987
REMARK  Name = 
REMARK  6 active torsions:
REMARK  status: ('A' for Active; 'I' for Inactive)
REMARK    1  A    between atoms: C_1  and  C_2
REMARK    2  A    between atoms: C_10  and  S_11
REMARK    3  A    between atoms: S_11  and  N_14
REMARK    4  A    between atoms: N_14  and  C_15
REMARK    5  A    between atoms: C_17  and  C_18
REMARK    6  A    between atoms: C_26  and  C_27
REMARK                            x       y       z     vdW  Elec       q    Type
REMARK                         _______ _______ _______ _____ _____    ______ ____
ROOT
ATOM      1  S   UNL     1       3.130   3.554  18.237  0.00  0.00    +0.000 S 
ATOM      2  O   UNL     1       4.271   3.051  18.961  0.00  0.00    +0.000 OA
ATOM      3  O   UNL     1       1.934   2.747  18.119  0.00  0.00    +0.000 OA
ENDROOT
BRANCH   1  13
ATOM      4  C   UNL     1       0.088  10.723  21.498  0.00  0.00    +0.000 C 
ATOM      5  C   UNL     1       0.484   9.282  21.257  0.00  0.00    +0.000 C 
ATOM      6  O   UNL     1       0.108   8.443  22.076  0.00  0.00    +0.000 OA
ATOM      7  N   UNL     1       1.222   9.020  20.098  0.00  0.00    +0.000 N 
ATOM      8  C   UNL     1       1.644  10.076  19.167  0.00  0.00    +0.000 C 
ATOM      9  C   UNL     1       1.475   9.610  17.733  0.00  0.00    +0.000 C 
ATOM     10  O   UNL     1       2.292   8.471  17.458  0.00  0.00    +0.000 OA
ATOM     11  C   UNL     1       2.205   7.497  18.427  0.00  0.00    +0.000 A 
ATOM     12  C   UNL     1       2.672   6.237  18.032  0.00  0.00    +0.000 A 
ATOM     13  C   UNL     1       2.649   5.142  18.915  0.00  0.00    +0.000 A 
ATOM     14  C   UNL     1       2.157   5.324  20.215  0.00  0.00    +0.000 A 
ATOM     15  C   UNL     1       2.071   4.278  21.291  0.00  0.00    +0.000 C 
ATOM     16  C   UNL     1       1.678   6.608  20.584  0.00  0.00    +0.000 A 
ATOM     17  C   UNL     1       1.688   7.709  19.718  0.00  0.00    +0.000 A 
ENDBRANCH   1  13
BRANCH   1  18
ATOM     18  N   UNL     1       3.693   3.957  16.673  0.00  0.00    +0.000 N 
ATOM     19  H   UNL     1       3.069   4.682  16.305  0.00  0.00    +0.000 HD
BRANCH  18  20
ATOM     20  C   UNL     1       5.089   4.292  16.591  0.00  0.00    +0.000 A 
ATOM     21  C   UNL     1       5.745   4.704  17.754  0.00  0.00    +0.000 A 
ATOM     22  C   UNL     1       7.068   5.180  17.699  0.00  0.00    +0.000 A 
ATOM     23  C   UNL     1       7.732   5.209  16.461  0.00  0.00    +0.000 A 
ATOM     24  C   UNL     1       7.084   4.787  15.297  0.00  0.00    +0.000 A 
ATOM     25  C   UNL     1       5.762   4.340  15.359  0.00  0.00    +0.000 A 
ATOM     26 CL   UNL     1       4.987   3.851  13.896  0.00  0.00    +0.000 Cl
BRANCH  22  27
ATOM     27  C   UNL     1       7.762   5.684  18.943  0.00  0.00    +0.000 C 
ATOM     28  F   UNL     1       6.944   5.761  20.028  0.00  0.00    +0.000 F 
ATOM     29  F   UNL     1       8.803   4.890  19.315  0.00  0.00    +0.000 F 
ATOM     30  F   UNL     1       8.280   6.931  18.776  0.00  0.00    +0.000 F 
ENDBRANCH  22  27
ENDBRANCH  18  20
ENDBRANCH   1  18
TORSDOF 4
ENDMDL
MODEL 4
REMARK VINA RESULT:      -8.0      4.609      8.238
REMARK  Name = 
REMARK  6 active torsions:
REMARK  status: ('A' for Active; 'I' for Inactive)
REMARK    1  A    between atoms: C_1  and  C_2
REMARK    2  A    between atoms: C_10  and  S_11
REMARK    3  A    between atoms: S_11  and  N_14
REMARK    4  A    between atoms: N_14  and  C_15
REMARK    5  A    between atoms: C_17  and  C_18
REMARK    6  A    between atoms: C_26  and  C_27
REMARK                            x       y       z     vdW  Elec       q    Type
REMARK                         _______ _______ _______ _____ _____    ______ ____
ROOT
ATOM      1  S   UNL     1       0.861   8.896  21.046  0.00  0.00    +0.000 S 
ATOM      2  O   UNL     1      -0.532   8.615  21.291  0.00  0.00    +0.000 OA
ATOM      3  O   UNL     1       1.692   9.420  22.108  0.00  0.00    +0.000 OA
ENDROOT
BRANCH   1  13
ATOM      4  C   UNL     1       4.040   1.955  17.441  0.00  0.00    +0.000 C 
ATOM      5  C   UNL     1       3.532   3.352  17.716  0.00  0.00    +0.000 C 
ATOM      6  O   UNL     1       3.468   4.134  16.767  0.00  0.00    +0.000 OA
ATOM      7  N   UNL     1       3.144   3.631  19.031  0.00  0.00    +0.000 N 
ATOM      8  C   UNL     1       3.255   2.649  20.119  0.00  0.00    +0.000 C 
ATOM      9  C   UNL     1       2.026   2.706  21.006  0.00  0.00    +0.000 C 
ATOM     10  O   UNL     1       1.892   3.987  21.624  0.00  0.00    +0.000 OA
ATOM     11  C   UNL     1       2.052   5.031  20.741  0.00  0.00    +0.000 A 
ATOM     12  C   UNL     1       1.565   6.263  21.199  0.00  0.00    +0.000 A 
ATOM     13  C   UNL     1       1.661   7.422  20.408  0.00  0.00    +0.000 A 
ATOM     14  C   UNL     1       2.263   7.340  19.145  0.00  0.00    +0.000 A 
ATOM     15  C   UNL     1       2.463   8.472  18.177  0.00  0.00    +0.000 C 
ATOM     16  C   UNL     1       2.735   6.078  18.702  0.00  0.00    +0.000 A 
ATOM     17  C   UNL     1       2.644   4.911  19.471  0.00  0.00    +0.000 A 
ENDBRANCH   1  13
BRANCH   1  18
ATOM     18  N   UNL     1       0.908   9.967  19.713  0.00  0.00    +0.000 N 
ATOM     19  H   UNL     1       1.355   9.466  18.939  0.00  0.00    +0.000 HD
BRANCH  18  20
ATOM     20  C   UNL     1      -0.350  10.574  19.369  0.00  0.00    +0.000 A 
ATOM     21  C   UNL     1      -0.990  10.161  18.197  0.00  0.00    +0.000 A 
ATOM     22  C   UNL     1      -2.144  10.823  17.742  0.00  0.00    +0.000 A 
ATOM     23  C   UNL     1      -2.663  11.888  18.497  0.00  0.00    +0.000 A 
ATOM     24  C   UNL     1      -2.033  12.296  19.676  0.00  0.00    +0.000 A 
ATOM     25  C   UNL     1      -0.873  11.649  20.106  0.00  0.00    +0.000 A 
ATOM     26 CL   UNL     1      -0.109  12.198  21.553  0.00  0.00    +0.000 Cl
BRANCH  22  27
ATOM     27  C   UNL     1      -2.806  10.422  16.445  0.00  0.00    +0.000 C 
ATOM     28  F   UNL     1      -4.166  10.399  16.513  0.00  0.00    +0.000 F 
ATOM     29  F   UNL     1      -2.497  11.263  15.421  0.00  0.00    +0.000 F 
ATOM     30  F   UNL     1      -2.432   9.178  16.037  0.00  0.00    +0.000 F 
ENDBRANCH  22  27
ENDBRANCH  18  20
ENDBRANCH   1  18
TORSDOF 4
ENDMDL
MODEL 5
REMARK VINA RESULT:      -7.7      3.837      5.409
REMARK  Name = 
REMARK  6 active torsions:
REMARK  status: ('A' for Active; 'I' for Inactive)
REMARK    1  A    between atoms: C_1  and  C_2
REMARK    2  A    between atoms: C_10  and  S_11
REMARK    3  A    between atoms: S_11  and  N_14
REMARK    4  A    between atoms: N_14  and  C_15
REMARK    5  A    between atoms: C_17  and  C_18
REMARK    6  A    between atoms: C_26  and  C_27
REMARK                            x       y       z     vdW  Elec       q    Type
REMARK                         _______ _______ _______ _____ _____    ______ ____
ROOT
ATOM      1  S   UNL     1       1.906   8.520  17.997  0.00  0.00    +0.000 S 
ATOM      2  O   UNL     1       0.766   7.781  17.514  0.00  0.00    +0.000 OA
ATOM      3  O   UNL     1       2.786   9.187  17.061  0.00  0.00    +0.000 OA
ENDROOT
BRANCH   1  13
ATOM      4  C   UNL     1      -1.420  13.890  23.599  0.00  0.00    +0.000 C 
ATOM      5  C   UNL     1      -0.943  12.654  22.869  0.00  0.00    +0.000 C 
ATOM      6  O   UNL     1      -1.215  11.559  23.364  0.00  0.00    +0.000 OA
ATOM      7  N   UNL     1      -0.256  12.860  21.669  0.00  0.00    +0.000 N 
ATOM      8  C   UNL     1       0.041  14.199  21.141  0.00  0.00    +0.000 C 
ATOM      9  C   UNL     1      -0.177  14.232  19.640  0.00  0.00    +0.000 C 
ATOM     10  O   UNL     1       0.698  13.325  18.969  0.00  0.00    +0.000 OA
ATOM     11  C   UNL     1       0.731  12.077  19.549  0.00  0.00    +0.000 A 
ATOM     12  C   UNL     1       1.259  11.068  18.734  0.00  0.00    +0.000 A 
ATOM     13  C   UNL     1       1.359   9.741  19.191  0.00  0.00    +0.000 A 
ATOM     14  C   UNL     1       0.931   9.432  20.490  0.00  0.00    +0.000 A 
ATOM     15  C   UNL     1       0.976   8.081  21.146  0.00  0.00    +0.000 C 
ATOM     16  C   UNL     1       0.388  10.471  21.288  0.00  0.00    +0.000 A 
ATOM     17  C   UNL     1       0.275  11.797  20.850  0.00  0.00    +0.000 A 
ENDBRANCH   1  13
BRANCH   1  18
ATOM     18  N   UNL     1       2.818   7.431  18.950  0.00  0.00    +0.000 N 
ATOM     19  H   UNL     1       2.495   7.533  19.917  0.00  0.00    +0.000 HD
BRANCH  18  20
ATOM     20  C   UNL     1       2.835   6.071  18.480  0.00  0.00    +0.000 A 
ATOM     21  C   UNL     1       1.951   5.156  19.056  0.00  0.00    +0.000 A 
ATOM     22  C   UNL     1       2.028   3.788  18.736  0.00  0.00    +0.000 A 
ATOM     23  C   UNL     1       2.990   3.358  17.805  0.00  0.00    +0.000 A 
ATOM     24  C   UNL     1       3.868   4.272  17.217  0.00  0.00    +0.000 A 
ATOM     25  C   UNL     1       3.799   5.624  17.562  0.00  0.00    +0.000 A 
ATOM     26 CL   UNL     1       4.919   6.719  16.833  0.00  0.00    +0.000 Cl
BRANCH  22  27
ATOM     27  C   UNL     1       1.116   2.784  19.401  0.00  0.00    +0.000 C 
ATOM     28  F   UNL     1       1.782   1.769  20.016  0.00  0.00    +0.000 F 
ATOM     29  F   UNL     1       0.329   3.349  20.356  0.00  0.00    +0.000 F 
ATOM     30  F   UNL     1       0.268   2.192  18.516  0.00  0.00    +0.000 F 
ENDBRANCH  22  27
ENDBRANCH  18  20
ENDBRANCH   1  18
TORSDOF 4
ENDMDL
MODEL 6
REMARK VINA RESULT:      -7.7      5.895      9.612
REMARK  Name = 
REMARK  6 active torsions:
REMARK  status: ('A' for Active; 'I' for Inactive)
REMARK    1  A    between atoms: C_1  and  C_2
REMARK    2  A    between atoms: C_10  and  S_11
REMARK    3  A    between atoms: S_11  and  N_14
REMARK    4  A    between atoms: N_14  and  C_15
REMARK    5  A    between atoms: C_17  and  C_18
REMARK    6  A    between atoms: C_26  and  C_27
REMARK                            x       y       z     vdW  Elec       q    Type
REMARK                         _______ _______ _______ _____ _____    ______ ____
ROOT
ATOM      1  S   UNL     1       0.203   9.218  20.497  0.00  0.00    +0.000 S 
ATOM      2  O   UNL     1      -0.600   9.795  19.448  0.00  0.00    +0.000 OA
ATOM      3  O   UNL     1      -0.420   8.414  21.526  0.00  0.00    +0.000 OA
ENDROOT
BRANCH   1  13
ATOM      4  C   UNL     1       5.905   4.536  16.393  0.00  0.00    +0.000 C 
ATOM      5  C   UNL     1       4.916   5.607  16.797  0.00  0.00    +0.000 C 
ATOM      6  O   UNL     1       4.658   6.485  15.973  0.00  0.00    +0.000 OA
ATOM      7  N   UNL     1       4.350   5.490  18.071  0.00  0.00    +0.000 N 
ATOM      8  C   UNL     1       4.713   4.416  19.007  0.00  0.00    +0.000 C 
ATOM      9  C   UNL     1       3.475   3.894  19.711  0.00  0.00    +0.000 C 
ATOM     10  O   UNL     1       2.848   4.917  20.485  0.00  0.00    +0.000 OA
ATOM     11  C   UNL     1       2.700   6.101  19.798  0.00  0.00    +0.000 A 
ATOM     12  C   UNL     1       1.775   6.991  20.359  0.00  0.00    +0.000 A 
ATOM     13  C   UNL     1       1.519   8.242  19.768  0.00  0.00    +0.000 A 
ATOM     14  C   UNL     1       2.212   8.602  18.604  0.00  0.00    +0.000 A 
ATOM     15  C   UNL     1       2.077   9.896  17.851  0.00  0.00    +0.000 C 
ATOM     16  C   UNL     1       3.132   7.676  18.051  0.00  0.00    +0.000 A 
ATOM     17  C   UNL     1       3.398   6.424  18.620  0.00  0.00    +0.000 A 
ENDBRANCH   1  13
BRANCH   1  18
ATOM     18  N   UNL     1       1.044  10.515  21.228  0.00  0.00    +0.000 N 
ATOM     19  H   UNL     1       1.902  10.661  20.687  0.00  0.00    +0.000 HD
BRANCH  18  20
ATOM     20  C   UNL     1       0.271  11.711  21.431  0.00  0.00    +0.000 A 
ATOM     21  C   UNL     1      -0.836  11.652  22.282  0.00  0.00    +0.000 A 
ATOM     22  C   UNL     1      -1.706  12.751  22.400  0.00  0.00    +0.000 A 
ATOM     23  C   UNL     1      -1.432  13.921  21.672  0.00  0.00    +0.000 A 
ATOM     24  C   UNL     1      -0.319  13.988  20.829  0.00  0.00    +0.000 A 
ATOM     25  C   UNL     1       0.524  12.883  20.700  0.00  0.00    +0.000 A 
ATOM     26 CL   UNL     1       1.874  12.996  19.629  0.00  0.00    +0.000 Cl
BRANCH  22  27
ATOM     27  C   UNL     1      -2.938  12.673  23.271  0.00  0.00    +0.000 C 
ATOM     28  F   UNL     1      -3.054  11.495  23.944  0.00  0.00    +0.000 F 
ATOM     29  F   UNL     1      -2.969  13.650  24.218  0.00  0.00    +0.000 F 
ATOM     30  F   UNL     1      -4.087  12.808  22.554  0.00  0.00    +0.000 F 
ENDBRANCH  22  27
ENDBRANCH  18  20
ENDBRANCH   1  18
TORSDOF 4
ENDMDL
MODEL 7
REMARK VINA RESULT:      -7.6      5.074      8.688
REMARK  Name = 
REMARK  6 active torsions:
REMARK  status: ('A' for Active; 'I' for Inactive)
REMARK    1  A    between atoms: C_1  and  C_2
REMARK    2  A    between atoms: C_10  and  S_11
REMARK    3  A    between atoms: S_11  and  N_14
REMARK    4  A    between atoms: N_14  and  C_15
REMARK    5  A    between atoms: C_17  and  C_18
REMARK    6  A    between atoms: C_26  and  C_27
REMARK                            x       y       z     vdW  Elec       q    Type
REMARK                         _______ _______ _______ _____ _____    ______ ____
ROOT
ATOM      1  S   UNL     1       0.232   9.136  20.574  0.00  0.00    +0.000 S 
ATOM      2  O   UNL     1      -0.521   9.782  19.527  0.00  0.00    +0.000 OA
ATOM      3  O   UNL     1      -0.450   8.329  21.563  0.00  0.00    +0.000 OA
ENDROOT
BRANCH   1  13
ATOM      4  C   UNL     1       5.794   4.295  16.463  0.00  0.00    +0.000 C 
ATOM      5  C   UNL     1       4.831   5.390  16.865  0.00  0.00    +0.000 C 
ATOM      6  O   UNL     1       4.581   6.264  16.034  0.00  0.00    +0.000 OA
ATOM      7  N   UNL     1       4.277   5.299  18.146  0.00  0.00    +0.000 N 
ATOM      8  C   UNL     1       4.628   4.229  19.091  0.00  0.00    +0.000 C 
ATOM      9  C   UNL     1       3.388   3.739  19.814  0.00  0.00    +0.000 C 
ATOM     10  O   UNL     1       2.790   4.783  20.583  0.00  0.00    +0.000 OA
ATOM     11  C   UNL     1       2.659   5.962  19.884  0.00  0.00    +0.000 A 
ATOM     12  C   UNL     1       1.758   6.877  20.445  0.00  0.00    +0.000 A 
ATOM     13  C   UNL     1       1.520   8.126  19.843  0.00  0.00    +0.000 A 
ATOM     14  C   UNL     1       2.207   8.459  18.667  0.00  0.00    +0.000 A 
ATOM     15  C   UNL     1       2.089   9.747  17.900  0.00  0.00    +0.000 C 
ATOM     16  C   UNL     1       3.103   7.509  18.114  0.00  0.00    +0.000 A 
ATOM     17  C   UNL     1       3.349   6.258  18.695  0.00  0.00    +0.000 A 
ENDBRANCH   1  13
BRANCH   1  18
ATOM     18  N   UNL     1       1.112  10.371  21.365  0.00  0.00    +0.000 N 
ATOM     19  H   UNL     1       2.105  10.203  21.174  0.00  0.00    +0.000 HD
BRANCH  18  20
ATOM     20  C   UNL     1       0.681  11.712  21.078  0.00  0.00    +0.000 A 
ATOM     21  C   UNL     1       1.385  12.449  20.122  0.00  0.00    +0.000 A 
ATOM     22  C   UNL     1       1.095  13.809  19.911  0.00  0.00    +0.000 A 
ATOM     23  C   UNL     1       0.067  14.411  20.655  0.00  0.00    +0.000 A 
ATOM     24  C   UNL     1      -0.648  13.676  21.604  0.00  0.00    +0.000 A 
ATOM     25  C   UNL     1      -0.335  12.333  21.824  0.00  0.00    +0.000 A 
ATOM     26 CL   UNL     1      -1.223  11.464  23.023  0.00  0.00    +0.000 Cl
BRANCH  22  27
ATOM     27  C   UNL     1       1.893  14.626  18.922  0.00  0.00    +0.000 C 
ATOM     28  F   UNL     1       1.220  15.710  18.445  0.00  0.00    +0.000 F 
ATOM     29  F   UNL     1       3.047  15.108  19.457  0.00  0.00    +0.000 F 
ATOM     30  F   UNL     1       2.257  13.902  17.828  0.00  0.00    +0.000 F 
ENDBRANCH  22  27
ENDBRANCH  18  20
ENDBRANCH   1  18
TORSDOF 4
ENDMDL
MODEL 8
REMARK VINA RESULT:      -7.6      2.552      4.028
REMARK  Name = 
REMARK  6 active torsions:
REMARK  status: ('A' for Active; 'I' for Inactive)
REMARK    1  A    between atoms: C_1  and  C_2
REMARK    2  A    between atoms: C_10  and  S_11
REMARK    3  A    between atoms: S_11  and  N_14
REMARK    4  A    between atoms: N_14  and  C_15
REMARK    5  A    between atoms: C_17  and  C_18
REMARK    6  A    between atoms: C_26  and  C_27
REMARK                            x       y       z     vdW  Elec       q    Type
REMARK                         _______ _______ _______ _____ _____    ______ ____
ROOT
ATOM      1  S   UNL     1       2.403   6.009  20.061  0.00  0.00    +0.000 S 
ATOM      2  O   UNL     1       3.831   6.185  19.963  0.00  0.00    +0.000 OA
ATOM      3  O   UNL     1       1.840   5.268  21.170  0.00  0.00    +0.000 OA
ENDROOT
BRANCH   1  13
ATOM      4  C   UNL     1      -0.596  13.899  19.895  0.00  0.00    +0.000 C 
ATOM      5  C   UNL     1       0.143  12.614  19.596  0.00  0.00    +0.000 C 
ATOM      6  O   UNL     1       0.968  12.628  18.682  0.00  0.00    +0.000 OA
ATOM      7  N   UNL     1      -0.152  11.517  20.413  0.00  0.00    +0.000 N 
ATOM      8  C   UNL     1      -1.157  11.569  21.484  0.00  0.00    +0.000 C 
ATOM      9  C   UNL     1      -0.654  10.836  22.713  0.00  0.00    +0.000 C 
ATOM     10  O   UNL     1      -0.425   9.454  22.434  0.00  0.00    +0.000 OA
ATOM     11  C   UNL     1       0.283   9.247  21.272  0.00  0.00    +0.000 A 
ATOM     12  C   UNL     1       0.852   7.972  21.153  0.00  0.00    +0.000 A 
ATOM     13  C   UNL     1       1.602   7.613  20.019  0.00  0.00    +0.000 A 
ATOM     14  C   UNL     1       1.773   8.549  18.989  0.00  0.00    +0.000 A 
ATOM     15  C   UNL     1       2.527   8.335  17.706  0.00  0.00    +0.000 C 
ATOM     16  C   UNL     1       1.198   9.836  19.142  0.00  0.00    +0.000 A 
ATOM     17  C   UNL     1       0.452  10.215  20.265  0.00  0.00    +0.000 A 
ENDBRANCH   1  13
BRANCH   1  18
ATOM     18  N   UNL     1       1.904   5.290  18.592  0.00  0.00    +0.000 N 
ATOM     19  H   UNL     1       1.637   6.051  17.959  0.00  0.00    +0.000 HD
BRANCH  18  20
ATOM     20  C   UNL     1       2.835   4.355  18.020  0.00  0.00    +0.000 A 
ATOM     21  C   UNL     1       3.800   4.835  17.129  0.00  0.00    +0.000 A 
ATOM     22  C   UNL     1       4.637   3.944  16.434  0.00  0.00    +0.000 A 
ATOM     23  C   UNL     1       4.510   2.564  16.667  0.00  0.00    +0.000 A 
ATOM     24  C   UNL     1       3.555   2.080  17.566  0.00  0.00    +0.000 A 
ATOM     25  C   UNL     1       2.712   2.972  18.232  0.00  0.00    +0.000 A 
ATOM     26 CL   UNL     1       1.527   2.335  19.315  0.00  0.00    +0.000 Cl
BRANCH  22  27
ATOM     27  C   UNL     1       5.640   4.452  15.424  0.00  0.00    +0.000 C 
ATOM     28  F   UNL     1       6.929   4.146  15.739  0.00  0.00    +0.000 F 
ATOM     29  F   UNL     1       5.428   3.944  14.180  0.00  0.00    +0.000 F 
ATOM     30  F   UNL     1       5.598   5.806  15.292  0.00  0.00    +0.000 F 
ENDBRANCH  22  27
ENDBRANCH  18  20
ENDBRANCH   1  18
TORSDOF 4
ENDMDL
MODEL 9
REMARK VINA RESULT:      -7.6      4.831      8.457
REMARK  Name = 
REMARK  6 active torsions:
REMARK  status: ('A' for Active; 'I' for Inactive)
REMARK    1  A    between atoms: C_1  and  C_2
REMARK    2  A    between atoms: C_10  and  S_11
REMARK    3  A    between atoms: S_11  and  N_14
REMARK    4  A    between atoms: N_14  and  C_15
REMARK    5  A    between atoms: C_17  and  C_18
REMARK    6  A    between atoms: C_26  and  C_27
REMARK                            x       y       z     vdW  Elec       q    Type
REMARK                         _______ _______ _______ _____ _____    ______ ____
ROOT
ATOM      1  S   UNL     1       0.520   9.474  20.789  0.00  0.00    +0.000 S 
ATOM      2  O   UNL     1      -0.786   8.887  20.969  0.00  0.00    +0.000 OA
ATOM      3  O   UNL     1       1.208  10.065  21.917  0.00  0.00    +0.000 OA
ENDROOT
BRANCH   1  13
ATOM      4  C   UNL     1       5.152   3.726  16.694  0.00  0.00    +0.000 C 
ATOM      5  C   UNL     1       4.368   4.960  17.081  0.00  0.00    +0.000 C 
ATOM      6  O   UNL     1       4.194   5.820  16.216  0.00  0.00    +0.000 OA
ATOM      7  N   UNL     1       3.876   5.007  18.389  0.00  0.00    +0.000 N 
ATOM      8  C   UNL     1       4.130   3.945  19.373  0.00  0.00    +0.000 C 
ATOM      9  C   UNL     1       2.876   3.665  20.179  0.00  0.00    +0.000 C 
ATOM     10  O   UNL     1       2.466   4.817  20.917  0.00  0.00    +0.000 OA
ATOM     11  C   UNL     1       2.457   5.968  20.161  0.00  0.00    +0.000 A 
ATOM     12  C   UNL     1       1.718   7.023  20.712  0.00  0.00    +0.000 A 
ATOM     13  C   UNL     1       1.619   8.263  20.055  0.00  0.00    +0.000 A 
ATOM     14  C   UNL     1       2.281   8.443  18.832  0.00  0.00    +0.000 A 
ATOM     15  C   UNL     1       2.297   9.696  18.003  0.00  0.00    +0.000 C 
ATOM     16  C   UNL     1       3.010   7.353  18.291  0.00  0.00    +0.000 A 
ATOM     17  C   UNL     1       3.116   6.109  18.927  0.00  0.00    +0.000 A 
ENDBRANCH   1  13
BRANCH   1  18
ATOM     18  N   UNL     1       0.355  10.645  19.554  0.00  0.00    +0.000 N 
ATOM     19  H   UNL     1       0.935  10.337  18.767  0.00  0.00    +0.000 HD
BRANCH  18  20
ATOM     20  C   UNL     1      -0.999  10.967  19.190  0.00  0.00    +0.000 A 
ATOM     21  C   UNL     1      -1.489  10.504  17.966  0.00  0.00    +0.000 A 
ATOM     22  C   UNL     1      -2.752  10.912  17.500  0.00  0.00    +0.000 A 
ATOM     23  C   UNL     1      -3.529  11.770  18.297  0.00  0.00    +0.000 A 
ATOM     24  C   UNL     1      -3.048  12.226  19.527  0.00  0.00    +0.000 A 
ATOM     25  C   UNL     1      -1.782  11.835  19.968  0.00  0.00    +0.000 A 
ATOM     26 CL   UNL     1      -1.213  12.440  21.482  0.00  0.00    +0.000 Cl
BRANCH  22  27
ATOM     27  C   UNL     1      -3.261  10.464  16.150  0.00  0.00    +0.000 C 
ATOM     28  F   UNL     1      -4.522  10.898  15.874  0.00  0.00    +0.000 F 
ATOM     29  F   UNL     1      -2.481  10.905  15.127  0.00  0.00    +0.000 F 
ATOM     30  F   UNL     1      -3.300   9.108  16.037  0.00  0.00    +0.000 F 
ENDBRANCH  22  27
ENDBRANCH  18  20
ENDBRANCH   1  18
TORSDOF 4
ENDMDL
