MODEL 1
REMARK VINA RESULT:      -7.6      0.000      0.000
REMARK  Name = 
REMARK  1 active torsions:
REMARK  status: ('A' for Active; 'I' for Inactive)
REMARK    1  A    between atoms: C_7  and  C_8
REMARK                            x       y       z     vdW  Elec       q    Type
REMARK                         _______ _______ _______ _____ _____    ______ ____
ROOT
ATOM      1  O   UNL     1       8.107   5.186  20.741  0.00  0.00    +0.000 OA
ATOM      2  C   UNL     1       7.643   5.622  19.703  0.00  0.00    +0.000 C 
ATOM      3  N   UNL     1       8.224   6.557  18.885  0.00  0.00    +0.000 N 
ATOM      4  C   UNL     1       7.434   6.837  17.806  0.00  0.00    +0.000 C 
ATOM      5  O   UNL     1       7.654   7.611  16.895  0.00  0.00    +0.000 OA
ATOM      6  C   UNL     1       6.228   5.974  17.991  0.00  0.00    +0.000 C 
ATOM      7  C   UNL     1       5.170   5.941  17.178  0.00  0.00    +0.000 C 
ATOM      8  N   UNL     1       6.431   5.264  19.140  0.00  0.00    +0.000 N 
ATOM      9  H   UNL     1       9.114   6.986  19.068  0.00  0.00    +0.000 HD
ATOM     10  H   UNL     1       5.796   4.599  19.552  0.00  0.00    +0.000 HD
ENDROOT
BRANCH   7  11
ATOM     11  C   UNL     1       3.998   5.090  17.411  0.00  0.00    +0.000 A 
ATOM     12  C   UNL     1       4.106   3.725  17.107  0.00  0.00    +0.000 A 
ATOM     13  C   UNL     1       3.039   2.856  17.348  0.00  0.00    +0.000 A 
ATOM     14  C   UNL     1       1.856   3.341  17.902  0.00  0.00    +0.000 A 
ATOM     15  C   UNL     1       1.730   4.697  18.201  0.00  0.00    +0.000 A 
ATOM     16  C   UNL     1       2.794   5.571  17.951  0.00  0.00    +0.000 A 
ATOM     17 BR   UNL     1       2.536   7.411  18.355  0.00  0.00    +0.000 Br
ENDBRANCH   7  11
TORSDOF 1
ENDMDL
MODEL 2
REMARK VINA RESULT:      -7.5      1.922      2.303
REMARK  Name = 
REMARK  1 active torsions:
REMARK  status: ('A' for Active; 'I' for Inactive)
REMARK    1  A    between atoms: C_7  and  C_8
REMARK                            x       y       z     vdW  Elec       q    Type
REMARK                         _______ _______ _______ _____ _____    ______ ____
ROOT
ATOM      1  O   UNL     1       8.198   4.705  18.660  0.00  0.00    +0.000 OA
ATOM      2  C   UNL     1       7.351   4.567  17.797  0.00  0.00    +0.000 C 
ATOM      3  N   UNL     1       7.541   4.700  16.446  0.00  0.00    +0.000 N 
ATOM      4  C   UNL     1       6.380   4.493  15.755  0.00  0.00    +0.000 C 
ATOM      5  O   UNL     1       6.204   4.533  14.553  0.00  0.00    +0.000 OA
ATOM      6  C   UNL     1       5.362   4.205  16.810  0.00  0.00    +0.000 C 
ATOM      7  C   UNL     1       4.067   3.967  16.591  0.00  0.00    +0.000 C 
ATOM      8  N   UNL     1       6.020   4.252  18.006  0.00  0.00    +0.000 N 
ATOM      9  H   UNL     1       8.422   4.932  16.023  0.00  0.00    +0.000 HD
ATOM     10  H   UNL     1       5.614   4.113  18.919  0.00  0.00    +0.000 HD
ENDROOT
BRANCH   7  11
ATOM     11  C   UNL     1       3.101   3.707  17.663  0.00  0.00    +0.000 A 
ATOM     12  C   UNL     1       2.745   2.375  17.919  0.00  0.00    +0.000 A 
ATOM     13  C   UNL     1       1.862   2.061  18.955  0.00  0.00    +0.000 A 
ATOM     14  C   UNL     1       1.332   3.074  19.751  0.00  0.00    +0.000 A 
ATOM     15  C   UNL     1       1.669   4.404  19.503  0.00  0.00    +0.000 A 
ATOM     16  C   UNL     1       2.545   4.722  18.459  0.00  0.00    +0.000 A 
ATOM     17 BR   UNL     1       2.931   6.560  18.163  0.00  0.00    +0.000 Br
ENDBRANCH   7  11
TORSDOF 1
ENDMDL
MODEL 3
REMARK VINA RESULT:      -7.4      2.223      2.906
REMARK  Name = 
REMARK  1 active torsions:
REMARK  status: ('A' for Active; 'I' for Inactive)
REMARK    1  A    between atoms: C_7  and  C_8
REMARK                            x       y       z     vdW  Elec       q    Type
REMARK                         _______ _______ _______ _____ _____    ______ ____
ROOT
ATOM      1  O   UNL     1       6.721   4.183  14.357  0.00  0.00    +0.000 OA
ATOM      2  C   UNL     1       6.684   4.279  15.571  0.00  0.00    +0.000 C 
ATOM      3  N   UNL     1       7.725   4.640  16.388  0.00  0.00    +0.000 N 
ATOM      4  C   UNL     1       7.352   4.637  17.702  0.00  0.00    +0.000 C 
ATOM      5  O   UNL     1       8.028   4.910  18.675  0.00  0.00    +0.000 OA
ATOM      6  C   UNL     1       5.917   4.221  17.684  0.00  0.00    +0.000 C 
ATOM      7  C   UNL     1       5.146   4.057  18.761  0.00  0.00    +0.000 C 
ATOM      8  N   UNL     1       5.583   4.040  16.372  0.00  0.00    +0.000 N 
ATOM      9  H   UNL     1       8.646   4.865  16.057  0.00  0.00    +0.000 HD
ATOM     10  H   UNL     1       4.685   3.745  16.019  0.00  0.00    +0.000 HD
ENDROOT
BRANCH   7  11
ATOM     11  C   UNL     1       3.745   3.629  18.694  0.00  0.00    +0.000 A 
ATOM     12  C   UNL     1       3.468   2.261  18.834  0.00  0.00    +0.000 A 
ATOM     13  C   UNL     1       2.150   1.798  18.822  0.00  0.00    +0.000 A 
ATOM     14  C   UNL     1       1.096   2.697  18.678  0.00  0.00    +0.000 A 
ATOM     15  C   UNL     1       1.355   4.058  18.527  0.00  0.00    +0.000 A 
ATOM     16  C   UNL     1       2.675   4.524  18.529  0.00  0.00    +0.000 A 
ATOM     17 BR   UNL     1       2.950   6.389  18.287  0.00  0.00    +0.000 Br
ENDBRANCH   7  11
TORSDOF 1
ENDMDL
MODEL 4
REMARK VINA RESULT:      -7.3      1.410      1.563
REMARK  Name = 
REMARK  1 active torsions:
REMARK  status: ('A' for Active; 'I' for Inactive)
REMARK    1  A    between atoms: C_7  and  C_8
REMARK                            x       y       z     vdW  Elec       q    Type
REMARK                         _______ _______ _______ _____ _____    ______ ____
ROOT
ATOM      1  O   UNL     1       7.728   5.406  20.294  0.00  0.00    +0.000 OA
ATOM      2  C   UNL     1       7.263   5.140  19.199  0.00  0.00    +0.000 C 
ATOM      3  N   UNL     1       7.905   5.264  17.994  0.00  0.00    +0.000 N 
ATOM      4  C   UNL     1       7.096   4.894  16.957  0.00  0.00    +0.000 C 
ATOM      5  O   UNL     1       7.356   4.881  15.770  0.00  0.00    +0.000 OA
ATOM      6  C   UNL     1       5.808   4.504  17.607  0.00  0.00    +0.000 C 
ATOM      7  C   UNL     1       4.710   4.097  16.966  0.00  0.00    +0.000 C 
ATOM      8  N   UNL     1       5.989   4.663  18.951  0.00  0.00    +0.000 N 
ATOM      9  H   UNL     1       8.848   5.595  17.892  0.00  0.00    +0.000 HD
ATOM     10  H   UNL     1       5.302   4.496  19.672  0.00  0.00    +0.000 HD
ENDROOT
BRANCH   7  11
ATOM     11  C   UNL     1       3.461   3.742  17.647  0.00  0.00    +0.000 A 
ATOM     12  C   UNL     1       3.151   2.382  17.785  0.00  0.00    +0.000 A 
ATOM     13  C   UNL     1       1.997   1.980  18.462  0.00  0.00    +0.000 A 
ATOM     14  C   UNL     1       1.145   2.935  19.015  0.00  0.00    +0.000 A 
ATOM     15  C   UNL     1       1.435   4.291  18.877  0.00  0.00    +0.000 A 
ATOM     16  C   UNL     1       2.585   4.696  18.190  0.00  0.00    +0.000 A 
ATOM     17 BR   UNL     1       2.895   6.563  18.017  0.00  0.00    +0.000 Br
ENDBRANCH   7  11
TORSDOF 1
ENDMDL
MODEL 5
REMARK VINA RESULT:      -7.3      2.026      2.282
REMARK  Name = 
REMARK  1 active torsions:
REMARK  status: ('A' for Active; 'I' for Inactive)
REMARK    1  A    between atoms: C_7  and  C_8
REMARK                            x       y       z     vdW  Elec       q    Type
REMARK                         _______ _______ _______ _____ _____    ______ ____
ROOT
ATOM      1  O   UNL     1       8.298   4.140  17.506  0.00  0.00    +0.000 OA
ATOM      2  C   UNL     1       7.246   4.617  17.121  0.00  0.00    +0.000 C 
ATOM      3  N   UNL     1       7.100   5.598  16.174  0.00  0.00    +0.000 N 
ATOM      4  C   UNL     1       5.785   5.917  15.984  0.00  0.00    +0.000 C 
ATOM      5  O   UNL     1       5.313   6.736  15.220  0.00  0.00    +0.000 OA
ATOM      6  C   UNL     1       5.043   5.029  16.931  0.00  0.00    +0.000 C 
ATOM      7  C   UNL     1       3.720   5.018  17.105  0.00  0.00    +0.000 C 
ATOM      8  N   UNL     1       5.984   4.269  17.566  0.00  0.00    +0.000 N 
ATOM      9  H   UNL     1       7.867   6.031  15.692  0.00  0.00    +0.000 HD
ATOM     10  H   UNL     1       5.811   3.575  18.278  0.00  0.00    +0.000 HD
ENDROOT
BRANCH   7  11
ATOM     11  C   UNL     1       3.038   4.140  18.061  0.00  0.00    +0.000 A 
ATOM     12  C   UNL     1       2.985   2.769  17.773  0.00  0.00    +0.000 A 
ATOM     13  C   UNL     1       2.388   1.876  18.666  0.00  0.00    +0.000 A 
ATOM     14  C   UNL     1       1.844   2.344  19.860  0.00  0.00    +0.000 A 
ATOM     15  C   UNL     1       1.879   3.706  20.157  0.00  0.00    +0.000 A 
ATOM     16  C   UNL     1       2.469   4.603  19.259  0.00  0.00    +0.000 A 
ATOM     17 BR   UNL     1       2.451   6.448  19.718  0.00  0.00    +0.000 Br
ENDBRANCH   7  11
TORSDOF 1
ENDMDL
MODEL 6
REMARK VINA RESULT:      -7.3      1.333      1.658
REMARK  Name = 
REMARK  1 active torsions:
REMARK  status: ('A' for Active; 'I' for Inactive)
REMARK    1  A    between atoms: C_7  and  C_8
REMARK                            x       y       z     vdW  Elec       q    Type
REMARK                         _______ _______ _______ _____ _____    ______ ____
ROOT
ATOM      1  O   UNL     1       7.567   5.361  20.145  0.00  0.00    +0.000 OA
ATOM      2  C   UNL     1       6.797   5.547  19.219  0.00  0.00    +0.000 C 
ATOM      3  N   UNL     1       7.055   6.271  18.084  0.00  0.00    +0.000 N 
ATOM      4  C   UNL     1       5.973   6.296  17.250  0.00  0.00    +0.000 C 
ATOM      5  O   UNL     1       5.869   6.842  16.169  0.00  0.00    +0.000 OA
ATOM      6  C   UNL     1       4.931   5.496  17.964  0.00  0.00    +0.000 C 
ATOM      7  C   UNL     1       3.690   5.275  17.525  0.00  0.00    +0.000 C 
ATOM      8  N   UNL     1       5.503   5.068  19.128  0.00  0.00    +0.000 N 
ATOM      9  H   UNL     1       7.928   6.733  17.899  0.00  0.00    +0.000 HD
ATOM     10  H   UNL     1       5.059   4.513  19.844  0.00  0.00    +0.000 HD
ENDROOT
BRANCH   7  11
ATOM     11  C   UNL     1       2.696   4.498  18.272  0.00  0.00    +0.000 A 
ATOM     12  C   UNL     1       2.461   3.174  17.872  0.00  0.00    +0.000 A 
ATOM     13  C   UNL     1       1.558   2.370  18.571  0.00  0.00    +0.000 A 
ATOM     14  C   UNL     1       0.885   2.878  19.680  0.00  0.00    +0.000 A 
ATOM     15  C   UNL     1       1.099   4.195  20.083  0.00  0.00    +0.000 A 
ATOM     16  C   UNL     1       1.997   5.006  19.379  0.00  0.00    +0.000 A 
ATOM     17 BR   UNL     1       2.213   6.799  19.970  0.00  0.00    +0.000 Br
ENDBRANCH   7  11
TORSDOF 1
ENDMDL
MODEL 7
REMARK VINA RESULT:      -7.1      2.646      3.170
REMARK  Name = 
REMARK  1 active torsions:
REMARK  status: ('A' for Active; 'I' for Inactive)
REMARK    1  A    between atoms: C_7  and  C_8
REMARK                            x       y       z     vdW  Elec       q    Type
REMARK                         _______ _______ _______ _____ _____    ______ ____
ROOT
ATOM      1  O   UNL     1       8.429   4.400  18.103  0.00  0.00    +0.000 OA
ATOM      2  C   UNL     1       7.385   4.469  17.478  0.00  0.00    +0.000 C 
ATOM      3  N   UNL     1       7.261   4.601  16.120  0.00  0.00    +0.000 N 
ATOM      4  C   UNL     1       5.949   4.663  15.743  0.00  0.00    +0.000 C 
ATOM      5  O   UNL     1       5.494   4.775  14.620  0.00  0.00    +0.000 OA
ATOM      6  C   UNL     1       5.185   4.562  17.023  0.00  0.00    +0.000 C 
ATOM      7  C   UNL     1       3.856   4.606  17.136  0.00  0.00    +0.000 C 
ATOM      8  N   UNL     1       6.112   4.433  18.018  0.00  0.00    +0.000 N 
ATOM      9  H   UNL     1       8.039   4.656  15.487  0.00  0.00    +0.000 HD
ATOM     10  H   UNL     1       5.923   4.354  19.005  0.00  0.00    +0.000 HD
ENDROOT
BRANCH   7  11
ATOM     11  C   UNL     1       3.151   4.521  18.419  0.00  0.00    +0.000 A 
ATOM     12  C   UNL     1       2.739   5.718  19.023  0.00  0.00    +0.000 A 
ATOM     13  C   UNL     1       2.026   5.700  20.224  0.00  0.00    +0.000 A 
ATOM     14  C   UNL     1       1.711   4.485  20.830  0.00  0.00    +0.000 A 
ATOM     15  C   UNL     1       2.122   3.288  20.247  0.00  0.00    +0.000 A 
ATOM     16  C   UNL     1       2.846   3.304  19.049  0.00  0.00    +0.000 A 
ATOM     17 BR   UNL     1       3.398   1.632  18.333  0.00  0.00    +0.000 Br
ENDBRANCH   7  11
TORSDOF 1
ENDMDL
MODEL 8
REMARK VINA RESULT:      -7.1      2.633      3.551
REMARK  Name = 
REMARK  1 active torsions:
REMARK  status: ('A' for Active; 'I' for Inactive)
REMARK    1  A    between atoms: C_7  and  C_8
REMARK                            x       y       z     vdW  Elec       q    Type
REMARK                         _______ _______ _______ _____ _____    ______ ____
ROOT
ATOM      1  O   UNL     1       5.163   6.862  15.196  0.00  0.00    +0.000 OA
ATOM      2  C   UNL     1       5.527   6.178  16.135  0.00  0.00    +0.000 C 
ATOM      3  N   UNL     1       6.813   5.783  16.400  0.00  0.00    +0.000 N 
ATOM      4  C   UNL     1       6.876   5.010  17.525  0.00  0.00    +0.000 C 
ATOM      5  O   UNL     1       7.858   4.504  18.035  0.00  0.00    +0.000 OA
ATOM      6  C   UNL     1       5.462   4.919  17.998  0.00  0.00    +0.000 C 
ATOM      7  C   UNL     1       5.045   4.232  19.064  0.00  0.00    +0.000 C 
ATOM      8  N   UNL     1       4.713   5.656  17.125  0.00  0.00    +0.000 N 
ATOM      9  H   UNL     1       7.603   6.024  15.829  0.00  0.00    +0.000 HD
ATOM     10  H   UNL     1       3.714   5.788  17.157  0.00  0.00    +0.000 HD
ENDROOT
BRANCH   7  11
ATOM     11  C   UNL     1       3.641   4.158  19.479  0.00  0.00    +0.000 A 
ATOM     12  C   UNL     1       3.104   5.248  20.180  0.00  0.00    +0.000 A 
ATOM     13  C   UNL     1       1.761   5.255  20.565  0.00  0.00    +0.000 A 
ATOM     14  C   UNL     1       0.939   4.176  20.246  0.00  0.00    +0.000 A 
ATOM     15  C   UNL     1       1.460   3.081  19.559  0.00  0.00    +0.000 A 
ATOM     16  C   UNL     1       2.808   3.067  19.181  0.00  0.00    +0.000 A 
ATOM     17 BR   UNL     1       3.453   1.526  18.275  0.00  0.00    +0.000 Br
ENDBRANCH   7  11
TORSDOF 1
ENDMDL
MODEL 9
REMARK VINA RESULT:      -7.1      3.578      5.183
REMARK  Name = 
REMARK  1 active torsions:
REMARK  status: ('A' for Active; 'I' for Inactive)
REMARK    1  A    between atoms: C_7  and  C_8
REMARK                            x       y       z     vdW  Elec       q    Type
REMARK                         _______ _______ _______ _____ _____    ______ ____
ROOT
ATOM      1  O   UNL     1       2.453   3.249  22.302  0.00  0.00    +0.000 OA
ATOM      2  C   UNL     1       2.133   3.228  21.127  0.00  0.00    +0.000 C 
ATOM      3  N   UNL     1       1.009   2.644  20.603  0.00  0.00    +0.000 N 
ATOM      4  C   UNL     1       0.957   2.789  19.245  0.00  0.00    +0.000 C 
ATOM      5  O   UNL     1       0.098   2.395  18.480  0.00  0.00    +0.000 OA
ATOM      6  C   UNL     1       2.198   3.547  18.901  0.00  0.00    +0.000 C 
ATOM      7  C   UNL     1       2.577   3.892  17.669  0.00  0.00    +0.000 C 
ATOM      8  N   UNL     1       2.845   3.787  20.080  0.00  0.00    +0.000 N 
ATOM      9  H   UNL     1       0.319   2.162  21.152  0.00  0.00    +0.000 HD
ATOM     10  H   UNL     1       3.724   4.268  20.194  0.00  0.00    +0.000 HD
ENDROOT
BRANCH   7  11
ATOM     11  C   UNL     1       3.816   4.620  17.379  0.00  0.00    +0.000 A 
ATOM     12  C   UNL     1       4.906   3.892  16.880  0.00  0.00    +0.000 A 
ATOM     13  C   UNL     1       6.099   4.536  16.544  0.00  0.00    +0.000 A 
ATOM     14  C   UNL     1       6.213   5.917  16.697  0.00  0.00    +0.000 A 
ATOM     15  C   UNL     1       5.142   6.653  17.202  0.00  0.00    +0.000 A 
ATOM     16  C   UNL     1       3.949   6.008  17.548  0.00  0.00    +0.000 A 
ATOM     17 BR   UNL     1       2.546   7.076  18.259  0.00  0.00    +0.000 Br
ENDBRANCH   7  11
TORSDOF 1
ENDMDL
