MODEL 1
REMARK VINA RESULT:      -6.5      0.000      0.000
REMARK  Name = 
REMARK  3 active torsions:
REMARK  status: ('A' for Active; 'I' for Inactive)
REMARK    1  A    between atoms: C_1  and  N_2
REMARK    2  A    between atoms: N_2  and  C_3
REMARK    3  A    between atoms: C_6  and  N_7
REMARK                            x       y       z     vdW  Elec       q    Type
REMARK                         _______ _______ _______ _____ _____    ______ ____
ROOT
ATOM      1  C   UNL     1       5.490   4.508  14.906  0.00  0.00    +0.000 C 
ATOM      2  N   UNL     1       5.193   5.128  16.188  0.00  0.00    +0.000 N 
ATOM      3  C   UNL     1       5.086   6.579  16.232  0.00  0.00    +0.000 C 
ATOM      4  C   UNL     1       4.399   4.432  17.106  0.00  0.00    +0.000 A 
ATOM      5  C   UNL     1       4.478   3.045  17.213  0.00  0.00    +0.000 A 
ATOM      6  C   UNL     1       3.783   2.362  18.216  0.00  0.00    +0.000 A 
ATOM      7  C   UNL     1       2.888   3.084  19.032  0.00  0.00    +0.000 A 
ATOM      8  C   UNL     1       2.064   2.493  20.023  0.00  0.00    +0.000 A 
ATOM      9  C   UNL     1       1.206   3.263  20.808  0.00  0.00    +0.000 A 
ATOM     10  C   UNL     1       1.151   4.631  20.604  0.00  0.00    +0.000 A 
ATOM     11  C   UNL     1       1.958   5.220  19.627  0.00  0.00    +0.000 A 
ATOM     12  C   UNL     1       2.832   4.477  18.841  0.00  0.00    +0.000 A 
ATOM     13  N   UNL     1       3.587   5.124  17.933  0.00  0.00    +0.000 NA
ENDROOT
BRANCH   6  14
ATOM     14  N   UNL     1       3.854   0.951  18.231  0.00  0.00    +0.000 N 
ATOM     15  H   UNL     1       4.805   0.598  18.297  0.00  0.00    +0.000 HD
ATOM     16  H   UNL     1       3.258   0.527  18.934  0.00  0.00    +0.000 HD
ENDBRANCH   6  14
TORSDOF 1
ENDMDL
MODEL 2
REMARK VINA RESULT:      -6.4      1.566      2.910
REMARK  Name = 
REMARK  3 active torsions:
REMARK  status: ('A' for Active; 'I' for Inactive)
REMARK    1  A    between atoms: C_1  and  N_2
REMARK    2  A    between atoms: N_2  and  C_3
REMARK    3  A    between atoms: C_6  and  N_7
REMARK                            x       y       z     vdW  Elec       q    Type
REMARK                         _______ _______ _______ _____ _____    ______ ____
ROOT
ATOM      1  C   UNL     1       6.181   7.011  17.051  0.00  0.00    +0.000 C 
ATOM      2  N   UNL     1       5.129   6.131  16.564  0.00  0.00    +0.000 N 
ATOM      3  C   UNL     1       5.451   5.233  15.464  0.00  0.00    +0.000 C 
ATOM      4  C   UNL     1       4.166   5.669  17.465  0.00  0.00    +0.000 A 
ATOM      5  C   UNL     1       3.717   6.474  18.510  0.00  0.00    +0.000 A 
ATOM      6  C   UNL     1       2.664   6.063  19.332  0.00  0.00    +0.000 A 
ATOM      7  C   UNL     1       2.153   4.758  19.178  0.00  0.00    +0.000 A 
ATOM      8  C   UNL     1       1.148   4.195  20.004  0.00  0.00    +0.000 A 
ATOM      9  C   UNL     1       0.675   2.900  19.794  0.00  0.00    +0.000 A 
ATOM     10  C   UNL     1       1.208   2.146  18.762  0.00  0.00    +0.000 A 
ATOM     11  C   UNL     1       2.202   2.694  17.946  0.00  0.00    +0.000 A 
ATOM     12  C   UNL     1       2.681   3.986  18.126  0.00  0.00    +0.000 A 
ATOM     13  N   UNL     1       3.628   4.443  17.284  0.00  0.00    +0.000 NA
ENDROOT
BRANCH   6  14
ATOM     14  N   UNL     1       2.299   6.897  20.413  0.00  0.00    +0.000 N 
ATOM     15  H   UNL     1       2.918   6.808  21.214  0.00  0.00    +0.000 HD
ATOM     16  H   UNL     1       2.183   7.869  20.148  0.00  0.00    +0.000 HD
ENDBRANCH   6  14
TORSDOF 1
ENDMDL
MODEL 3
REMARK VINA RESULT:      -6.2      1.052      1.160
REMARK  Name = 
REMARK  3 active torsions:
REMARK  status: ('A' for Active; 'I' for Inactive)
REMARK    1  A    between atoms: C_1  and  N_2
REMARK    2  A    between atoms: N_2  and  C_3
REMARK    3  A    between atoms: C_6  and  N_7
REMARK                            x       y       z     vdW  Elec       q    Type
REMARK                         _______ _______ _______ _____ _____    ______ ____
ROOT
ATOM      1  C   UNL     1       6.213   4.229  15.173  0.00  0.00    +0.000 C 
ATOM      2  N   UNL     1       6.095   4.757  16.524  0.00  0.00    +0.000 N 
ATOM      3  C   UNL     1       6.732   6.035  16.811  0.00  0.00    +0.000 C 
ATOM      4  C   UNL     1       4.941   4.474  17.260  0.00  0.00    +0.000 A 
ATOM      5  C   UNL     1       4.292   3.247  17.131  0.00  0.00    +0.000 A 
ATOM      6  C   UNL     1       3.216   2.914  17.959  0.00  0.00    +0.000 A 
ATOM      7  C   UNL     1       2.705   3.894  18.835  0.00  0.00    +0.000 A 
ATOM      8  C   UNL     1       1.567   3.707  19.660  0.00  0.00    +0.000 A 
ATOM      9  C   UNL     1       1.116   4.712  20.515  0.00  0.00    +0.000 A 
ATOM     10  C   UNL     1       1.789   5.922  20.548  0.00  0.00    +0.000 A 
ATOM     11  C   UNL     1       2.910   6.115  19.734  0.00  0.00    +0.000 A 
ATOM     12  C   UNL     1       3.388   5.124  18.885  0.00  0.00    +0.000 A 
ATOM     13  N   UNL     1       4.484   5.385  18.146  0.00  0.00    +0.000 NA
ENDROOT
BRANCH   6  14
ATOM     14  N   UNL     1       2.561   1.682  17.735  0.00  0.00    +0.000 N 
ATOM     15  H   UNL     1       1.661   1.785  17.276  0.00  0.00    +0.000 HD
ATOM     16  H   UNL     1       3.140   1.001  17.255  0.00  0.00    +0.000 HD
ENDBRANCH   6  14
TORSDOF 1
ENDMDL
MODEL 4
REMARK VINA RESULT:      -6.2      1.686      3.082
REMARK  Name = 
REMARK  3 active torsions:
REMARK  status: ('A' for Active; 'I' for Inactive)
REMARK    1  A    between atoms: C_1  and  N_2
REMARK    2  A    between atoms: N_2  and  C_3
REMARK    3  A    between atoms: C_6  and  N_7
REMARK                            x       y       z     vdW  Elec       q    Type
REMARK                         _______ _______ _______ _____ _____    ______ ____
ROOT
ATOM      1  C   UNL     1       7.173   6.808  17.092  0.00  0.00    +0.000 C 
ATOM      2  N   UNL     1       6.357   5.741  16.532  0.00  0.00    +0.000 N 
ATOM      3  C   UNL     1       7.041   4.647  15.856  0.00  0.00    +0.000 C 
ATOM      4  C   UNL     1       5.155   5.408  17.165  0.00  0.00    +0.000 A 
ATOM      5  C   UNL     1       4.371   6.387  17.773  0.00  0.00    +0.000 A 
ATOM      6  C   UNL     1       3.110   6.077  18.291  0.00  0.00    +0.000 A 
ATOM      7  C   UNL     1       2.700   4.728  18.315  0.00  0.00    +0.000 A 
ATOM      8  C   UNL     1       1.485   4.277  18.891  0.00  0.00    +0.000 A 
ATOM      9  C   UNL     1       1.129   2.930  18.873  0.00  0.00    +0.000 A 
ATOM     10  C   UNL     1       1.988   2.013  18.291  0.00  0.00    +0.000 A 
ATOM     11  C   UNL     1       3.189   2.449  17.725  0.00  0.00    +0.000 A 
ATOM     12  C   UNL     1       3.560   3.788  17.717  0.00  0.00    +0.000 A 
ATOM     13  N   UNL     1       4.727   4.128  17.136  0.00  0.00    +0.000 NA
ENDROOT
BRANCH   6  14
ATOM     14  N   UNL     1       2.393   7.100  18.952  0.00  0.00    +0.000 N 
ATOM     15  H   UNL     1       2.705   7.255  19.906  0.00  0.00    +0.000 HD
ATOM     16  H   UNL     1       2.363   7.970  18.431  0.00  0.00    +0.000 HD
ENDBRANCH   6  14
TORSDOF 1
ENDMDL
MODEL 5
REMARK VINA RESULT:      -6.2      1.892      5.159
REMARK  Name = 
REMARK  3 active torsions:
REMARK  status: ('A' for Active; 'I' for Inactive)
REMARK    1  A    between atoms: C_1  and  N_2
REMARK    2  A    between atoms: N_2  and  C_3
REMARK    3  A    between atoms: C_6  and  N_7
REMARK                            x       y       z     vdW  Elec       q    Type
REMARK                         _______ _______ _______ _____ _____    ______ ____
ROOT
ATOM      1  C   UNL     1       2.148   4.750  20.673  0.00  0.00    +0.000 C 
ATOM      2  N   UNL     1       2.493   3.971  19.493  0.00  0.00    +0.000 N 
ATOM      3  C   UNL     1       1.403   3.466  18.670  0.00  0.00    +0.000 C 
ATOM      4  C   UNL     1       3.681   4.264  18.816  0.00  0.00    +0.000 A 
ATOM      5  C   UNL     1       4.818   4.675  19.509  0.00  0.00    +0.000 A 
ATOM      6  C   UNL     1       6.039   4.842  18.850  0.00  0.00    +0.000 A 
ATOM      7  C   UNL     1       6.073   4.725  17.445  0.00  0.00    +0.000 A 
ATOM      8  C   UNL     1       7.228   4.956  16.656  0.00  0.00    +0.000 A 
ATOM      9  C   UNL     1       7.201   4.812  15.269  0.00  0.00    +0.000 A 
ATOM     10  C   UNL     1       6.017   4.448  14.651  0.00  0.00    +0.000 A 
ATOM     11  C   UNL     1       4.873   4.222  15.423  0.00  0.00    +0.000 A 
ATOM     12  C   UNL     1       4.877   4.344  16.807  0.00  0.00    +0.000 A 
ATOM     13  N   UNL     1       3.736   4.092  17.477  0.00  0.00    +0.000 NA
ENDROOT
BRANCH   6  14
ATOM     14  N   UNL     1       7.138   5.322  19.597  0.00  0.00    +0.000 N 
ATOM     15  H   UNL     1       7.945   4.706  19.564  0.00  0.00    +0.000 HD
ATOM     16  H   UNL     1       7.397   6.275  19.364  0.00  0.00    +0.000 HD
ENDBRANCH   6  14
TORSDOF 1
ENDMDL
MODEL 6
REMARK VINA RESULT:      -6.1      1.138      1.138
REMARK  Name = 
REMARK  3 active torsions:
REMARK  status: ('A' for Active; 'I' for Inactive)
REMARK    1  A    between atoms: C_1  and  N_2
REMARK    2  A    between atoms: N_2  and  C_3
REMARK    3  A    between atoms: C_6  and  N_7
REMARK                            x       y       z     vdW  Elec       q    Type
REMARK                         _______ _______ _______ _____ _____    ______ ____
ROOT
ATOM      1  C   UNL     1       6.438   4.645  16.062  0.00  0.00    +0.000 C 
ATOM      2  N   UNL     1       5.561   5.380  16.962  0.00  0.00    +0.000 N 
ATOM      3  C   UNL     1       4.947   6.602  16.462  0.00  0.00    +0.000 C 
ATOM      4  C   UNL     1       4.818   4.668  17.908  0.00  0.00    +0.000 A 
ATOM      5  C   UNL     1       5.338   3.528  18.518  0.00  0.00    +0.000 A 
ATOM      6  C   UNL     1       4.651   2.892  19.556  0.00  0.00    +0.000 A 
ATOM      7  C   UNL     1       3.354   3.338  19.884  0.00  0.00    +0.000 A 
ATOM      8  C   UNL     1       2.524   2.723  20.855  0.00  0.00    +0.000 A 
ATOM      9  C   UNL     1       1.253   3.219  21.144  0.00  0.00    +0.000 A 
ATOM     10  C   UNL     1       0.790   4.328  20.457  0.00  0.00    +0.000 A 
ATOM     11  C   UNL     1       1.602   4.938  19.496  0.00  0.00    +0.000 A 
ATOM     12  C   UNL     1       2.877   4.472  19.200  0.00  0.00    +0.000 A 
ATOM     13  N   UNL     1       3.601   5.127  18.271  0.00  0.00    +0.000 NA
ENDROOT
BRANCH   6  14
ATOM     14  N   UNL     1       5.202   1.705  20.088  0.00  0.00    +0.000 N 
ATOM     15  H   UNL     1       5.144   0.916  19.451  0.00  0.00    +0.000 HD
ATOM     16  H   UNL     1       6.146   1.822  20.440  0.00  0.00    +0.000 HD
ENDBRANCH   6  14
TORSDOF 1
ENDMDL
MODEL 7
REMARK VINA RESULT:      -6.0      1.292      4.521
REMARK  Name = 
REMARK  3 active torsions:
REMARK  status: ('A' for Active; 'I' for Inactive)
REMARK    1  A    between atoms: C_1  and  N_2
REMARK    2  A    between atoms: N_2  and  C_3
REMARK    3  A    between atoms: C_6  and  N_7
REMARK                            x       y       z     vdW  Elec       q    Type
REMARK                         _______ _______ _______ _____ _____    ______ ____
ROOT
ATOM      1  C   UNL     1       2.034   3.582  21.654  0.00  0.00    +0.000 C 
ATOM      2  N   UNL     1       1.922   4.539  20.564  0.00  0.00    +0.000 N 
ATOM      3  C   UNL     1       1.549   5.906  20.898  0.00  0.00    +0.000 C 
ATOM      4  C   UNL     1       2.750   4.390  19.447  0.00  0.00    +0.000 A 
ATOM      5  C   UNL     1       3.105   3.125  18.983  0.00  0.00    +0.000 A 
ATOM      6  C   UNL     1       3.825   2.972  17.794  0.00  0.00    +0.000 A 
ATOM      7  C   UNL     1       4.309   4.125  17.142  0.00  0.00    +0.000 A 
ATOM      8  C   UNL     1       5.121   4.098  15.980  0.00  0.00    +0.000 A 
ATOM      9  C   UNL     1       5.559   5.275  15.373  0.00  0.00    +0.000 A 
ATOM     10  C   UNL     1       5.202   6.493  15.926  0.00  0.00    +0.000 A 
ATOM     11  C   UNL     1       4.404   6.526  17.074  0.00  0.00    +0.000 A 
ATOM     12  C   UNL     1       3.943   5.369  17.689  0.00  0.00    +0.000 A 
ATOM     13  N   UNL     1       3.165   5.490  18.782  0.00  0.00    +0.000 NA
ENDROOT
BRANCH   6  14
ATOM     14  N   UNL     1       4.209   1.667  17.412  0.00  0.00    +0.000 N 
ATOM     15  H   UNL     1       5.150   1.424  17.707  0.00  0.00    +0.000 HD
ATOM     16  H   UNL     1       3.543   0.954  17.692  0.00  0.00    +0.000 HD
ENDBRANCH   6  14
TORSDOF 1
ENDMDL
MODEL 8
REMARK VINA RESULT:      -6.0      1.943      3.135
REMARK  Name = 
REMARK  3 active torsions:
REMARK  status: ('A' for Active; 'I' for Inactive)
REMARK    1  A    between atoms: C_1  and  N_2
REMARK    2  A    between atoms: N_2  and  C_3
REMARK    3  A    between atoms: C_6  and  N_7
REMARK                            x       y       z     vdW  Elec       q    Type
REMARK                         _______ _______ _______ _____ _____    ______ ____
ROOT
ATOM      1  C   UNL     1       7.179   6.980  17.386  0.00  0.00    +0.000 C 
ATOM      2  N   UNL     1       6.544   5.672  17.442  0.00  0.00    +0.000 N 
ATOM      3  C   UNL     1       7.407   4.499  17.455  0.00  0.00    +0.000 C 
ATOM      4  C   UNL     1       5.329   5.541  18.121  0.00  0.00    +0.000 A 
ATOM      5  C   UNL     1       4.387   6.567  18.107  0.00  0.00    +0.000 A 
ATOM      6  C   UNL     1       3.122   6.388  18.675  0.00  0.00    +0.000 A 
ATOM      7  C   UNL     1       2.861   5.199  19.388  0.00  0.00    +0.000 A 
ATOM      8  C   UNL     1       1.652   4.936  20.079  0.00  0.00    +0.000 A 
ATOM      9  C   UNL     1       1.448   3.735  20.757  0.00  0.00    +0.000 A 
ATOM     10  C   UNL     1       2.455   2.785  20.763  0.00  0.00    +0.000 A 
ATOM     11  C   UNL     1       3.652   3.039  20.086  0.00  0.00    +0.000 A 
ATOM     12  C   UNL     1       3.874   4.222  19.392  0.00  0.00    +0.000 A 
ATOM     13  N   UNL     1       5.049   4.380  18.752  0.00  0.00    +0.000 NA
ENDROOT
BRANCH   6  14
ATOM     14  N   UNL     1       2.235   7.488  18.686  0.00  0.00    +0.000 N 
ATOM     15  H   UNL     1       1.495   7.399  19.375  0.00  0.00    +0.000 HD
ATOM     16  H   UNL     1       2.706   8.383  18.770  0.00  0.00    +0.000 HD
ENDBRANCH   6  14
TORSDOF 1
ENDMDL
MODEL 9
REMARK VINA RESULT:      -5.9      1.577      1.612
REMARK  Name = 
REMARK  3 active torsions:
REMARK  status: ('A' for Active; 'I' for Inactive)
REMARK    1  A    between atoms: C_1  and  N_2
REMARK    2  A    between atoms: N_2  and  C_3
REMARK    3  A    between atoms: C_6  and  N_7
REMARK                            x       y       z     vdW  Elec       q    Type
REMARK                         _______ _______ _______ _____ _____    ______ ____
ROOT
ATOM      1  C   UNL     1       7.104   5.218  16.627  0.00  0.00    +0.000 C 
ATOM      2  N   UNL     1       5.775   5.677  17.003  0.00  0.00    +0.000 N 
ATOM      3  C   UNL     1       5.131   6.663  16.147  0.00  0.00    +0.000 C 
ATOM      4  C   UNL     1       4.918   4.791  17.663  0.00  0.00    +0.000 A 
ATOM      5  C   UNL     1       5.413   3.858  18.572  0.00  0.00    +0.000 A 
ATOM      6  C   UNL     1       4.547   3.062  19.328  0.00  0.00    +0.000 A 
ATOM      7  C   UNL     1       3.165   3.118  19.056  0.00  0.00    +0.000 A 
ATOM      8  C   UNL     1       2.197   2.300  19.692  0.00  0.00    +0.000 A 
ATOM      9  C   UNL     1       0.840   2.410  19.388  0.00  0.00    +0.000 A 
ATOM     10  C   UNL     1       0.434   3.329  18.436  0.00  0.00    +0.000 A 
ATOM     11  C   UNL     1       1.384   4.137  17.803  0.00  0.00    +0.000 A 
ATOM     12  C   UNL     1       2.739   4.057  18.098  0.00  0.00    +0.000 A 
ATOM     13  N   UNL     1       3.587   4.883  17.454  0.00  0.00    +0.000 NA
ENDROOT
BRANCH   6  14
ATOM     14  N   UNL     1       5.114   2.091  20.184  0.00  0.00    +0.000 N 
ATOM     15  H   UNL     1       4.504   1.294  20.343  0.00  0.00    +0.000 HD
ATOM     16  H   UNL     1       6.039   1.791  19.895  0.00  0.00    +0.000 HD
ENDBRANCH   6  14
TORSDOF 1
ENDMDL
