MODEL 1
REMARK VINA RESULT:      -6.3      0.000      0.000
REMARK  Name = 
REMARK  6 active torsions:
REMARK  status: ('A' for Active; 'I' for Inactive)
REMARK    1  A    between atoms: C_1  and  C_2
REMARK    2  A    between atoms: C_6  and  C_7
REMARK    3  A    between atoms: C_7  and  O_9
REMARK    4  A    between atoms: C_11  and  C_13
REMARK    5  A    between atoms: C_13  and  C_14
REMARK    6  A    between atoms: C_14  and  S_15
REMARK                            x       y       z     vdW  Elec       q    Type
REMARK                         _______ _______ _______ _____ _____    ______ ____
ROOT
ATOM      1  C   UNL     1       1.494   4.126  17.895  0.00  0.00    +0.000 C 
ATOM      2  C   UNL     1       2.256   4.739  19.075  0.00  0.00    +0.000 C 
ATOM      3  C   UNL     1       1.416   4.805  20.356  0.00  0.00    +0.000 C 
ATOM      4  C   UNL     1       1.239   3.446  21.011  0.00  0.00    +0.000 C 
ATOM      5  C   UNL     1       2.595   2.796  21.262  0.00  0.00    +0.000 C 
ATOM      6  C   UNL     1       3.425   2.686  19.964  0.00  0.00    +0.000 C 
ATOM      7  N   UNL     1       3.538   4.033  19.306  0.00  0.00    +0.000 N 
ATOM      8  C   UNL     1       4.758   4.554  18.916  0.00  0.00    +0.000 C 
ATOM      9  O   UNL     1       5.799   3.915  19.069  0.00  0.00    +0.000 OA
ENDROOT
BRANCH   6  10
ATOM     10  C   UNL     1       4.605   1.692  20.215  0.00  0.00    +0.000 C 
ATOM     11  O   UNL     1       5.199   1.591  21.277  0.00  0.00    +0.000 OA
BRANCH  10  12
ATOM     12  O   UNL     1       4.779   0.762  19.247  0.00  0.00    +0.000 OA
ATOM     13  H   UNL     1       5.723   0.492  19.203  0.00  0.00    +0.000 HD
ENDBRANCH  10  12
ENDBRANCH   6  10
BRANCH   8  14
ATOM     14  C   UNL     1       4.812   5.924  18.256  0.00  0.00    +0.000 C 
BRANCH  14  15
ATOM     15  C   UNL     1       5.994   5.998  17.291  0.00  0.00    +0.000 C 
BRANCH  15  16
ATOM     16  S   UNL     1       5.513   5.401  15.644  0.00  0.00    +0.000 S 
ATOM     17  H   UNL     1       6.640   4.721  15.387  0.00  0.00    +0.000 HD
ENDBRANCH  15  16
ENDBRANCH  14  15
ENDBRANCH   8  14
TORSDOF 5
ENDMDL
MODEL 2
REMARK VINA RESULT:      -5.8      2.908      3.693
REMARK  Name = 
REMARK  6 active torsions:
REMARK  status: ('A' for Active; 'I' for Inactive)
REMARK    1  A    between atoms: C_1  and  C_2
REMARK    2  A    between atoms: C_6  and  C_7
REMARK    3  A    between atoms: C_7  and  O_9
REMARK    4  A    between atoms: C_11  and  C_13
REMARK    5  A    between atoms: C_13  and  C_14
REMARK    6  A    between atoms: C_14  and  S_15
REMARK                            x       y       z     vdW  Elec       q    Type
REMARK                         _______ _______ _______ _____ _____    ______ ____
ROOT
ATOM      1  C   UNL     1       5.472   4.250  18.583  0.00  0.00    +0.000 C 
ATOM      2  C   UNL     1       4.030   4.347  18.074  0.00  0.00    +0.000 C 
ATOM      3  C   UNL     1       3.659   3.206  17.119  0.00  0.00    +0.000 C 
ATOM      4  C   UNL     1       3.452   1.884  17.837  0.00  0.00    +0.000 C 
ATOM      5  C   UNL     1       2.423   2.041  18.952  0.00  0.00    +0.000 C 
ATOM      6  C   UNL     1       2.818   3.158  19.942  0.00  0.00    +0.000 C 
ATOM      7  N   UNL     1       3.072   4.441  19.200  0.00  0.00    +0.000 N 
ATOM      8  C   UNL     1       2.473   5.629  19.573  0.00  0.00    +0.000 C 
ATOM      9  O   UNL     1       1.728   5.685  20.552  0.00  0.00    +0.000 OA
ENDROOT
BRANCH   6  10
ATOM     10  C   UNL     1       1.947   3.007  21.231  0.00  0.00    +0.000 C 
ATOM     11  O   UNL     1       2.380   3.136  22.366  0.00  0.00    +0.000 OA
BRANCH  10  12
ATOM     12  O   UNL     1       0.613   2.959  21.013  0.00  0.00    +0.000 OA
ATOM     13  H   UNL     1       0.152   3.605  21.594  0.00  0.00    +0.000 HD
ENDBRANCH  10  12
ENDBRANCH   6  10
BRANCH   8  14
ATOM     14  C   UNL     1       2.766   6.897  18.785  0.00  0.00    +0.000 C 
BRANCH  14  15
ATOM     15  C   UNL     1       1.954   8.065  19.343  0.00  0.00    +0.000 C 
BRANCH  15  16
ATOM     16  S   UNL     1       1.673   9.321  18.061  0.00  0.00    +0.000 S 
ATOM     17  H   UNL     1       0.532   8.804  17.582  0.00  0.00    +0.000 HD
ENDBRANCH  15  16
ENDBRANCH  14  15
ENDBRANCH   8  14
TORSDOF 5
ENDMDL
MODEL 3
REMARK VINA RESULT:      -5.7      3.178      4.082
REMARK  Name = 
REMARK  6 active torsions:
REMARK  status: ('A' for Active; 'I' for Inactive)
REMARK    1  A    between atoms: C_1  and  C_2
REMARK    2  A    between atoms: C_6  and  C_7
REMARK    3  A    between atoms: C_7  and  O_9
REMARK    4  A    between atoms: C_11  and  C_13
REMARK    5  A    between atoms: C_13  and  C_14
REMARK    6  A    between atoms: C_14  and  S_15
REMARK                            x       y       z     vdW  Elec       q    Type
REMARK                         _______ _______ _______ _____ _____    ______ ____
ROOT
ATOM      1  C   UNL     1       3.861   2.622  17.388  0.00  0.00    +0.000 C 
ATOM      2  C   UNL     1       4.012   4.088  16.971  0.00  0.00    +0.000 C 
ATOM      3  C   UNL     1       3.231   5.048  17.876  0.00  0.00    +0.000 C 
ATOM      4  C   UNL     1       3.886   5.235  19.234  0.00  0.00    +0.000 C 
ATOM      5  C   UNL     1       5.337   5.674  19.069  0.00  0.00    +0.000 C 
ATOM      6  C   UNL     1       6.138   4.683  18.195  0.00  0.00    +0.000 C 
ATOM      7  N   UNL     1       5.440   4.472  16.881  0.00  0.00    +0.000 N 
ATOM      8  C   UNL     1       6.105   4.598  15.675  0.00  0.00    +0.000 C 
ATOM      9  O   UNL     1       7.307   4.860  15.637  0.00  0.00    +0.000 OA
ENDROOT
BRANCH   6  10
ATOM     10  C   UNL     1       7.661   4.978  18.383  0.00  0.00    +0.000 C 
ATOM     11  O   UNL     1       8.101   5.882  19.076  0.00  0.00    +0.000 OA
BRANCH  10  12
ATOM     12  O   UNL     1       8.488   4.012  17.920  0.00  0.00    +0.000 OA
ATOM     13  H   UNL     1       8.572   3.292  18.584  0.00  0.00    +0.000 HD
ENDBRANCH  10  12
ENDBRANCH   6  10
BRANCH   8  14
ATOM     14  C   UNL     1       5.347   4.375  14.374  0.00  0.00    +0.000 C 
BRANCH  14  15
ATOM     15  C   UNL     1       6.273   3.763  13.323  0.00  0.00    +0.000 C 
BRANCH  15  16
ATOM     16  S   UNL     1       5.310   3.075  11.945  0.00  0.00    +0.000 S 
ATOM     17  H   UNL     1       5.779   3.900  10.997  0.00  0.00    +0.000 HD
ENDBRANCH  15  16
ENDBRANCH  14  15
ENDBRANCH   8  14
TORSDOF 5
ENDMDL
MODEL 4
REMARK VINA RESULT:      -5.6      1.305      1.530
REMARK  Name = 
REMARK  6 active torsions:
REMARK  status: ('A' for Active; 'I' for Inactive)
REMARK    1  A    between atoms: C_1  and  C_2
REMARK    2  A    between atoms: C_6  and  C_7
REMARK    3  A    between atoms: C_7  and  O_9
REMARK    4  A    between atoms: C_11  and  C_13
REMARK    5  A    between atoms: C_13  and  C_14
REMARK    6  A    between atoms: C_14  and  S_15
REMARK                            x       y       z     vdW  Elec       q    Type
REMARK                         _______ _______ _______ _____ _____    ______ ____
ROOT
ATOM      1  C   UNL     1       1.825   5.481  17.892  0.00  0.00    +0.000 C 
ATOM      2  C   UNL     1       2.770   5.574  19.094  0.00  0.00    +0.000 C 
ATOM      3  C   UNL     1       2.025   5.618  20.434  0.00  0.00    +0.000 C 
ATOM      4  C   UNL     1       1.451   4.268  20.829  0.00  0.00    +0.000 C 
ATOM      5  C   UNL     1       2.544   3.205  20.827  0.00  0.00    +0.000 C 
ATOM      6  C   UNL     1       3.265   3.127  19.464  0.00  0.00    +0.000 C 
ATOM      7  N   UNL     1       3.774   4.485  19.069  0.00  0.00    +0.000 N 
ATOM      8  C   UNL     1       5.085   4.687  18.679  0.00  0.00    +0.000 C 
ATOM      9  O   UNL     1       5.879   3.749  18.612  0.00  0.00    +0.000 OA
ENDROOT
BRANCH   6  10
ATOM     10  C   UNL     1       4.081   1.796  19.412  0.00  0.00    +0.000 C 
ATOM     11  O   UNL     1       3.956   0.951  18.538  0.00  0.00    +0.000 OA
BRANCH  10  12
ATOM     12  O   UNL     1       5.126   1.736  20.270  0.00  0.00    +0.000 OA
ATOM     13  H   UNL     1       4.900   1.163  21.037  0.00  0.00    +0.000 HD
ENDBRANCH  10  12
ENDBRANCH   6  10
BRANCH   8  14
ATOM     14  C   UNL     1       5.546   6.085  18.293  0.00  0.00    +0.000 C 
BRANCH  14  15
ATOM     15  C   UNL     1       7.057   6.097  18.063  0.00  0.00    +0.000 C 
BRANCH  15  16
ATOM     16  S   UNL     1       7.627   7.768  17.638  0.00  0.00    +0.000 S 
ATOM     17  H   UNL     1       7.062   7.824  16.423  0.00  0.00    +0.000 HD
ENDBRANCH  15  16
ENDBRANCH  14  15
ENDBRANCH   8  14
TORSDOF 5
ENDMDL
MODEL 5
REMARK VINA RESULT:      -5.5      2.957      3.986
REMARK  Name = 
REMARK  6 active torsions:
REMARK  status: ('A' for Active; 'I' for Inactive)
REMARK    1  A    between atoms: C_1  and  C_2
REMARK    2  A    between atoms: C_6  and  C_7
REMARK    3  A    between atoms: C_7  and  O_9
REMARK    4  A    between atoms: C_11  and  C_13
REMARK    5  A    between atoms: C_13  and  C_14
REMARK    6  A    between atoms: C_14  and  S_15
REMARK                            x       y       z     vdW  Elec       q    Type
REMARK                         _______ _______ _______ _____ _____    ______ ____
ROOT
ATOM      1  C   UNL     1       4.008   2.494  18.064  0.00  0.00    +0.000 C 
ATOM      2  C   UNL     1       4.066   3.812  17.285  0.00  0.00    +0.000 C 
ATOM      3  C   UNL     1       3.001   4.818  17.738  0.00  0.00    +0.000 C 
ATOM      4  C   UNL     1       3.325   5.450  19.080  0.00  0.00    +0.000 C 
ATOM      5  C   UNL     1       4.714   6.078  19.051  0.00  0.00    +0.000 C 
ATOM      6  C   UNL     1       5.795   5.055  18.640  0.00  0.00    +0.000 C 
ATOM      7  N   UNL     1       5.424   4.403  17.338  0.00  0.00    +0.000 N 
ATOM      8  C   UNL     1       6.309   4.335  16.278  0.00  0.00    +0.000 C 
ATOM      9  O   UNL     1       7.451   4.784  16.376  0.00  0.00    +0.000 OA
ENDROOT
BRANCH   6  10
ATOM     10  C   UNL     1       7.197   5.647  18.997  0.00  0.00    +0.000 C 
ATOM     11  O   UNL     1       8.045   5.052  19.645  0.00  0.00    +0.000 OA
BRANCH  10  12
ATOM     12  O   UNL     1       7.519   6.782  18.335  0.00  0.00    +0.000 OA
ATOM     13  H   UNL     1       8.250   7.249  18.799  0.00  0.00    +0.000 HD
ENDBRANCH  10  12
ENDBRANCH   6  10
BRANCH   8  14
ATOM     14  C   UNL     1       5.877   3.666  14.982  0.00  0.00    +0.000 C 
BRANCH  14  15
ATOM     15  C   UNL     1       6.604   4.297  13.795  0.00  0.00    +0.000 C 
BRANCH  15  16
ATOM     16  S   UNL     1       6.253   3.379  12.267  0.00  0.00    +0.000 S 
ATOM     17  H   UNL     1       4.932   3.612  12.243  0.00  0.00    +0.000 HD
ENDBRANCH  15  16
ENDBRANCH  14  15
ENDBRANCH   8  14
TORSDOF 5
ENDMDL
MODEL 6
REMARK VINA RESULT:      -5.5      2.735      4.503
REMARK  Name = 
REMARK  6 active torsions:
REMARK  status: ('A' for Active; 'I' for Inactive)
REMARK    1  A    between atoms: C_1  and  C_2
REMARK    2  A    between atoms: C_6  and  C_7
REMARK    3  A    between atoms: C_7  and  O_9
REMARK    4  A    between atoms: C_11  and  C_13
REMARK    5  A    between atoms: C_13  and  C_14
REMARK    6  A    between atoms: C_14  and  S_15
REMARK                            x       y       z     vdW  Elec       q    Type
REMARK                         _______ _______ _______ _____ _____    ______ ____
ROOT
ATOM      1  C   UNL     1       2.606   6.204  20.139  0.00  0.00    +0.000 C 
ATOM      2  C   UNL     1       2.345   5.887  18.663  0.00  0.00    +0.000 C 
ATOM      3  C   UNL     1       2.285   7.143  17.786  0.00  0.00    +0.000 C 
ATOM      4  C   UNL     1       3.654   7.755  17.544  0.00  0.00    +0.000 C 
ATOM      5  C   UNL     1       4.607   6.713  16.968  0.00  0.00    +0.000 C 
ATOM      6  C   UNL     1       4.705   5.466  17.874  0.00  0.00    +0.000 C 
ATOM      7  N   UNL     1       3.334   4.913  18.144  0.00  0.00    +0.000 N 
ATOM      8  C   UNL     1       3.035   3.578  17.950  0.00  0.00    +0.000 C 
ATOM      9  O   UNL     1       3.897   2.783  17.575  0.00  0.00    +0.000 OA
ENDROOT
BRANCH   6  10
ATOM     10  C   UNL     1       5.954   4.635  17.436  0.00  0.00    +0.000 C 
ATOM     11  O   UNL     1       6.477   4.716  16.335  0.00  0.00    +0.000 OA
BRANCH  10  12
ATOM     12  O   UNL     1       6.583   3.982  18.441  0.00  0.00    +0.000 OA
ATOM     13  H   UNL     1       6.016   3.971  19.244  0.00  0.00    +0.000 HD
ENDBRANCH  10  12
ENDBRANCH   6  10
BRANCH   8  14
ATOM     14  C   UNL     1       1.628   3.074  18.238  0.00  0.00    +0.000 C 
BRANCH  14  15
ATOM     15  C   UNL     1       1.662   2.021  19.345  0.00  0.00    +0.000 C 
BRANCH  15  16
ATOM     16  S   UNL     1       1.442   2.796  20.973  0.00  0.00    +0.000 S 
ATOM     17  H   UNL     1       1.355   4.061  20.536  0.00  0.00    +0.000 HD
ENDBRANCH  15  16
ENDBRANCH  14  15
ENDBRANCH   8  14
TORSDOF 5
ENDMDL
MODEL 7
REMARK VINA RESULT:      -5.4      2.577      3.794
REMARK  Name = 
REMARK  6 active torsions:
REMARK  status: ('A' for Active; 'I' for Inactive)
REMARK    1  A    between atoms: C_1  and  C_2
REMARK    2  A    between atoms: C_6  and  C_7
REMARK    3  A    between atoms: C_7  and  O_9
REMARK    4  A    between atoms: C_11  and  C_13
REMARK    5  A    between atoms: C_13  and  C_14
REMARK    6  A    between atoms: C_14  and  S_15
REMARK                            x       y       z     vdW  Elec       q    Type
REMARK                         _______ _______ _______ _____ _____    ______ ____
ROOT
ATOM      1  C   UNL     1       4.195   2.457  20.035  0.00  0.00    +0.000 C 
ATOM      2  C   UNL     1       4.163   2.925  18.577  0.00  0.00    +0.000 C 
ATOM      3  C   UNL     1       3.011   2.304  17.778  0.00  0.00    +0.000 C 
ATOM      4  C   UNL     1       1.661   2.904  18.133  0.00  0.00    +0.000 C 
ATOM      5  C   UNL     1       1.697   4.420  17.980  0.00  0.00    +0.000 C 
ATOM      6  C   UNL     1       2.828   5.053  18.820  0.00  0.00    +0.000 C 
ATOM      7  N   UNL     1       4.143   4.404  18.492  0.00  0.00    +0.000 N 
ATOM      8  C   UNL     1       5.262   5.148  18.165  0.00  0.00    +0.000 C 
ATOM      9  O   UNL     1       5.227   6.378  18.162  0.00  0.00    +0.000 OA
ENDROOT
BRANCH   6  10
ATOM     10  C   UNL     1       2.569   6.591  18.919  0.00  0.00    +0.000 C 
ATOM     11  O   UNL     1       2.219   7.287  17.978  0.00  0.00    +0.000 OA
BRANCH  10  12
ATOM     12  O   UNL     1       2.520   7.079  20.180  0.00  0.00    +0.000 OA
ATOM     13  H   UNL     1       2.970   7.952  20.223  0.00  0.00    +0.000 HD
ENDBRANCH  10  12
ENDBRANCH   6  10
BRANCH   8  14
ATOM     14  C   UNL     1       6.567   4.437  17.839  0.00  0.00    +0.000 C 
BRANCH  14  15
ATOM     15  C   UNL     1       7.035   4.812  16.434  0.00  0.00    +0.000 C 
BRANCH  15  16
ATOM     16  S   UNL     1       5.970   4.046  15.178  0.00  0.00    +0.000 S 
ATOM     17  H   UNL     1       4.886   4.801  15.408  0.00  0.00    +0.000 HD
ENDBRANCH  15  16
ENDBRANCH  14  15
ENDBRANCH   8  14
TORSDOF 5
ENDMDL
MODEL 8
REMARK VINA RESULT:      -5.4      1.349      1.467
REMARK  Name = 
REMARK  6 active torsions:
REMARK  status: ('A' for Active; 'I' for Inactive)
REMARK    1  A    between atoms: C_1  and  C_2
REMARK    2  A    between atoms: C_6  and  C_7
REMARK    3  A    between atoms: C_7  and  O_9
REMARK    4  A    between atoms: C_11  and  C_13
REMARK    5  A    between atoms: C_13  and  C_14
REMARK    6  A    between atoms: C_14  and  S_15
REMARK                            x       y       z     vdW  Elec       q    Type
REMARK                         _______ _______ _______ _____ _____    ______ ____
ROOT
ATOM      1  C   UNL     1       1.172   3.306  18.152  0.00  0.00    +0.000 C 
ATOM      2  C   UNL     1       1.883   4.174  19.195  0.00  0.00    +0.000 C 
ATOM      3  C   UNL     1       1.105   4.277  20.512  0.00  0.00    +0.000 C 
ATOM      4  C   UNL     1       1.177   3.003  21.337  0.00  0.00    +0.000 C 
ATOM      5  C   UNL     1       2.630   2.604  21.572  0.00  0.00    +0.000 C 
ATOM      6  C   UNL     1       3.404   2.454  20.244  0.00  0.00    +0.000 C 
ATOM      7  N   UNL     1       3.270   3.705  19.423  0.00  0.00    +0.000 N 
ATOM      8  C   UNL     1       4.372   4.350  18.892  0.00  0.00    +0.000 C 
ATOM      9  O   UNL     1       5.507   3.901  19.050  0.00  0.00    +0.000 OA
ENDROOT
BRANCH   6  10
ATOM     10  C   UNL     1       4.736   1.690  20.533  0.00  0.00    +0.000 C 
ATOM     11  O   UNL     1       5.267   1.632  21.631  0.00  0.00    +0.000 OA
BRANCH  10  12
ATOM     12  O   UNL     1       5.154   0.879  19.532  0.00  0.00    +0.000 OA
ATOM     13  H   UNL     1       4.643   1.063  18.713  0.00  0.00    +0.000 HD
ENDBRANCH  10  12
ENDBRANCH   6  10
BRANCH   8  14
ATOM     14  C   UNL     1       4.177   5.615  18.069  0.00  0.00    +0.000 C 
BRANCH  14  15
ATOM     15  C   UNL     1       3.582   6.722  18.938  0.00  0.00    +0.000 C 
BRANCH  15  16
ATOM     16  S   UNL     1       2.714   7.945  17.912  0.00  0.00    +0.000 S 
ATOM     17  H   UNL     1       2.407   7.115  16.904  0.00  0.00    +0.000 HD
ENDBRANCH  15  16
ENDBRANCH  14  15
ENDBRANCH   8  14
TORSDOF 5
ENDMDL
MODEL 9
REMARK VINA RESULT:      -5.3      1.854      3.865
REMARK  Name = 
REMARK  6 active torsions:
REMARK  status: ('A' for Active; 'I' for Inactive)
REMARK    1  A    between atoms: C_1  and  C_2
REMARK    2  A    between atoms: C_6  and  C_7
REMARK    3  A    between atoms: C_7  and  O_9
REMARK    4  A    between atoms: C_11  and  C_13
REMARK    5  A    between atoms: C_13  and  C_14
REMARK    6  A    between atoms: C_14  and  S_15
REMARK                            x       y       z     vdW  Elec       q    Type
REMARK                         _______ _______ _______ _____ _____    ______ ____
ROOT
ATOM      1  C   UNL     1       2.246   6.467  20.588  0.00  0.00    +0.000 C 
ATOM      2  C   UNL     1       2.380   5.506  19.402  0.00  0.00    +0.000 C 
ATOM      3  C   UNL     1       2.183   6.200  18.049  0.00  0.00    +0.000 C 
ATOM      4  C   UNL     1       3.372   7.057  17.652  0.00  0.00    +0.000 C 
ATOM      5  C   UNL     1       4.655   6.233  17.679  0.00  0.00    +0.000 C 
ATOM      6  C   UNL     1       4.879   5.570  19.056  0.00  0.00    +0.000 C 
ATOM      7  N   UNL     1       3.667   4.774  19.452  0.00  0.00    +0.000 N 
ATOM      8  C   UNL     1       3.762   3.458  19.864  0.00  0.00    +0.000 C 
ATOM      9  O   UNL     1       4.855   2.898  19.951  0.00  0.00    +0.000 OA
ENDROOT
BRANCH   6  10
ATOM     10  C   UNL     1       6.360   5.076  19.131  0.00  0.00    +0.000 C 
ATOM     11  O   UNL     1       7.120   5.333  20.053  0.00  0.00    +0.000 OA
BRANCH  10  12
ATOM     12  O   UNL     1       6.690   4.131  18.221  0.00  0.00    +0.000 OA
ATOM     13  H   UNL     1       7.472   4.422  17.700  0.00  0.00    +0.000 HD
ENDBRANCH  10  12
ENDBRANCH   6  10
BRANCH   8  14
ATOM     14  C   UNL     1       2.500   2.700  20.251  0.00  0.00    +0.000 C 
BRANCH  14  15
ATOM     15  C   UNL     1       1.802   2.167  19.001  0.00  0.00    +0.000 C 
BRANCH  15  16
ATOM     16  S   UNL     1       2.942   2.152  17.587  0.00  0.00    +0.000 S 
ATOM     17  H   UNL     1       3.282   0.858  17.672  0.00  0.00    +0.000 HD
ENDBRANCH  15  16
ENDBRANCH  14  15
ENDBRANCH   8  14
TORSDOF 5
ENDMDL
