MODEL 1
REMARK VINA RESULT:      -8.1      0.000      0.000
REMARK  Name = 
REMARK  11 active torsions:
REMARK  status: ('A' for Active; 'I' for Inactive)
REMARK    1  A    between atoms: C_1  and  C_2
REMARK    2  A    between atoms: C_2  and  C_3
REMARK    3  A    between atoms: C_2  and  N_20
REMARK    4  A    between atoms: C_2  and  C_28
REMARK    5  A    between atoms: C_3  and  S_4
REMARK    6  A    between atoms: S_4  and  C_7
REMARK    7  A    between atoms: C_10  and  O_11
REMARK    8  A    between atoms: O_11  and  C_12
REMARK    9  A    between atoms: N_20  and  C_21
REMARK   10  A    between atoms: C_21  and  C_22
REMARK   11  A    between atoms: N_30  and  O_31
REMARK                            x       y       z     vdW  Elec       q    Type
REMARK                         _______ _______ _______ _____ _____    ______ ____
ROOT
ATOM      1  C   UNL     1       6.836   4.876  18.280  0.00  0.00    +0.000 C 
ATOM      2  C   UNL     1       5.310   4.656  18.248  0.00  0.00    +0.000 C 
ENDROOT
BRANCH   2   3
ATOM      3  C   UNL     1       4.918   3.221  18.707  0.00  0.00    +0.000 C 
ATOM      4  O   UNL     1       5.009   2.855  19.878  0.00  0.00    +0.000 OA
ATOM      5  N   UNL     1       4.311   2.423  17.771  0.00  0.00    +0.000 N 
ATOM      6  H   UNL     1       4.208   2.619  16.782  0.00  0.00    +0.000 HD
BRANCH   5   7
ATOM      7  O   UNL     1       3.953   1.124  18.198  0.00  0.00    +0.000 OA
ATOM      8  H   UNL     1       4.624   0.941  18.894  0.00  0.00    +0.000 HD
ENDBRANCH   5   7
ENDBRANCH   2   3
BRANCH   2   9
ATOM      9  N   UNL     1       4.905   4.827  16.808  0.00  0.00    +0.000 NA
ATOM     10  H   UNL     1       3.977   5.253  16.760  0.00  0.00    +0.000 HD
BRANCH   9  11
ATOM     11  C   UNL     1       5.816   5.651  16.001  0.00  0.00    +0.000 C 
BRANCH  11  12
ATOM     12  C   UNL     1       6.135   4.989  14.681  0.00  0.00    +0.000 A 
ATOM     13  C   UNL     1       5.222   4.098  14.098  0.00  0.00    +0.000 A 
ATOM     14  C   UNL     1       5.505   3.495  12.870  0.00  0.00    +0.000 A 
ATOM     15  C   UNL     1       6.704   3.775  12.216  0.00  0.00    +0.000 A 
ATOM     16  C   UNL     1       7.619   4.657  12.787  0.00  0.00    +0.000 A 
ATOM     17  C   UNL     1       7.339   5.258  14.016  0.00  0.00    +0.000 A 
ENDBRANCH  11  12
ENDBRANCH   9  11
ENDBRANCH   2   9
BRANCH   2  18
ATOM     18  C   UNL     1       4.597   5.704  19.125  0.00  0.00    +0.000 C 
BRANCH  18  19
ATOM     19  S   UNL     1       2.827   5.484  19.267  0.00  0.00    +0.000 S 
ATOM     20  O   UNL     1       2.325   4.763  18.117  0.00  0.00    +0.000 OA
ATOM     21  O   UNL     1       2.519   5.032  20.610  0.00  0.00    +0.000 OA
BRANCH  19  22
ATOM     22  C   UNL     1       2.216   7.155  19.165  0.00  0.00    +0.000 A 
ATOM     23  C   UNL     1       2.345   7.892  17.983  0.00  0.00    +0.000 A 
ATOM     24  C   UNL     1       1.853   9.200  17.940  0.00  0.00    +0.000 A 
ATOM     25  C   UNL     1       1.245   9.768  19.066  0.00  0.00    +0.000 A 
ATOM     26  C   UNL     1       1.171   9.034  20.254  0.00  0.00    +0.000 A 
ATOM     27  C   UNL     1       1.621   7.716  20.293  0.00  0.00    +0.000 A 
BRANCH  25  28
ATOM     28  O   UNL     1       0.804  11.065  18.927  0.00  0.00    +0.000 OA
BRANCH  28  29
ATOM     29  C   UNL     1      -0.545  11.340  18.952  0.00  0.00    +0.000 A 
ATOM     30  C   UNL     1      -0.988  12.157  19.995  0.00  0.00    +0.000 A 
ATOM     31  C   UNL     1      -2.341  12.490  20.098  0.00  0.00    +0.000 A 
ATOM     32  C   UNL     1      -3.252  12.005  19.161  0.00  0.00    +0.000 A 
ATOM     33  C   UNL     1      -2.808  11.215  18.101  0.00  0.00    +0.000 A 
ATOM     34  C   UNL     1      -1.453  10.908  17.979  0.00  0.00    +0.000 A 
ENDBRANCH  28  29
ENDBRANCH  25  28
ENDBRANCH  19  22
ENDBRANCH  18  19
ENDBRANCH   2  18
TORSDOF 10
ENDMDL
MODEL 2
REMARK VINA RESULT:      -7.8      1.824      2.597
REMARK  Name = 
REMARK  11 active torsions:
REMARK  status: ('A' for Active; 'I' for Inactive)
REMARK    1  A    between atoms: C_1  and  C_2
REMARK    2  A    between atoms: C_2  and  C_3
REMARK    3  A    between atoms: C_2  and  N_20
REMARK    4  A    between atoms: C_2  and  C_28
REMARK    5  A    between atoms: C_3  and  S_4
REMARK    6  A    between atoms: S_4  and  C_7
REMARK    7  A    between atoms: C_10  and  O_11
REMARK    8  A    between atoms: O_11  and  C_12
REMARK    9  A    between atoms: N_20  and  C_21
REMARK   10  A    between atoms: C_21  and  C_22
REMARK   11  A    between atoms: N_30  and  O_31
REMARK                            x       y       z     vdW  Elec       q    Type
REMARK                         _______ _______ _______ _____ _____    ______ ____
ROOT
ATOM      1  C   UNL     1       7.446   7.272  17.296  0.00  0.00    +0.000 C 
ATOM      2  C   UNL     1       6.761   6.005  17.848  0.00  0.00    +0.000 C 
ENDROOT
BRANCH   2   3
ATOM      3  C   UNL     1       7.677   5.233  18.842  0.00  0.00    +0.000 C 
ATOM      4  O   UNL     1       8.405   4.308  18.485  0.00  0.00    +0.000 OA
ATOM      5  N   UNL     1       7.760   5.736  20.116  0.00  0.00    +0.000 N 
ATOM      6  H   UNL     1       7.192   6.475  20.513  0.00  0.00    +0.000 HD
BRANCH   5   7
ATOM      7  O   UNL     1       8.598   5.033  21.009  0.00  0.00    +0.000 OA
ATOM      8  H   UNL     1       9.149   5.754  21.391  0.00  0.00    +0.000 HD
ENDBRANCH   5   7
ENDBRANCH   2   3
BRANCH   2   9
ATOM      9  N   UNL     1       6.502   5.128  16.651  0.00  0.00    +0.000 NA
ATOM     10  H   UNL     1       5.515   5.183  16.392  0.00  0.00    +0.000 HD
BRANCH   9  11
ATOM     11  C   UNL     1       7.296   5.457  15.459  0.00  0.00    +0.000 C 
BRANCH  11  12
ATOM     12  C   UNL     1       6.769   4.747  14.233  0.00  0.00    +0.000 A 
ATOM     13  C   UNL     1       7.542   4.685  13.064  0.00  0.00    +0.000 A 
ATOM     14  C   UNL     1       7.065   4.017  11.934  0.00  0.00    +0.000 A 
ATOM     15  C   UNL     1       5.811   3.408  11.960  0.00  0.00    +0.000 A 
ATOM     16  C   UNL     1       5.034   3.465  13.116  0.00  0.00    +0.000 A 
ATOM     17  C   UNL     1       5.507   4.136  14.246  0.00  0.00    +0.000 A 
ENDBRANCH  11  12
ENDBRANCH   9  11
ENDBRANCH   2   9
BRANCH   2  18
ATOM     18  C   UNL     1       5.428   6.370  18.533  0.00  0.00    +0.000 C 
BRANCH  18  19
ATOM     19  S   UNL     1       4.006   6.386  17.447  0.00  0.00    +0.000 S 
ATOM     20  O   UNL     1       4.355   7.006  16.186  0.00  0.00    +0.000 OA
ATOM     21  O   UNL     1       3.382   5.078  17.476  0.00  0.00    +0.000 OA
BRANCH  19  22
ATOM     22  C   UNL     1       2.883   7.481  18.292  0.00  0.00    +0.000 A 
ATOM     23  C   UNL     1       2.491   8.691  17.710  0.00  0.00    +0.000 A 
ATOM     24  C   UNL     1       1.607   9.525  18.403  0.00  0.00    +0.000 A 
ATOM     25  C   UNL     1       1.125   9.156  19.664  0.00  0.00    +0.000 A 
ATOM     26  C   UNL     1       1.567   7.966  20.252  0.00  0.00    +0.000 A 
ATOM     27  C   UNL     1       2.415   7.111  19.551  0.00  0.00    +0.000 A 
BRANCH  25  28
ATOM     28  O   UNL     1       0.269  10.049  20.270  0.00  0.00    +0.000 OA
BRANCH  28  29
ATOM     29  C   UNL     1      -0.804  10.556  19.572  0.00  0.00    +0.000 A 
ATOM     30  C   UNL     1      -1.306   9.755  18.544  0.00  0.00    +0.000 A 
ATOM     31  C   UNL     1      -2.394  10.188  17.784  0.00  0.00    +0.000 A 
ATOM     32  C   UNL     1      -2.982  11.425  18.049  0.00  0.00    +0.000 A 
ATOM     33  C   UNL     1      -2.504  12.213  19.095  0.00  0.00    +0.000 A 
ATOM     34  C   UNL     1      -1.437  11.767  19.875  0.00  0.00    +0.000 A 
ENDBRANCH  28  29
ENDBRANCH  25  28
ENDBRANCH  19  22
ENDBRANCH  18  19
ENDBRANCH   2  18
TORSDOF 10
ENDMDL
MODEL 3
REMARK VINA RESULT:      -7.6      0.780      1.502
REMARK  Name = 
REMARK  11 active torsions:
REMARK  status: ('A' for Active; 'I' for Inactive)
REMARK    1  A    between atoms: C_1  and  C_2
REMARK    2  A    between atoms: C_2  and  C_3
REMARK    3  A    between atoms: C_2  and  N_20
REMARK    4  A    between atoms: C_2  and  C_28
REMARK    5  A    between atoms: C_3  and  S_4
REMARK    6  A    between atoms: S_4  and  C_7
REMARK    7  A    between atoms: C_10  and  O_11
REMARK    8  A    between atoms: O_11  and  C_12
REMARK    9  A    between atoms: N_20  and  C_21
REMARK   10  A    between atoms: C_21  and  C_22
REMARK   11  A    between atoms: N_30  and  O_31
REMARK                            x       y       z     vdW  Elec       q    Type
REMARK                         _______ _______ _______ _____ _____    ______ ____
ROOT
ATOM      1  C   UNL     1       6.312   5.440  19.217  0.00  0.00    +0.000 C 
ATOM      2  C   UNL     1       5.415   4.891  18.089  0.00  0.00    +0.000 C 
ENDROOT
BRANCH   2   3
ATOM      3  C   UNL     1       4.840   3.486  18.433  0.00  0.00    +0.000 C 
ATOM      4  O   UNL     1       4.190   2.823  17.627  0.00  0.00    +0.000 OA
ATOM      5  N   UNL     1       5.228   2.943  19.632  0.00  0.00    +0.000 N 
ATOM      6  H   UNL     1       5.741   3.409  20.371  0.00  0.00    +0.000 HD
BRANCH   5   7
ATOM      7  O   UNL     1       4.707   1.665  19.934  0.00  0.00    +0.000 OA
ATOM      8  H   UNL     1       4.011   1.555  19.247  0.00  0.00    +0.000 HD
ENDBRANCH   5   7
ENDBRANCH   2   3
BRANCH   2   9
ATOM      9  N   UNL     1       6.308   4.763  16.883  0.00  0.00    +0.000 NA
ATOM     10  H   UNL     1       6.294   3.799  16.545  0.00  0.00    +0.000 HD
BRANCH   9  11
ATOM     11  C   UNL     1       5.955   5.637  15.755  0.00  0.00    +0.000 C 
BRANCH  11  12
ATOM     12  C   UNL     1       6.283   4.987  14.431  0.00  0.00    +0.000 A 
ATOM     13  C   UNL     1       7.441   5.355  13.730  0.00  0.00    +0.000 A 
ATOM     14  C   UNL     1       7.756   4.746  12.513  0.00  0.00    +0.000 A 
ATOM     15  C   UNL     1       6.916   3.767  11.984  0.00  0.00    +0.000 A 
ATOM     16  C   UNL     1       5.762   3.396  12.671  0.00  0.00    +0.000 A 
ATOM     17  C   UNL     1       5.443   4.006  13.886  0.00  0.00    +0.000 A 
ENDBRANCH  11  12
ENDBRANCH   9  11
ENDBRANCH   2   9
BRANCH   2  18
ATOM     18  C   UNL     1       4.264   5.873  17.791  0.00  0.00    +0.000 C 
BRANCH  18  19
ATOM     19  S   UNL     1       2.878   5.769  18.917  0.00  0.00    +0.000 S 
ATOM     20  O   UNL     1       1.847   4.922  18.355  0.00  0.00    +0.000 OA
ATOM     21  O   UNL     1       3.381   5.526  20.255  0.00  0.00    +0.000 OA
BRANCH  19  22
ATOM     22  C   UNL     1       2.256   7.439  18.927  0.00  0.00    +0.000 A 
ATOM     23  C   UNL     1       2.451   8.280  17.826  0.00  0.00    +0.000 A 
ATOM     24  C   UNL     1       1.948   9.585  17.869  0.00  0.00    +0.000 A 
ATOM     25  C   UNL     1       1.265  10.046  19.001  0.00  0.00    +0.000 A 
ATOM     26  C   UNL     1       1.125   9.207  20.112  0.00  0.00    +0.000 A 
ATOM     27  C   UNL     1       1.586   7.893  20.061  0.00  0.00    +0.000 A 
BRANCH  25  28
ATOM     28  O   UNL     1       0.819  11.348  18.952  0.00  0.00    +0.000 OA
BRANCH  28  29
ATOM     29  C   UNL     1      -0.510  11.628  19.172  0.00  0.00    +0.000 A 
ATOM     30  C   UNL     1      -1.393  11.272  18.150  0.00  0.00    +0.000 A 
ATOM     31  C   UNL     1      -2.761  11.517  18.288  0.00  0.00    +0.000 A 
ATOM     32  C   UNL     1      -3.249  12.120  19.447  0.00  0.00    +0.000 A 
ATOM     33  C   UNL     1      -2.375  12.447  20.482  0.00  0.00    +0.000 A 
ATOM     34  C   UNL     1      -1.012  12.174  20.359  0.00  0.00    +0.000 A 
ENDBRANCH  28  29
ENDBRANCH  25  28
ENDBRANCH  19  22
ENDBRANCH  18  19
ENDBRANCH   2  18
TORSDOF 10
ENDMDL
MODEL 4
REMARK VINA RESULT:      -7.6      0.813      1.290
REMARK  Name = 
REMARK  11 active torsions:
REMARK  status: ('A' for Active; 'I' for Inactive)
REMARK    1  A    between atoms: C_1  and  C_2
REMARK    2  A    between atoms: C_2  and  C_3
REMARK    3  A    between atoms: C_2  and  N_20
REMARK    4  A    between atoms: C_2  and  C_28
REMARK    5  A    between atoms: C_3  and  S_4
REMARK    6  A    between atoms: S_4  and  C_7
REMARK    7  A    between atoms: C_10  and  O_11
REMARK    8  A    between atoms: O_11  and  C_12
REMARK    9  A    between atoms: N_20  and  C_21
REMARK   10  A    between atoms: C_21  and  C_22
REMARK   11  A    between atoms: N_30  and  O_31
REMARK                            x       y       z     vdW  Elec       q    Type
REMARK                         _______ _______ _______ _____ _____    ______ ____
ROOT
ATOM      1  C   UNL     1       5.995   5.034  18.607  0.00  0.00    +0.000 C 
ATOM      2  C   UNL     1       4.890   4.256  17.864  0.00  0.00    +0.000 C 
ENDROOT
BRANCH   2   3
ATOM      3  C   UNL     1       4.516   2.933  18.595  0.00  0.00    +0.000 C 
ATOM      4  O   UNL     1       3.692   2.140  18.143  0.00  0.00    +0.000 OA
ATOM      5  N   UNL     1       5.268   2.609  19.696  0.00  0.00    +0.000 N 
ATOM      6  H   UNL     1       5.951   3.197  20.158  0.00  0.00    +0.000 HD
BRANCH   5   7
ATOM      7  O   UNL     1       4.926   1.404  20.350  0.00  0.00    +0.000 OA
ATOM      8  H   UNL     1       4.387   1.723  21.108  0.00  0.00    +0.000 HD
ENDBRANCH   5   7
ENDBRANCH   2   3
BRANCH   2   9
ATOM      9  N   UNL     1       5.469   3.913  16.516  0.00  0.00    +0.000 NA
ATOM     10  H   UNL     1       4.920   3.167  16.085  0.00  0.00    +0.000 HD
BRANCH   9  11
ATOM     11  C   UNL     1       5.527   5.032  15.564  0.00  0.00    +0.000 C 
BRANCH  11  12
ATOM     12  C   UNL     1       6.042   4.582  14.217  0.00  0.00    +0.000 A 
ATOM     13  C   UNL     1       5.305   3.672  13.445  0.00  0.00    +0.000 A 
ATOM     14  C   UNL     1       5.770   3.265  12.193  0.00  0.00    +0.000 A 
ATOM     15  C   UNL     1       6.977   3.761  11.701  0.00  0.00    +0.000 A 
ATOM     16  C   UNL     1       7.719   4.664  12.461  0.00  0.00    +0.000 A 
ATOM     17  C   UNL     1       7.257   5.069  13.715  0.00  0.00    +0.000 A 
ENDBRANCH  11  12
ENDBRANCH   9  11
ENDBRANCH   2   9
BRANCH   2  18
ATOM     18  C   UNL     1       3.635   5.136  17.690  0.00  0.00    +0.000 C 
BRANCH  18  19
ATOM     19  S   UNL     1       2.636   5.317  19.163  0.00  0.00    +0.000 S 
ATOM     20  O   UNL     1       1.438   4.512  19.049  0.00  0.00    +0.000 OA
ATOM     21  O   UNL     1       3.494   5.198  20.326  0.00  0.00    +0.000 OA
BRANCH  19  22
ATOM     22  C   UNL     1       2.145   7.028  19.093  0.00  0.00    +0.000 A 
ATOM     23  C   UNL     1       2.307   7.771  17.920  0.00  0.00    +0.000 A 
ATOM     24  C   UNL     1       1.909   9.111  17.902  0.00  0.00    +0.000 A 
ATOM     25  C   UNL     1       1.361   9.705  19.045  0.00  0.00    +0.000 A 
ATOM     26  C   UNL     1       1.254   8.961  20.225  0.00  0.00    +0.000 A 
ATOM     27  C   UNL     1       1.609   7.613  20.239  0.00  0.00    +0.000 A 
BRANCH  25  28
ATOM     28  O   UNL     1       1.012  11.032  18.932  0.00  0.00    +0.000 OA
BRANCH  28  29
ATOM     29  C   UNL     1      -0.292  11.420  19.142  0.00  0.00    +0.000 A 
ATOM     30  C   UNL     1      -1.238  10.915  18.247  0.00  0.00    +0.000 A 
ATOM     31  C   UNL     1      -2.586  11.254  18.386  0.00  0.00    +0.000 A 
ATOM     32  C   UNL     1      -2.990  12.100  19.418  0.00  0.00    +0.000 A 
ATOM     33  C   UNL     1      -2.054  12.580  20.332  0.00  0.00    +0.000 A 
ATOM     34  C   UNL     1      -0.712  12.216  20.213  0.00  0.00    +0.000 A 
ENDBRANCH  28  29
ENDBRANCH  25  28
ENDBRANCH  19  22
ENDBRANCH  18  19
ENDBRANCH   2  18
TORSDOF 10
ENDMDL
MODEL 5
REMARK VINA RESULT:      -7.6      2.473      4.499
REMARK  Name = 
REMARK  11 active torsions:
REMARK  status: ('A' for Active; 'I' for Inactive)
REMARK    1  A    between atoms: C_1  and  C_2
REMARK    2  A    between atoms: C_2  and  C_3
REMARK    3  A    between atoms: C_2  and  N_20
REMARK    4  A    between atoms: C_2  and  C_28
REMARK    5  A    between atoms: C_3  and  S_4
REMARK    6  A    between atoms: S_4  and  C_7
REMARK    7  A    between atoms: C_10  and  O_11
REMARK    8  A    between atoms: O_11  and  C_12
REMARK    9  A    between atoms: N_20  and  C_21
REMARK   10  A    between atoms: C_21  and  C_22
REMARK   11  A    between atoms: N_30  and  O_31
REMARK                            x       y       z     vdW  Elec       q    Type
REMARK                         _______ _______ _______ _____ _____    ______ ____
ROOT
ATOM      1  C   UNL     1       5.026   3.851  14.685  0.00  0.00    +0.000 C 
ATOM      2  C   UNL     1       5.279   4.349  16.123  0.00  0.00    +0.000 C 
ENDROOT
BRANCH   2   3
ATOM      3  C   UNL     1       6.798   4.446  16.447  0.00  0.00    +0.000 C 
ATOM      4  O   UNL     1       7.587   5.064  15.734  0.00  0.00    +0.000 OA
ATOM      5  N   UNL     1       7.198   3.943  17.660  0.00  0.00    +0.000 N 
ATOM      6  H   UNL     1       6.637   3.402  18.307  0.00  0.00    +0.000 HD
BRANCH   5   7
ATOM      7  O   UNL     1       8.577   4.040  17.949  0.00  0.00    +0.000 OA
ATOM      8  H   UNL     1       8.941   3.238  17.510  0.00  0.00    +0.000 HD
ENDBRANCH   5   7
ENDBRANCH   2   3
BRANCH   2   9
ATOM      9  N   UNL     1       4.658   3.316  17.026  0.00  0.00    +0.000 NA
ATOM     10  H   UNL     1       4.989   3.453  17.983  0.00  0.00    +0.000 HD
BRANCH   9  11
ATOM     11  C   UNL     1       3.189   3.322  17.056  0.00  0.00    +0.000 C 
BRANCH  11  12
ATOM     12  C   UNL     1       2.667   3.317  18.475  0.00  0.00    +0.000 A 
ATOM     13  C   UNL     1       3.461   2.822  19.519  0.00  0.00    +0.000 A 
ATOM     14  C   UNL     1       2.989   2.829  20.833  0.00  0.00    +0.000 A 
ATOM     15  C   UNL     1       1.719   3.328  21.116  0.00  0.00    +0.000 A 
ATOM     16  C   UNL     1       0.919   3.821  20.085  0.00  0.00    +0.000 A 
ATOM     17  C   UNL     1       1.389   3.810  18.770  0.00  0.00    +0.000 A 
ENDBRANCH  11  12
ENDBRANCH   9  11
ENDBRANCH   2   9
BRANCH   2  18
ATOM     18  C   UNL     1       4.603   5.718  16.344  0.00  0.00    +0.000 C 
BRANCH  18  19
ATOM     19  S   UNL     1       5.052   6.537  17.870  0.00  0.00    +0.000 S 
ATOM     20  O   UNL     1       5.280   5.555  18.909  0.00  0.00    +0.000 OA
ATOM     21  O   UNL     1       6.050   7.548  17.582  0.00  0.00    +0.000 OA
BRANCH  19  22
ATOM     22  C   UNL     1       3.565   7.426  18.288  0.00  0.00    +0.000 A 
ATOM     23  C   UNL     1       3.096   8.458  17.469  0.00  0.00    +0.000 A 
ATOM     24  C   UNL     1       1.925   9.134  17.828  0.00  0.00    +0.000 A 
ATOM     25  C   UNL     1       1.234   8.786  18.995  0.00  0.00    +0.000 A 
ATOM     26  C   UNL     1       1.746   7.785  19.828  0.00  0.00    +0.000 A 
ATOM     27  C   UNL     1       2.889   7.080  19.456  0.00  0.00    +0.000 A 
BRANCH  25  28
ATOM     28  O   UNL     1       0.100   9.517  19.268  0.00  0.00    +0.000 OA
BRANCH  28  29
ATOM     29  C   UNL     1       0.176  10.886  19.389  0.00  0.00    +0.000 A 
ATOM     30  C   UNL     1       1.009  11.371  20.400  0.00  0.00    +0.000 A 
ATOM     31  C   UNL     1       1.149  12.747  20.593  0.00  0.00    +0.000 A 
ATOM     32  C   UNL     1       0.455  13.640  19.778  0.00  0.00    +0.000 A 
ATOM     33  C   UNL     1      -0.352  13.161  18.748  0.00  0.00    +0.000 A 
ATOM     34  C   UNL     1      -0.468  11.787  18.533  0.00  0.00    +0.000 A 
ENDBRANCH  28  29
ENDBRANCH  25  28
ENDBRANCH  19  22
ENDBRANCH  18  19
ENDBRANCH   2  18
TORSDOF 10
ENDMDL
MODEL 6
REMARK VINA RESULT:      -7.5      3.495     10.763
REMARK  Name = 
REMARK  11 active torsions:
REMARK  status: ('A' for Active; 'I' for Inactive)
REMARK    1  A    between atoms: C_1  and  C_2
REMARK    2  A    between atoms: C_2  and  C_3
REMARK    3  A    between atoms: C_2  and  N_20
REMARK    4  A    between atoms: C_2  and  C_28
REMARK    5  A    between atoms: C_3  and  S_4
REMARK    6  A    between atoms: S_4  and  C_7
REMARK    7  A    between atoms: C_10  and  O_11
REMARK    8  A    between atoms: O_11  and  C_12
REMARK    9  A    between atoms: N_20  and  C_21
REMARK   10  A    between atoms: C_21  and  C_22
REMARK   11  A    between atoms: N_30  and  O_31
REMARK                            x       y       z     vdW  Elec       q    Type
REMARK                         _______ _______ _______ _____ _____    ______ ____
ROOT
ATOM      1  C   UNL     1      -0.815  12.828  18.213  0.00  0.00    +0.000 C 
ATOM      2  C   UNL     1      -1.492  11.452  18.382  0.00  0.00    +0.000 C 
ENDROOT
BRANCH   2   3
ATOM      3  C   UNL     1      -2.645  11.241  17.358  0.00  0.00    +0.000 C 
ATOM      4  O   UNL     1      -3.766  10.861  17.696  0.00  0.00    +0.000 OA
ATOM      5  N   UNL     1      -2.405  11.652  16.071  0.00  0.00    +0.000 N 
ATOM      6  H   UNL     1      -1.518  11.957  15.688  0.00  0.00    +0.000 HD
BRANCH   5   7
ATOM      7  O   UNL     1      -3.460  11.462  15.150  0.00  0.00    +0.000 OA
ATOM      8  H   UNL     1      -4.033  12.243  15.325  0.00  0.00    +0.000 HD
ENDBRANCH   5   7
ENDBRANCH   2   3
BRANCH   2   9
ATOM      9  N   UNL     1      -2.074  11.454  19.770  0.00  0.00    +0.000 NA
ATOM     10  H   UNL     1      -1.511  10.858  20.381  0.00  0.00    +0.000 HD
BRANCH   9  11
ATOM     11  C   UNL     1      -2.169  12.778  20.402  0.00  0.00    +0.000 C 
BRANCH  11  12
ATOM     12  C   UNL     1      -3.145  12.770  21.555  0.00  0.00    +0.000 A 
ATOM     13  C   UNL     1      -2.701  12.496  22.857  0.00  0.00    +0.000 A 
ATOM     14  C   UNL     1      -3.597  12.502  23.928  0.00  0.00    +0.000 A 
ATOM     15  C   UNL     1      -4.945  12.779  23.708  0.00  0.00    +0.000 A 
ATOM     16  C   UNL     1      -5.399  13.051  22.418  0.00  0.00    +0.000 A 
ATOM     17  C   UNL     1      -4.504  13.041  21.345  0.00  0.00    +0.000 A 
ENDBRANCH  11  12
ENDBRANCH   9  11
ENDBRANCH   2   9
BRANCH   2  18
ATOM     18  C   UNL     1      -0.453  10.321  18.247  0.00  0.00    +0.000 C 
BRANCH  18  19
ATOM     19  S   UNL     1       0.924  10.427  19.385  0.00  0.00    +0.000 S 
ATOM     20  O   UNL     1       1.871  11.419  18.922  0.00  0.00    +0.000 OA
ATOM     21  O   UNL     1       0.408  10.479  20.739  0.00  0.00    +0.000 OA
BRANCH  19  22
ATOM     22  C   UNL     1       1.693   8.829  19.218  0.00  0.00    +0.000 A 
ATOM     23  C   UNL     1       1.667   7.909  20.271  0.00  0.00    +0.000 A 
ATOM     24  C   UNL     1       2.281   6.664  20.103  0.00  0.00    +0.000 A 
ATOM     25  C   UNL     1       2.918   6.343  18.899  0.00  0.00    +0.000 A 
ATOM     26  C   UNL     1       2.979   7.294  17.875  0.00  0.00    +0.000 A 
ATOM     27  C   UNL     1       2.334   8.521  18.019  0.00  0.00    +0.000 A 
BRANCH  25  28
ATOM     28  O   UNL     1       3.503   5.098  18.836  0.00  0.00    +0.000 OA
BRANCH  28  29
ATOM     29  C   UNL     1       4.664   4.919  18.117  0.00  0.00    +0.000 A 
ATOM     30  C   UNL     1       5.856   5.172  18.799  0.00  0.00    +0.000 A 
ATOM     31  C   UNL     1       7.083   5.013  18.149  0.00  0.00    +0.000 A 
ATOM     32  C   UNL     1       7.119   4.604  16.817  0.00  0.00    +0.000 A 
ATOM     33  C   UNL     1       5.932   4.320  16.143  0.00  0.00    +0.000 A 
ATOM     34  C   UNL     1       4.708   4.447  16.800  0.00  0.00    +0.000 A 
ENDBRANCH  28  29
ENDBRANCH  25  28
ENDBRANCH  19  22
ENDBRANCH  18  19
ENDBRANCH   2  18
TORSDOF 10
ENDMDL
MODEL 7
REMARK VINA RESULT:      -7.4      0.773      1.291
REMARK  Name = 
REMARK  11 active torsions:
REMARK  status: ('A' for Active; 'I' for Inactive)
REMARK    1  A    between atoms: C_1  and  C_2
REMARK    2  A    between atoms: C_2  and  C_3
REMARK    3  A    between atoms: C_2  and  N_20
REMARK    4  A    between atoms: C_2  and  C_28
REMARK    5  A    between atoms: C_3  and  S_4
REMARK    6  A    between atoms: S_4  and  C_7
REMARK    7  A    between atoms: C_10  and  O_11
REMARK    8  A    between atoms: O_11  and  C_12
REMARK    9  A    between atoms: N_20  and  C_21
REMARK   10  A    between atoms: C_21  and  C_22
REMARK   11  A    between atoms: N_30  and  O_31
REMARK                            x       y       z     vdW  Elec       q    Type
REMARK                         _______ _______ _______ _____ _____    ______ ____
ROOT
ATOM      1  C   UNL     1       6.779   4.953  18.122  0.00  0.00    +0.000 C 
ATOM      2  C   UNL     1       5.249   4.804  17.996  0.00  0.00    +0.000 C 
ENDROOT
BRANCH   2   3
ATOM      3  C   UNL     1       4.751   3.431  18.534  0.00  0.00    +0.000 C 
ATOM      4  O   UNL     1       3.961   2.725  17.910  0.00  0.00    +0.000 OA
ATOM      5  N   UNL     1       5.359   2.962  19.672  0.00  0.00    +0.000 N 
ATOM      6  H   UNL     1       6.001   3.469  20.268  0.00  0.00    +0.000 HD
BRANCH   5   7
ATOM      7  O   UNL     1       4.905   1.712  20.150  0.00  0.00    +0.000 OA
ATOM      8  H   UNL     1       4.874   1.172  19.327  0.00  0.00    +0.000 HD
ENDBRANCH   5   7
ENDBRANCH   2   3
BRANCH   2   9
ATOM      9  N   UNL     1       4.953   4.878  16.521  0.00  0.00    +0.000 NA
ATOM     10  H   UNL     1       5.445   5.674  16.111  0.00  0.00    +0.000 HD
BRANCH   9  11
ATOM     11  C   UNL     1       5.324   3.681  15.753  0.00  0.00    +0.000 C 
BRANCH  11  12
ATOM     12  C   UNL     1       6.080   4.044  14.496  0.00  0.00    +0.000 A 
ATOM     13  C   UNL     1       5.773   3.417  13.280  0.00  0.00    +0.000 A 
ATOM     14  C   UNL     1       6.459   3.760  12.113  0.00  0.00    +0.000 A 
ATOM     15  C   UNL     1       7.459   4.731  12.151  0.00  0.00    +0.000 A 
ATOM     16  C   UNL     1       7.774   5.359  13.355  0.00  0.00    +0.000 A 
ATOM     17  C   UNL     1       7.092   5.014  14.524  0.00  0.00    +0.000 A 
ENDBRANCH  11  12
ENDBRANCH   9  11
ENDBRANCH   2   9
BRANCH   2  18
ATOM     18  C   UNL     1       4.533   5.952  18.736  0.00  0.00    +0.000 C 
BRANCH  18  19
ATOM     19  S   UNL     1       2.766   5.741  18.916  0.00  0.00    +0.000 S 
ATOM     20  O   UNL     1       2.217   5.130  17.724  0.00  0.00    +0.000 OA
ATOM     21  O   UNL     1       2.494   5.176  20.223  0.00  0.00    +0.000 OA
BRANCH  19  22
ATOM     22  C   UNL     1       2.177   7.421  18.981  0.00  0.00    +0.000 A 
ATOM     23  C   UNL     1       1.590   7.929  20.145  0.00  0.00    +0.000 A 
ATOM     24  C   UNL     1       1.140   9.253  20.159  0.00  0.00    +0.000 A 
ATOM     25  C   UNL     1       1.269  10.058  19.021  0.00  0.00    +0.000 A 
ATOM     26  C   UNL     1       1.811   9.518  17.850  0.00  0.00    +0.000 A 
ATOM     27  C   UNL     1       2.300   8.214  17.841  0.00  0.00    +0.000 A 
BRANCH  25  28
ATOM     28  O   UNL     1       0.785  11.343  19.130  0.00  0.00    +0.000 OA
BRANCH  28  29
ATOM     29  C   UNL     1      -0.574  11.567  19.150  0.00  0.00    +0.000 A 
ATOM     30  C   UNL     1      -1.062  12.299  20.235  0.00  0.00    +0.000 A 
ATOM     31  C   UNL     1      -2.427  12.577  20.336  0.00  0.00    +0.000 A 
ATOM     32  C   UNL     1      -3.306  12.122  19.355  0.00  0.00    +0.000 A 
ATOM     33  C   UNL     1      -2.818  11.419  18.255  0.00  0.00    +0.000 A 
ATOM     34  C   UNL     1      -1.451  11.168  18.136  0.00  0.00    +0.000 A 
ENDBRANCH  28  29
ENDBRANCH  25  28
ENDBRANCH  19  22
ENDBRANCH  18  19
ENDBRANCH   2  18
TORSDOF 10
ENDMDL
MODEL 8
REMARK VINA RESULT:      -7.4      3.523     10.813
REMARK  Name = 
REMARK  11 active torsions:
REMARK  status: ('A' for Active; 'I' for Inactive)
REMARK    1  A    between atoms: C_1  and  C_2
REMARK    2  A    between atoms: C_2  and  C_3
REMARK    3  A    between atoms: C_2  and  N_20
REMARK    4  A    between atoms: C_2  and  C_28
REMARK    5  A    between atoms: C_3  and  S_4
REMARK    6  A    between atoms: S_4  and  C_7
REMARK    7  A    between atoms: C_10  and  O_11
REMARK    8  A    between atoms: O_11  and  C_12
REMARK    9  A    between atoms: N_20  and  C_21
REMARK   10  A    between atoms: C_21  and  C_22
REMARK   11  A    between atoms: N_30  and  O_31
REMARK                            x       y       z     vdW  Elec       q    Type
REMARK                         _______ _______ _______ _____ _____    ______ ____
ROOT
ATOM      1  C   UNL     1      -0.658  12.987  18.237  0.00  0.00    +0.000 C 
ATOM      2  C   UNL     1      -1.434  11.674  18.469  0.00  0.00    +0.000 C 
ENDROOT
BRANCH   2   3
ATOM      3  C   UNL     1      -2.617  11.512  17.471  0.00  0.00    +0.000 C 
ATOM      4  O   UNL     1      -3.785  11.413  17.843  0.00  0.00    +0.000 OA
ATOM      5  N   UNL     1      -2.317  11.644  16.139  0.00  0.00    +0.000 N 
ATOM      6  H   UNL     1      -1.392  11.706  15.729  0.00  0.00    +0.000 HD
BRANCH   5   7
ATOM      7  O   UNL     1      -3.397  11.501  15.240  0.00  0.00    +0.000 OA
ATOM      8  H   UNL     1      -3.790  12.404  15.240  0.00  0.00    +0.000 HD
ENDBRANCH   5   7
ENDBRANCH   2   3
BRANCH   2   9
ATOM      9  N   UNL     1      -1.991  11.772  19.865  0.00  0.00    +0.000 NA
ATOM     10  H   UNL     1      -1.321  11.383  20.531  0.00  0.00    +0.000 HD
BRANCH   9  11
ATOM     11  C   UNL     1      -2.321  13.135  20.306  0.00  0.00    +0.000 C 
BRANCH  11  12
ATOM     12  C   UNL     1      -3.110  13.121  21.595  0.00  0.00    +0.000 A 
ATOM     13  C   UNL     1      -2.708  12.306  22.663  0.00  0.00    +0.000 A 
ATOM     14  C   UNL     1      -3.425  12.301  23.861  0.00  0.00    +0.000 A 
ATOM     15  C   UNL     1      -4.554  13.107  24.001  0.00  0.00    +0.000 A 
ATOM     16  C   UNL     1      -4.965  13.919  22.945  0.00  0.00    +0.000 A 
ATOM     17  C   UNL     1      -4.250  13.922  21.745  0.00  0.00    +0.000 A 
ENDBRANCH  11  12
ENDBRANCH   9  11
ENDBRANCH   2   9
BRANCH   2  18
ATOM     18  C   UNL     1      -0.485  10.463  18.364  0.00  0.00    +0.000 C 
BRANCH  18  19
ATOM     19  S   UNL     1       0.903  10.497  19.493  0.00  0.00    +0.000 S 
ATOM     20  O   UNL     1       1.868  11.485  19.058  0.00  0.00    +0.000 OA
ATOM     21  O   UNL     1       0.400  10.510  20.852  0.00  0.00    +0.000 OA
BRANCH  19  22
ATOM     22  C   UNL     1       1.635   8.890  19.260  0.00  0.00    +0.000 A 
ATOM     23  C   UNL     1       2.179   8.524  18.025  0.00  0.00    +0.000 A 
ATOM     24  C   UNL     1       2.746   7.254  17.879  0.00  0.00    +0.000 A 
ATOM     25  C   UNL     1       2.764   6.357  18.954  0.00  0.00    +0.000 A 
ATOM     26  C   UNL     1       2.170   6.721  20.167  0.00  0.00    +0.000 A 
ATOM     27  C   UNL     1       1.640   8.000  20.333  0.00  0.00    +0.000 A 
BRANCH  25  28
ATOM     28  O   UNL     1       3.333   5.127  18.708  0.00  0.00    +0.000 OA
BRANCH  28  29
ATOM     29  C   UNL     1       4.658   5.043  18.344  0.00  0.00    +0.000 A 
ATOM     30  C   UNL     1       4.913   4.592  17.047  0.00  0.00    +0.000 A 
ATOM     31  C   UNL     1       6.228   4.477  16.590  0.00  0.00    +0.000 A 
ATOM     32  C   UNL     1       7.290   4.812  17.429  0.00  0.00    +0.000 A 
ATOM     33  C   UNL     1       7.038   5.293  18.713  0.00  0.00    +0.000 A 
ATOM     34  C   UNL     1       5.724   5.437  19.159  0.00  0.00    +0.000 A 
ENDBRANCH  28  29
ENDBRANCH  25  28
ENDBRANCH  19  22
ENDBRANCH  18  19
ENDBRANCH   2  18
TORSDOF 10
ENDMDL
MODEL 9
REMARK VINA RESULT:      -7.4      2.534      4.611
REMARK  Name = 
REMARK  11 active torsions:
REMARK  status: ('A' for Active; 'I' for Inactive)
REMARK    1  A    between atoms: C_1  and  C_2
REMARK    2  A    between atoms: C_2  and  C_3
REMARK    3  A    between atoms: C_2  and  N_20
REMARK    4  A    between atoms: C_2  and  C_28
REMARK    5  A    between atoms: C_3  and  S_4
REMARK    6  A    between atoms: S_4  and  C_7
REMARK    7  A    between atoms: C_10  and  O_11
REMARK    8  A    between atoms: O_11  and  C_12
REMARK    9  A    between atoms: N_20  and  C_21
REMARK   10  A    between atoms: C_21  and  C_22
REMARK   11  A    between atoms: N_30  and  O_31
REMARK                            x       y       z     vdW  Elec       q    Type
REMARK                         _______ _______ _______ _____ _____    ______ ____
ROOT
ATOM      1  C   UNL     1       4.953   3.902  17.096  0.00  0.00    +0.000 C 
ATOM      2  C   UNL     1       5.412   4.346  18.500  0.00  0.00    +0.000 C 
ENDROOT
BRANCH   2   3
ATOM      3  C   UNL     1       6.867   4.898  18.490  0.00  0.00    +0.000 C 
ATOM      4  O   UNL     1       7.585   4.850  17.492  0.00  0.00    +0.000 OA
ATOM      5  N   UNL     1       7.267   5.592  19.605  0.00  0.00    +0.000 N 
ATOM      6  H   UNL     1       6.765   5.672  20.481  0.00  0.00    +0.000 HD
BRANCH   5   7
ATOM      7  O   UNL     1       8.587   6.095  19.585  0.00  0.00    +0.000 OA
ATOM      8  H   UNL     1       8.581   6.668  18.784  0.00  0.00    +0.000 HD
ENDBRANCH   5   7
ENDBRANCH   2   3
BRANCH   2   9
ATOM      9  N   UNL     1       5.375   3.105  19.352  0.00  0.00    +0.000 NA
ATOM     10  H   UNL     1       5.176   3.359  20.322  0.00  0.00    +0.000 HD
BRANCH   9  11
ATOM     11  C   UNL     1       4.382   2.102  18.942  0.00  0.00    +0.000 C 
BRANCH  11  12
ATOM     12  C   UNL     1       3.003   2.451  19.451  0.00  0.00    +0.000 A 
ATOM     13  C   UNL     1       1.887   2.333  18.609  0.00  0.00    +0.000 A 
ATOM     14  C   UNL     1       0.608   2.641  19.079  0.00  0.00    +0.000 A 
ATOM     15  C   UNL     1       0.433   3.072  20.393  0.00  0.00    +0.000 A 
ATOM     16  C   UNL     1       1.535   3.196  21.238  0.00  0.00    +0.000 A 
ATOM     17  C   UNL     1       2.815   2.892  20.768  0.00  0.00    +0.000 A 
ENDBRANCH  11  12
ENDBRANCH   9  11
ENDBRANCH   2   9
BRANCH   2  18
ATOM     18  C   UNL     1       4.449   5.407  19.071  0.00  0.00    +0.000 C 
BRANCH  18  19
ATOM     19  S   UNL     1       3.409   6.207  17.855  0.00  0.00    +0.000 S 
ATOM     20  O   UNL     1       4.224   6.971  16.934  0.00  0.00    +0.000 OA
ATOM     21  O   UNL     1       2.445   5.244  17.358  0.00  0.00    +0.000 OA
BRANCH  19  22
ATOM     22  C   UNL     1       2.478   7.365  18.838  0.00  0.00    +0.000 A 
ATOM     23  C   UNL     1       2.134   7.065  20.160  0.00  0.00    +0.000 A 
ATOM     24  C   UNL     1       1.404   7.998  20.902  0.00  0.00    +0.000 A 
ATOM     25  C   UNL     1       1.016   9.215  20.328  0.00  0.00    +0.000 A 
ATOM     26  C   UNL     1       1.324   9.476  18.989  0.00  0.00    +0.000 A 
ATOM     27  C   UNL     1       2.087   8.569  18.256  0.00  0.00    +0.000 A 
BRANCH  25  28
ATOM     28  O   UNL     1       0.289  10.062  21.135  0.00  0.00    +0.000 OA
BRANCH  28  29
ATOM     29  C   UNL     1      -0.129  11.282  20.652  0.00  0.00    +0.000 A 
ATOM     30  C   UNL     1      -1.316  11.279  19.917  0.00  0.00    +0.000 A 
ATOM     31  C   UNL     1      -1.817  12.472  19.391  0.00  0.00    +0.000 A 
ATOM     32  C   UNL     1      -1.131  13.669  19.597  0.00  0.00    +0.000 A 
ATOM     33  C   UNL     1       0.037  13.679  20.358  0.00  0.00    +0.000 A 
ATOM     34  C   UNL     1       0.521  12.493  20.911  0.00  0.00    +0.000 A 
ENDBRANCH  28  29
ENDBRANCH  25  28
ENDBRANCH  19  22
ENDBRANCH  18  19
ENDBRANCH   2  18
TORSDOF 10
ENDMDL
