MODEL 1
REMARK VINA RESULT:      -9.0      0.000      0.000
REMARK  Name = 
REMARK  4 active torsions:
REMARK  status: ('A' for Active; 'I' for Inactive)
REMARK    1  A    between atoms: C_7  and  C_9
REMARK    2  A    between atoms: C_9  and  C_10
REMARK    3  A    between atoms: C_15  and  N_16
REMARK    4  A    between atoms: N_16  and  C_17
REMARK                            x       y       z     vdW  Elec       q    Type
REMARK                         _______ _______ _______ _____ _____    ______ ____
ROOT
ATOM      1  C   UNL     1       2.817   4.134  18.565  0.00  0.00    +0.000 A 
ATOM      2  C   UNL     1       2.277   2.882  18.198  0.00  0.00    +0.000 A 
ATOM      3  C   UNL     1       1.194   2.329  18.877  0.00  0.00    +0.000 A 
ATOM      4  C   UNL     1       0.630   3.012  19.943  0.00  0.00    +0.000 A 
ATOM      5  C   UNL     1       1.139   4.256  20.312  0.00  0.00    +0.000 A 
ATOM      6  C   UNL     1       2.206   4.860  19.612  0.00  0.00    +0.000 A 
ENDROOT
BRANCH   6   7
ATOM      7  N   UNL     1       2.706   6.111  20.065  0.00  0.00    +0.000 N 
ATOM      8  H   UNL     1       3.718   6.160  19.998  0.00  0.00    +0.000 HD
BRANCH   7   9
ATOM      9  C   UNL     1       2.199   7.391  19.711  0.00  0.00    +0.000 A 
ATOM     10  C   UNL     1       2.319   7.824  18.384  0.00  0.00    +0.000 A 
ATOM     11  C   UNL     1       1.754   9.035  17.977  0.00  0.00    +0.000 A 
ATOM     12  C   UNL     1       1.044   9.816  18.887  0.00  0.00    +0.000 A 
ATOM     13  C   UNL     1       0.895   9.384  20.203  0.00  0.00    +0.000 A 
ATOM     14  C   UNL     1       1.460   8.174  20.608  0.00  0.00    +0.000 A 
ENDBRANCH   7   9
ENDBRANCH   6   7
BRANCH   1  15
ATOM     15  C   UNL     1       4.037   4.617  17.803  0.00  0.00    +0.000 C 
BRANCH  15  22
ATOM     16  O   UNL     1       5.179   6.910  16.620  0.00  0.00    +0.000 OA
ATOM     17  C   UNL     1       6.136   6.644  17.328  0.00  0.00    +0.000 C 
ATOM     18  C   UNL     1       7.483   7.312  17.216  0.00  0.00    +0.000 C 
ATOM     19  C   UNL     1       8.094   7.059  18.581  0.00  0.00    +0.000 C 
ATOM     20  C   UNL     1       7.513   5.720  18.980  0.00  0.00    +0.000 C 
ATOM     21  N   UNL     1       6.212   5.683  18.349  0.00  0.00    +0.000 N 
ATOM     22  C   UNL     1       5.341   4.618  18.598  0.00  0.00    +0.000 C 
ATOM     23  O   UNL     1       5.648   3.723  19.388  0.00  0.00    +0.000 OA
ENDBRANCH  15  22
ENDBRANCH   1  15
TORSDOF 4
ENDMDL
MODEL 2
REMARK VINA RESULT:      -8.8      0.106      1.033
REMARK  Name = 
REMARK  4 active torsions:
REMARK  status: ('A' for Active; 'I' for Inactive)
REMARK    1  A    between atoms: C_7  and  C_9
REMARK    2  A    between atoms: C_9  and  C_10
REMARK    3  A    between atoms: C_15  and  N_16
REMARK    4  A    between atoms: N_16  and  C_17
REMARK                            x       y       z     vdW  Elec       q    Type
REMARK                         _______ _______ _______ _____ _____    ______ ____
ROOT
ATOM      1  C   UNL     1       2.865   4.159  18.580  0.00  0.00    +0.000 A 
ATOM      2  C   UNL     1       2.383   2.874  18.249  0.00  0.00    +0.000 A 
ATOM      3  C   UNL     1       1.313   2.300  18.931  0.00  0.00    +0.000 A 
ATOM      4  C   UNL     1       0.705   2.995  19.965  0.00  0.00    +0.000 A 
ATOM      5  C   UNL     1       1.157   4.271  20.298  0.00  0.00    +0.000 A 
ATOM      6  C   UNL     1       2.209   4.895  19.592  0.00  0.00    +0.000 A 
ENDROOT
BRANCH   6   7
ATOM      7  N   UNL     1       2.650   6.180  20.008  0.00  0.00    +0.000 N 
ATOM      8  H   UNL     1       3.660   6.268  19.955  0.00  0.00    +0.000 HD
BRANCH   7   9
ATOM      9  C   UNL     1       2.098   7.426  19.602  0.00  0.00    +0.000 A 
ATOM     10  C   UNL     1       1.428   8.210  20.549  0.00  0.00    +0.000 A 
ATOM     11  C   UNL     1       0.951   9.480  20.212  0.00  0.00    +0.000 A 
ATOM     12  C   UNL     1       1.159   9.987  18.931  0.00  0.00    +0.000 A 
ATOM     13  C   UNL     1       1.847   9.227  17.988  0.00  0.00    +0.000 A 
ATOM     14  C   UNL     1       2.322   7.959  18.326  0.00  0.00    +0.000 A 
ENDBRANCH   7   9
ENDBRANCH   6   7
BRANCH   1  15
ATOM     15  C   UNL     1       4.076   4.667  17.819  0.00  0.00    +0.000 C 
BRANCH  15  22
ATOM     16  O   UNL     1       5.205   6.973  16.649  0.00  0.00    +0.000 OA
ATOM     17  C   UNL     1       6.168   6.701  17.347  0.00  0.00    +0.000 C 
ATOM     18  C   UNL     1       7.513   7.372  17.232  0.00  0.00    +0.000 C 
ATOM     19  C   UNL     1       8.135   7.107  18.590  0.00  0.00    +0.000 C 
ATOM     20  C   UNL     1       7.559   5.763  18.980  0.00  0.00    +0.000 C 
ATOM     21  N   UNL     1       6.253   5.731  18.359  0.00  0.00    +0.000 N 
ATOM     22  C   UNL     1       5.386   4.662  18.604  0.00  0.00    +0.000 C 
ATOM     23  O   UNL     1       5.700   3.760  19.383  0.00  0.00    +0.000 OA
ENDBRANCH  15  22
ENDBRANCH   1  15
TORSDOF 4
ENDMDL
MODEL 3
REMARK VINA RESULT:      -8.6      1.679      4.627
REMARK  Name = 
REMARK  4 active torsions:
REMARK  status: ('A' for Active; 'I' for Inactive)
REMARK    1  A    between atoms: C_7  and  C_9
REMARK    2  A    between atoms: C_9  and  C_10
REMARK    3  A    between atoms: C_15  and  N_16
REMARK    4  A    between atoms: N_16  and  C_17
REMARK                            x       y       z     vdW  Elec       q    Type
REMARK                         _______ _______ _______ _____ _____    ______ ____
ROOT
ATOM      1  C   UNL     1       5.224   4.785  17.699  0.00  0.00    +0.000 A 
ATOM      2  C   UNL     1       6.624   4.619  17.634  0.00  0.00    +0.000 A 
ATOM      3  C   UNL     1       7.475   5.699  17.413  0.00  0.00    +0.000 A 
ATOM      4  C   UNL     1       6.945   6.968  17.246  0.00  0.00    +0.000 A 
ATOM      5  C   UNL     1       5.566   7.155  17.321  0.00  0.00    +0.000 A 
ATOM      6  C   UNL     1       4.684   6.086  17.589  0.00  0.00    +0.000 A 
ENDROOT
BRANCH   6   7
ATOM      7  N   UNL     1       3.286   6.336  17.612  0.00  0.00    +0.000 N 
ATOM      8  H   UNL     1       2.750   5.478  17.699  0.00  0.00    +0.000 HD
BRANCH   7   9
ATOM      9  C   UNL     1       2.625   7.325  18.391  0.00  0.00    +0.000 A 
ATOM     10  C   UNL     1       2.128   8.468  17.754  0.00  0.00    +0.000 A 
ATOM     11  C   UNL     1       1.394   9.418  18.468  0.00  0.00    +0.000 A 
ATOM     12  C   UNL     1       1.131   9.224  19.822  0.00  0.00    +0.000 A 
ATOM     13  C   UNL     1       1.598   8.078  20.462  0.00  0.00    +0.000 A 
ATOM     14  C   UNL     1       2.330   7.130  19.747  0.00  0.00    +0.000 A 
ENDBRANCH   7   9
ENDBRANCH   6   7
BRANCH   1  15
ATOM     15  C   UNL     1       4.381   3.535  17.878  0.00  0.00    +0.000 C 
BRANCH  15  22
ATOM     16  O   UNL     1       1.613   4.011  18.151  0.00  0.00    +0.000 OA
ATOM     17  C   UNL     1       1.791   3.633  19.298  0.00  0.00    +0.000 C 
ATOM     18  C   UNL     1       0.761   3.745  20.394  0.00  0.00    +0.000 C 
ATOM     19  C   UNL     1       1.220   2.698  21.390  0.00  0.00    +0.000 C 
ATOM     20  C   UNL     1       2.725   2.703  21.231  0.00  0.00    +0.000 C 
ATOM     21  N   UNL     1       2.946   3.055  19.846  0.00  0.00    +0.000 N 
ATOM     22  C   UNL     1       4.241   3.047  19.318  0.00  0.00    +0.000 C 
ATOM     23  O   UNL     1       5.201   2.699  20.007  0.00  0.00    +0.000 OA
ENDBRANCH  15  22
ENDBRANCH   1  15
TORSDOF 4
ENDMDL
MODEL 4
REMARK VINA RESULT:      -8.4      1.681      4.719
REMARK  Name = 
REMARK  4 active torsions:
REMARK  status: ('A' for Active; 'I' for Inactive)
REMARK    1  A    between atoms: C_7  and  C_9
REMARK    2  A    between atoms: C_9  and  C_10
REMARK    3  A    between atoms: C_15  and  N_16
REMARK    4  A    between atoms: N_16  and  C_17
REMARK                            x       y       z     vdW  Elec       q    Type
REMARK                         _______ _______ _______ _____ _____    ______ ____
ROOT
ATOM      1  C   UNL     1       5.235   4.806  17.780  0.00  0.00    +0.000 A 
ATOM      2  C   UNL     1       6.640   4.669  17.816  0.00  0.00    +0.000 A 
ATOM      3  C   UNL     1       7.482   5.760  17.615  0.00  0.00    +0.000 A 
ATOM      4  C   UNL     1       6.940   7.010  17.366  0.00  0.00    +0.000 A 
ATOM      5  C   UNL     1       5.555   7.169  17.341  0.00  0.00    +0.000 A 
ATOM      6  C   UNL     1       4.679   6.090  17.587  0.00  0.00    +0.000 A 
ENDROOT
BRANCH   6   7
ATOM      7  N   UNL     1       3.277   6.309  17.505  0.00  0.00    +0.000 N 
ATOM      8  H   UNL     1       2.758   5.436  17.503  0.00  0.00    +0.000 HD
BRANCH   7   9
ATOM      9  C   UNL     1       2.530   7.240  18.277  0.00  0.00    +0.000 A 
ATOM     10  C   UNL     1       2.366   7.004  19.648  0.00  0.00    +0.000 A 
ATOM     11  C   UNL     1       1.717   7.940  20.458  0.00  0.00    +0.000 A 
ATOM     12  C   UNL     1       1.245   9.131  19.910  0.00  0.00    +0.000 A 
ATOM     13  C   UNL     1       1.425   9.388  18.553  0.00  0.00    +0.000 A 
ATOM     14  C   UNL     1       2.073   8.453  17.745  0.00  0.00    +0.000 A 
ENDBRANCH   7   9
ENDBRANCH   6   7
BRANCH   1  15
ATOM     15  C   UNL     1       4.407   3.544  17.946  0.00  0.00    +0.000 C 
BRANCH  15  22
ATOM     16  O   UNL     1       1.624   3.955  18.158  0.00  0.00    +0.000 OA
ATOM     17  C   UNL     1       1.785   3.585  19.310  0.00  0.00    +0.000 C 
ATOM     18  C   UNL     1       0.730   3.675  20.382  0.00  0.00    +0.000 C 
ATOM     19  C   UNL     1       1.192   2.643  21.392  0.00  0.00    +0.000 C 
ATOM     20  C   UNL     1       2.699   2.684  21.266  0.00  0.00    +0.000 C 
ATOM     21  N   UNL     1       2.942   3.036  19.885  0.00  0.00    +0.000 N 
ATOM     22  C   UNL     1       4.247   3.057  19.385  0.00  0.00    +0.000 C 
ATOM     23  O   UNL     1       5.201   2.734  20.096  0.00  0.00    +0.000 OA
ENDBRANCH  15  22
ENDBRANCH   1  15
TORSDOF 4
ENDMDL
MODEL 5
REMARK VINA RESULT:      -8.4      0.904      1.524
REMARK  Name = 
REMARK  4 active torsions:
REMARK  status: ('A' for Active; 'I' for Inactive)
REMARK    1  A    between atoms: C_7  and  C_9
REMARK    2  A    between atoms: C_9  and  C_10
REMARK    3  A    between atoms: C_15  and  N_16
REMARK    4  A    between atoms: N_16  and  C_17
REMARK                            x       y       z     vdW  Elec       q    Type
REMARK                         _______ _______ _______ _____ _____    ______ ____
ROOT
ATOM      1  C   UNL     1       3.262   3.628  19.379  0.00  0.00    +0.000 A 
ATOM      2  C   UNL     1       2.700   2.350  19.171  0.00  0.00    +0.000 A 
ATOM      3  C   UNL     1       1.394   2.057  19.558  0.00  0.00    +0.000 A 
ATOM      4  C   UNL     1       0.624   3.034  20.169  0.00  0.00    +0.000 A 
ATOM      5  C   UNL     1       1.156   4.307  20.371  0.00  0.00    +0.000 A 
ATOM      6  C   UNL     1       2.459   4.643  19.946  0.00  0.00    +0.000 A 
ENDROOT
BRANCH   6   7
ATOM      7  N   UNL     1       2.958   5.946  20.219  0.00  0.00    +0.000 N 
ATOM      8  H   UNL     1       3.968   5.990  20.127  0.00  0.00    +0.000 HD
BRANCH   7   9
ATOM      9  C   UNL     1       2.435   7.165  19.707  0.00  0.00    +0.000 A 
ATOM     10  C   UNL     1       2.617   7.462  18.351  0.00  0.00    +0.000 A 
ATOM     11  C   UNL     1       2.041   8.605  17.790  0.00  0.00    +0.000 A 
ATOM     12  C   UNL     1       1.259   9.450  18.574  0.00  0.00    +0.000 A 
ATOM     13  C   UNL     1       1.049   9.151  19.919  0.00  0.00    +0.000 A 
ATOM     14  C   UNL     1       1.625   8.010  20.477  0.00  0.00    +0.000 A 
ENDBRANCH   7   9
ENDBRANCH   6   7
BRANCH   1  15
ATOM     15  C   UNL     1       4.713   3.824  18.979  0.00  0.00    +0.000 C 
BRANCH  15  22
ATOM     16  O   UNL     1       7.030   5.141  19.907  0.00  0.00    +0.000 OA
ATOM     17  C   UNL     1       6.939   5.765  18.862  0.00  0.00    +0.000 C 
ATOM     18  C   UNL     1       7.758   6.988  18.534  0.00  0.00    +0.000 C 
ATOM     19  C   UNL     1       7.689   7.038  17.020  0.00  0.00    +0.000 C 
ATOM     20  C   UNL     1       6.324   6.461  16.714  0.00  0.00    +0.000 C 
ATOM     21  N   UNL     1       6.078   5.517  17.782  0.00  0.00    +0.000 N 
ATOM     22  C   UNL     1       4.936   4.710  17.756  0.00  0.00    +0.000 C 
ATOM     23  O   UNL     1       4.150   4.759  16.808  0.00  0.00    +0.000 OA
ENDBRANCH  15  22
ENDBRANCH   1  15
TORSDOF 4
ENDMDL
MODEL 6
REMARK VINA RESULT:      -8.3      0.858      1.833
REMARK  Name = 
REMARK  4 active torsions:
REMARK  status: ('A' for Active; 'I' for Inactive)
REMARK    1  A    between atoms: C_7  and  C_9
REMARK    2  A    between atoms: C_9  and  C_10
REMARK    3  A    between atoms: C_15  and  N_16
REMARK    4  A    between atoms: N_16  and  C_17
REMARK                            x       y       z     vdW  Elec       q    Type
REMARK                         _______ _______ _______ _____ _____    ______ ____
ROOT
ATOM      1  C   UNL     1       3.340   3.787  19.462  0.00  0.00    +0.000 A 
ATOM      2  C   UNL     1       2.895   2.468  19.226  0.00  0.00    +0.000 A 
ATOM      3  C   UNL     1       1.602   2.067  19.551  0.00  0.00    +0.000 A 
ATOM      4  C   UNL     1       0.726   2.974  20.127  0.00  0.00    +0.000 A 
ATOM      5  C   UNL     1       1.142   4.285  20.356  0.00  0.00    +0.000 A 
ATOM      6  C   UNL     1       2.432   4.729  19.993  0.00  0.00    +0.000 A 
ENDROOT
BRANCH   6   7
ATOM      7  N   UNL     1       2.808   6.067  20.291  0.00  0.00    +0.000 N 
ATOM      8  H   UNL     1       3.814   6.196  20.241  0.00  0.00    +0.000 HD
BRANCH   7   9
ATOM      9  C   UNL     1       2.206   7.242  19.763  0.00  0.00    +0.000 A 
ATOM     10  C   UNL     1       1.495   8.084  20.627  0.00  0.00    +0.000 A 
ATOM     11  C   UNL     1       0.967   9.294  20.167  0.00  0.00    +0.000 A 
ATOM     12  C   UNL     1       1.164   9.683  18.844  0.00  0.00    +0.000 A 
ATOM     13  C   UNL     1       1.893   8.867  17.981  0.00  0.00    +0.000 A 
ATOM     14  C   UNL     1       2.419   7.660  18.443  0.00  0.00    +0.000 A 
ENDBRANCH   7   9
ENDBRANCH   6   7
BRANCH   1  15
ATOM     15  C   UNL     1       4.787   4.104  19.131  0.00  0.00    +0.000 C 
BRANCH  15  22
ATOM     16  O   UNL     1       7.219   5.266  19.967  0.00  0.00    +0.000 OA
ATOM     17  C   UNL     1       7.107   5.927  18.947  0.00  0.00    +0.000 C 
ATOM     18  C   UNL     1       7.972   7.115  18.610  0.00  0.00    +0.000 C 
ATOM     19  C   UNL     1       7.825   7.217  17.104  0.00  0.00    +0.000 C 
ATOM     20  C   UNL     1       6.416   6.723  16.858  0.00  0.00    +0.000 C 
ATOM     21  N   UNL     1       6.177   5.760  17.909  0.00  0.00    +0.000 N 
ATOM     22  C   UNL     1       4.993   5.016  17.923  0.00  0.00    +0.000 C 
ATOM     23  O   UNL     1       4.161   5.136  17.021  0.00  0.00    +0.000 OA
ENDBRANCH  15  22
ENDBRANCH   1  15
TORSDOF 4
ENDMDL
MODEL 7
REMARK VINA RESULT:      -8.0      1.941      5.472
REMARK  Name = 
REMARK  4 active torsions:
REMARK  status: ('A' for Active; 'I' for Inactive)
REMARK    1  A    between atoms: C_7  and  C_9
REMARK    2  A    between atoms: C_9  and  C_10
REMARK    3  A    between atoms: C_15  and  N_16
REMARK    4  A    between atoms: N_16  and  C_17
REMARK                            x       y       z     vdW  Elec       q    Type
REMARK                         _______ _______ _______ _____ _____    ______ ____
ROOT
ATOM      1  C   UNL     1       2.343   5.497  19.309  0.00  0.00    +0.000 A 
ATOM      2  C   UNL     1       1.365   4.839  20.086  0.00  0.00    +0.000 A 
ATOM      3  C   UNL     1       0.933   3.552  19.775  0.00  0.00    +0.000 A 
ATOM      4  C   UNL     1       1.465   2.896  18.676  0.00  0.00    +0.000 A 
ATOM      5  C   UNL     1       2.443   3.523  17.905  0.00  0.00    +0.000 A 
ATOM      6  C   UNL     1       2.931   4.808  18.225  0.00  0.00    +0.000 A 
ENDROOT
BRANCH   6   7
ATOM      7  N   UNL     1       3.898   5.408  17.374  0.00  0.00    +0.000 N 
ATOM      8  H   UNL     1       3.519   6.208  16.877  0.00  0.00    +0.000 HD
BRANCH   7   9
ATOM      9  C   UNL     1       5.238   5.729  17.727  0.00  0.00    +0.000 A 
ATOM     10  C   UNL     1       5.887   6.765  17.044  0.00  0.00    +0.000 A 
ATOM     11  C   UNL     1       7.169   7.172  17.422  0.00  0.00    +0.000 A 
ATOM     12  C   UNL     1       7.807   6.560  18.499  0.00  0.00    +0.000 A 
ATOM     13  C   UNL     1       7.161   5.546  19.203  0.00  0.00    +0.000 A 
ATOM     14  C   UNL     1       5.881   5.141  18.825  0.00  0.00    +0.000 A 
ENDBRANCH   7   9
ENDBRANCH   6   7
BRANCH   1  15
ATOM     15  C   UNL     1       2.697   6.922  19.694  0.00  0.00    +0.000 C 
BRANCH  15  22
ATOM     16  O   UNL     1       1.222   8.300  21.666  0.00  0.00    +0.000 OA
ATOM     17  C   UNL     1       0.854   8.989  20.728  0.00  0.00    +0.000 C 
ATOM     18  C   UNL     1      -0.253  10.009  20.811  0.00  0.00    +0.000 C 
ATOM     19  C   UNL     1       0.047  10.922  19.638  0.00  0.00    +0.000 C 
ATOM     20  C   UNL     1       0.667   9.989  18.620  0.00  0.00    +0.000 C 
ATOM     21  N   UNL     1       1.337   8.980  19.410  0.00  0.00    +0.000 N 
ATOM     22  C   UNL     1       2.118   8.003  18.784  0.00  0.00    +0.000 C 
ATOM     23  O   UNL     1       2.283   8.014  17.563  0.00  0.00    +0.000 OA
ENDBRANCH  15  22
ENDBRANCH   1  15
TORSDOF 4
ENDMDL
MODEL 8
REMARK VINA RESULT:      -8.0      1.884      2.506
REMARK  Name = 
REMARK  4 active torsions:
REMARK  status: ('A' for Active; 'I' for Inactive)
REMARK    1  A    between atoms: C_7  and  C_9
REMARK    2  A    between atoms: C_9  and  C_10
REMARK    3  A    between atoms: C_15  and  N_16
REMARK    4  A    between atoms: N_16  and  C_17
REMARK                            x       y       z     vdW  Elec       q    Type
REMARK                         _______ _______ _______ _____ _____    ______ ____
ROOT
ATOM      1  C   UNL     1       3.401   3.708  19.412  0.00  0.00    +0.000 A 
ATOM      2  C   UNL     1       2.922   2.385  19.528  0.00  0.00    +0.000 A 
ATOM      3  C   UNL     1       1.844   2.071  20.353  0.00  0.00    +0.000 A 
ATOM      4  C   UNL     1       1.226   3.072  21.086  0.00  0.00    +0.000 A 
ATOM      5  C   UNL     1       1.676   4.387  20.974  0.00  0.00    +0.000 A 
ATOM      6  C   UNL     1       2.735   4.739  20.111  0.00  0.00    +0.000 A 
ENDROOT
BRANCH   6   7
ATOM      7  N   UNL     1       3.173   6.091  20.074  0.00  0.00    +0.000 N 
ATOM      8  H   UNL     1       4.132   6.168  19.750  0.00  0.00    +0.000 HD
BRANCH   7   9
ATOM      9  C   UNL     1       2.454   7.188  19.526  0.00  0.00    +0.000 A 
ATOM     10  C   UNL     1       1.702   8.000  20.383  0.00  0.00    +0.000 A 
ATOM     11  C   UNL     1       1.056   9.141  19.897  0.00  0.00    +0.000 A 
ATOM     12  C   UNL     1       1.174   9.492  18.555  0.00  0.00    +0.000 A 
ATOM     13  C   UNL     1       1.941   8.706  17.697  0.00  0.00    +0.000 A 
ATOM     14  C   UNL     1       2.585   7.568  18.183  0.00  0.00    +0.000 A 
ENDBRANCH   7   9
ENDBRANCH   6   7
BRANCH   1  15
ATOM     15  C   UNL     1       4.621   3.933  18.537  0.00  0.00    +0.000 C 
BRANCH  15  22
ATOM     16  O   UNL     1       7.261   4.475  17.702  0.00  0.00    +0.000 OA
ATOM     17  C   UNL     1       6.762   4.533  16.589  0.00  0.00    +0.000 C 
ATOM     18  C   UNL     1       7.485   5.028  15.363  0.00  0.00    +0.000 C 
ATOM     19  C   UNL     1       6.688   4.407  14.233  0.00  0.00    +0.000 C 
ATOM     20  C   UNL     1       5.280   4.355  14.786  0.00  0.00    +0.000 C 
ATOM     21  N   UNL     1       5.455   4.189  16.212  0.00  0.00    +0.000 N 
ATOM     22  C   UNL     1       4.342   3.992  17.037  0.00  0.00    +0.000 C 
ATOM     23  O   UNL     1       3.209   3.914  16.559  0.00  0.00    +0.000 OA
ENDBRANCH  15  22
ENDBRANCH   1  15
TORSDOF 4
ENDMDL
MODEL 9
REMARK VINA RESULT:      -8.0      1.811      5.019
REMARK  Name = 
REMARK  4 active torsions:
REMARK  status: ('A' for Active; 'I' for Inactive)
REMARK    1  A    between atoms: C_7  and  C_9
REMARK    2  A    between atoms: C_9  and  C_10
REMARK    3  A    between atoms: C_15  and  N_16
REMARK    4  A    between atoms: N_16  and  C_17
REMARK                            x       y       z     vdW  Elec       q    Type
REMARK                         _______ _______ _______ _____ _____    ______ ____
ROOT
ATOM      1  C   UNL     1       2.771   4.401  19.490  0.00  0.00    +0.000 A 
ATOM      2  C   UNL     1       1.400   4.079  19.384  0.00  0.00    +0.000 A 
ATOM      3  C   UNL     1       0.979   2.796  19.043  0.00  0.00    +0.000 A 
ATOM      4  C   UNL     1       1.919   1.808  18.794  0.00  0.00    +0.000 A 
ATOM      5  C   UNL     1       3.276   2.103  18.908  0.00  0.00    +0.000 A 
ATOM      6  C   UNL     1       3.729   3.382  19.296  0.00  0.00    +0.000 A 
ENDROOT
BRANCH   6   7
ATOM      7  N   UNL     1       5.127   3.629  19.354  0.00  0.00    +0.000 N 
ATOM      8  H   UNL     1       5.656   2.776  19.511  0.00  0.00    +0.000 HD
BRANCH   7   9
ATOM      9  C   UNL     1       5.874   4.423  18.441  0.00  0.00    +0.000 A 
ATOM     10  C   UNL     1       5.696   4.223  17.067  0.00  0.00    +0.000 A 
ATOM     11  C   UNL     1       6.342   5.044  16.139  0.00  0.00    +0.000 A 
ATOM     12  C   UNL     1       7.155   6.087  16.576  0.00  0.00    +0.000 A 
ATOM     13  C   UNL     1       7.320   6.313  17.940  0.00  0.00    +0.000 A 
ATOM     14  C   UNL     1       6.674   5.492  18.866  0.00  0.00    +0.000 A 
ENDBRANCH   7   9
ENDBRANCH   6   7
BRANCH   1  15
ATOM     15  C   UNL     1       3.125   5.844  19.804  0.00  0.00    +0.000 C 
BRANCH  15  22
ATOM     16  O   UNL     1       1.526   7.747  21.137  0.00  0.00    +0.000 OA
ATOM     17  C   UNL     1       1.508   8.305  20.052  0.00  0.00    +0.000 C 
ATOM     18  C   UNL     1       0.615   9.473  19.716  0.00  0.00    +0.000 C 
ATOM     19  C   UNL     1       1.329  10.110  18.540  0.00  0.00    +0.000 C 
ATOM     20  C   UNL     1       1.979   8.932  17.847  0.00  0.00    +0.000 C 
ATOM     21  N   UNL     1       2.262   7.993  18.910  0.00  0.00    +0.000 N 
ATOM     22  C   UNL     1       2.971   6.819  18.639  0.00  0.00    +0.000 C 
ATOM     23  O   UNL     1       3.402   6.589  17.507  0.00  0.00    +0.000 OA
ENDBRANCH  15  22
ENDBRANCH   1  15
TORSDOF 4
ENDMDL
