MODEL 1
REMARK VINA RESULT:      -7.8      0.000      0.000
REMARK  Name = 
REMARK  5 active torsions:
REMARK  status: ('A' for Active; 'I' for Inactive)
REMARK    1  A    between atoms: C_2  and  O_3
REMARK    2  A    between atoms: C_2  and  C_4
REMARK    3  A    between atoms: N_6  and  C_7
REMARK    4  A    between atoms: C_7  and  C_8
REMARK    5  A    between atoms: C_13  and  C_14
REMARK                            x       y       z     vdW  Elec       q    Type
REMARK                         _______ _______ _______ _____ _____    ______ ____
ROOT
ATOM      1  C   UNL     1       6.229   4.785  17.239  0.00  0.00    +0.000 C 
ATOM      2  C   UNL     1       6.928   5.320  15.999  0.00  0.00    +0.000 C 
ATOM      3  N   UNL     1       5.833   5.752  15.121  0.00  0.00    +0.000 NA
ATOM      4  C   UNL     1       4.855   6.358  16.050  0.00  0.00    +0.000 C 
ATOM      5  C   UNL     1       5.126   5.831  17.485  0.00  0.00    +0.000 C 
ENDROOT
BRANCH   5   6
ATOM      6  C   UNL     1       3.883   5.332  18.216  0.00  0.00    +0.000 A 
ATOM      7  C   UNL     1       3.585   5.751  19.525  0.00  0.00    +0.000 A 
ATOM      8  C   UNL     1       2.457   5.271  20.199  0.00  0.00    +0.000 A 
ATOM      9  C   UNL     1       1.602   4.386  19.561  0.00  0.00    +0.000 A 
ATOM     10  F   UNL     1       0.533   3.912  20.210  0.00  0.00    +0.000 F 
ATOM     11  C   UNL     1       1.835   3.996  18.252  0.00  0.00    +0.000 A 
ATOM     12  C   UNL     1       2.953   4.490  17.577  0.00  0.00    +0.000 A 
ENDBRANCH   5   6
BRANCH   1  14
ATOM     13  O   UNL     1       7.077   5.012  19.498  0.00  0.00    +0.000 OA
ATOM     14  C   UNL     1       7.240   4.644  18.346  0.00  0.00    +0.000 C 
BRANCH  14  15
ATOM     15  O   UNL     1       8.389   4.053  17.936  0.00  0.00    +0.000 OA
ATOM     16  H   UNL     1       8.307   3.502  17.134  0.00  0.00    +0.000 HD
ENDBRANCH  14  15
ENDBRANCH   1  14
BRANCH   3  17
ATOM     17  C   UNL     1       5.271   4.618  14.353  0.00  0.00    +0.000 C 
BRANCH  17  18
ATOM     18  C   UNL     1       6.332   3.903  13.516  0.00  0.00    +0.000 C 
ATOM     19  C   UNL     1       5.842   3.171  12.243  0.00  0.00    +0.000 C 
ATOM     20  C   UNL     1       7.130   3.646  11.547  0.00  0.00    +0.000 C 
ATOM     21  C   UNL     1       7.207   4.782  12.587  0.00  0.00    +0.000 C 
ENDBRANCH  17  18
ENDBRANCH   3  17
TORSDOF 5
ENDMDL
MODEL 2
REMARK VINA RESULT:      -7.8      1.284      1.763
REMARK  Name = 
REMARK  5 active torsions:
REMARK  status: ('A' for Active; 'I' for Inactive)
REMARK    1  A    between atoms: C_2  and  O_3
REMARK    2  A    between atoms: C_2  and  C_4
REMARK    3  A    between atoms: N_6  and  C_7
REMARK    4  A    between atoms: C_7  and  C_8
REMARK    5  A    between atoms: C_13  and  C_14
REMARK                            x       y       z     vdW  Elec       q    Type
REMARK                         _______ _______ _______ _____ _____    ______ ____
ROOT
ATOM      1  C   UNL     1       6.487   5.186  17.633  0.00  0.00    +0.000 C 
ATOM      2  C   UNL     1       7.372   5.928  16.644  0.00  0.00    +0.000 C 
ATOM      3  N   UNL     1       6.650   5.837  15.369  0.00  0.00    +0.000 NA
ATOM      4  C   UNL     1       5.232   6.006  15.755  0.00  0.00    +0.000 C 
ATOM      5  C   UNL     1       5.077   5.683  17.265  0.00  0.00    +0.000 C 
ENDROOT
BRANCH   5   6
ATOM      6  C   UNL     1       3.927   4.732  17.589  0.00  0.00    +0.000 A 
ATOM      7  C   UNL     1       4.067   3.339  17.452  0.00  0.00    +0.000 A 
ATOM      8  C   UNL     1       3.003   2.475  17.727  0.00  0.00    +0.000 A 
ATOM      9  C   UNL     1       1.794   2.994  18.166  0.00  0.00    +0.000 A 
ATOM     10  F   UNL     1       0.769   2.170  18.412  0.00  0.00    +0.000 F 
ATOM     11  C   UNL     1       1.639   4.356  18.365  0.00  0.00    +0.000 A 
ATOM     12  C   UNL     1       2.709   5.214  18.105  0.00  0.00    +0.000 A 
ENDBRANCH   5   6
BRANCH   1  14
ATOM     13  O   UNL     1       6.414   5.102  20.054  0.00  0.00    +0.000 OA
ATOM     14  C   UNL     1       6.939   5.512  19.032  0.00  0.00    +0.000 C 
BRANCH  14  15
ATOM     15  O   UNL     1       8.017   6.333  19.057  0.00  0.00    +0.000 OA
ATOM     16  H   UNL     1       7.930   7.145  18.522  0.00  0.00    +0.000 HD
ENDBRANCH  14  15
ENDBRANCH   1  14
BRANCH   3  17
ATOM     17  C   UNL     1       6.910   4.550  14.685  0.00  0.00    +0.000 C 
BRANCH  17  18
ATOM     18  C   UNL     1       6.209   4.462  13.330  0.00  0.00    +0.000 C 
ATOM     19  C   UNL     1       6.912   3.626  12.232  0.00  0.00    +0.000 C 
ATOM     20  C   UNL     1       5.517   3.138  11.797  0.00  0.00    +0.000 C 
ATOM     21  C   UNL     1       5.016   3.480  13.215  0.00  0.00    +0.000 C 
ENDBRANCH  17  18
ENDBRANCH   3  17
TORSDOF 5
ENDMDL
MODEL 3
REMARK VINA RESULT:      -7.7      3.260      4.566
REMARK  Name = 
REMARK  5 active torsions:
REMARK  status: ('A' for Active; 'I' for Inactive)
REMARK    1  A    between atoms: C_2  and  O_3
REMARK    2  A    between atoms: C_2  and  C_4
REMARK    3  A    between atoms: N_6  and  C_7
REMARK    4  A    between atoms: C_7  and  C_8
REMARK    5  A    between atoms: C_13  and  C_14
REMARK                            x       y       z     vdW  Elec       q    Type
REMARK                         _______ _______ _______ _____ _____    ______ ____
ROOT
ATOM      1  C   UNL     1       2.691   4.177  19.659  0.00  0.00    +0.000 C 
ATOM      2  C   UNL     1       3.825   3.175  19.516  0.00  0.00    +0.000 C 
ATOM      3  N   UNL     1       4.821   3.867  18.687  0.00  0.00    +0.000 NA
ATOM      4  C   UNL     1       4.783   5.260  19.181  0.00  0.00    +0.000 C 
ATOM      5  C   UNL     1       3.438   5.499  19.918  0.00  0.00    +0.000 C 
ENDROOT
BRANCH   5   6
ATOM      6  C   UNL     1       2.708   6.772  19.496  0.00  0.00    +0.000 A 
ATOM      7  C   UNL     1       2.761   7.243  18.173  0.00  0.00    +0.000 A 
ATOM      8  C   UNL     1       2.111   8.424  17.798  0.00  0.00    +0.000 A 
ATOM      9  C   UNL     1       1.380   9.131  18.740  0.00  0.00    +0.000 A 
ATOM     10  F   UNL     1       0.772  10.271  18.389  0.00  0.00    +0.000 F 
ATOM     11  C   UNL     1       1.260   8.667  20.039  0.00  0.00    +0.000 A 
ATOM     12  C   UNL     1       1.897   7.480  20.405  0.00  0.00    +0.000 A 
ENDBRANCH   5   6
BRANCH   1  14
ATOM     13  O   UNL     1       2.124   3.517  21.921  0.00  0.00    +0.000 OA
ATOM     14  C   UNL     1       1.779   3.727  20.769  0.00  0.00    +0.000 C 
BRANCH  14  15
ATOM     15  O   UNL     1       0.497   3.566  20.362  0.00  0.00    +0.000 OA
ATOM     16  H   UNL     1       0.300   3.910  19.471  0.00  0.00    +0.000 HD
ENDBRANCH  14  15
ENDBRANCH   1  14
BRANCH   3  17
ATOM     17  C   UNL     1       4.500   3.758  17.246  0.00  0.00    +0.000 C 
BRANCH  17  18
ATOM     18  C   UNL     1       5.365   4.683  16.389  0.00  0.00    +0.000 C 
ATOM     19  C   UNL     1       6.894   4.439  16.421  0.00  0.00    +0.000 C 
ATOM     20  C   UNL     1       6.916   4.766  14.916  0.00  0.00    +0.000 C 
ATOM     21  C   UNL     1       5.421   4.389  14.869  0.00  0.00    +0.000 C 
ENDBRANCH  17  18
ENDBRANCH   3  17
TORSDOF 5
ENDMDL
MODEL 4
REMARK VINA RESULT:      -7.7      0.145      1.072
REMARK  Name = 
REMARK  5 active torsions:
REMARK  status: ('A' for Active; 'I' for Inactive)
REMARK    1  A    between atoms: C_2  and  O_3
REMARK    2  A    between atoms: C_2  and  C_4
REMARK    3  A    between atoms: N_6  and  C_7
REMARK    4  A    between atoms: C_7  and  C_8
REMARK    5  A    between atoms: C_13  and  C_14
REMARK                            x       y       z     vdW  Elec       q    Type
REMARK                         _______ _______ _______ _____ _____    ______ ____
ROOT
ATOM      1  C   UNL     1       6.230   4.780  17.192  0.00  0.00    +0.000 C 
ATOM      2  C   UNL     1       6.927   5.319  15.953  0.00  0.00    +0.000 C 
ATOM      3  N   UNL     1       5.833   5.784  15.091  0.00  0.00    +0.000 NA
ATOM      4  C   UNL     1       4.875   6.395  16.038  0.00  0.00    +0.000 C 
ATOM      5  C   UNL     1       5.149   5.844  17.462  0.00  0.00    +0.000 C 
ENDROOT
BRANCH   5   6
ATOM      6  C   UNL     1       3.903   5.358  18.199  0.00  0.00    +0.000 A 
ATOM      7  C   UNL     1       3.149   4.270  17.725  0.00  0.00    +0.000 A 
ATOM      8  C   UNL     1       1.995   3.846  18.391  0.00  0.00    +0.000 A 
ATOM      9  C   UNL     1       1.597   4.491  19.552  0.00  0.00    +0.000 A 
ATOM     10  F   UNL     1       0.482   4.098  20.180  0.00  0.00    +0.000 F 
ATOM     11  C   UNL     1       2.347   5.530  20.077  0.00  0.00    +0.000 A 
ATOM     12  C   UNL     1       3.507   5.940  19.419  0.00  0.00    +0.000 A 
ENDBRANCH   5   6
BRANCH   1  14
ATOM     13  O   UNL     1       7.101   4.957  19.447  0.00  0.00    +0.000 OA
ATOM     14  C   UNL     1       7.247   4.605  18.288  0.00  0.00    +0.000 C 
BRANCH  14  15
ATOM     15  O   UNL     1       8.383   4.002  17.858  0.00  0.00    +0.000 OA
ATOM     16  H   UNL     1       9.010   4.587  17.391  0.00  0.00    +0.000 HD
ENDBRANCH  14  15
ENDBRANCH   1  14
BRANCH   3  17
ATOM     17  C   UNL     1       5.242   4.671  14.313  0.00  0.00    +0.000 C 
BRANCH  17  18
ATOM     18  C   UNL     1       6.295   3.899  13.518  0.00  0.00    +0.000 C 
ATOM     19  C   UNL     1       5.805   3.149  12.255  0.00  0.00    +0.000 C 
ATOM     20  C   UNL     1       7.123   3.562  11.573  0.00  0.00    +0.000 C 
ATOM     21  C   UNL     1       7.217   4.723  12.584  0.00  0.00    +0.000 C 
ENDBRANCH  17  18
ENDBRANCH   3  17
TORSDOF 5
ENDMDL
MODEL 5
REMARK VINA RESULT:      -7.7      3.823      4.842
REMARK  Name = 
REMARK  5 active torsions:
REMARK  status: ('A' for Active; 'I' for Inactive)
REMARK    1  A    between atoms: C_2  and  O_3
REMARK    2  A    between atoms: C_2  and  C_4
REMARK    3  A    between atoms: N_6  and  C_7
REMARK    4  A    between atoms: C_7  and  C_8
REMARK    5  A    between atoms: C_13  and  C_14
REMARK                            x       y       z     vdW  Elec       q    Type
REMARK                         _______ _______ _______ _____ _____    ______ ____
ROOT
ATOM      1  C   UNL     1       3.314   4.138  17.943  0.00  0.00    +0.000 C 
ATOM      2  C   UNL     1       4.435   3.155  18.242  0.00  0.00    +0.000 C 
ATOM      3  N   UNL     1       5.485   3.975  18.860  0.00  0.00    +0.000 NA
ATOM      4  C   UNL     1       4.735   4.918  19.718  0.00  0.00    +0.000 C 
ATOM      5  C   UNL     1       3.267   4.996  19.221  0.00  0.00    +0.000 C 
ENDROOT
BRANCH   5   6
ATOM      6  C   UNL     1       2.735   6.417  19.053  0.00  0.00    +0.000 A 
ATOM      7  C   UNL     1       2.050   7.072  20.092  0.00  0.00    +0.000 A 
ATOM      8  C   UNL     1       1.544   8.365  19.922  0.00  0.00    +0.000 A 
ATOM      9  C   UNL     1       1.741   9.026  18.720  0.00  0.00    +0.000 A 
ATOM     10  F   UNL     1       1.242  10.255  18.549  0.00  0.00    +0.000 F 
ATOM     11  C   UNL     1       2.460   8.433  17.695  0.00  0.00    +0.000 A 
ATOM     12  C   UNL     1       2.977   7.149  17.873  0.00  0.00    +0.000 A 
ENDBRANCH   5   6
BRANCH   1  14
ATOM     13  O   UNL     1       0.982   3.863  17.344  0.00  0.00    +0.000 OA
ATOM     14  C   UNL     1       2.057   3.368  17.639  0.00  0.00    +0.000 C 
BRANCH  14  15
ATOM     15  O   UNL     1       2.230   2.026  17.726  0.00  0.00    +0.000 OA
ATOM     16  H   UNL     1       2.667   1.615  16.956  0.00  0.00    +0.000 HD
ENDBRANCH  14  15
ENDBRANCH   1  14
BRANCH   3  17
ATOM     17  C   UNL     1       6.313   4.659  17.842  0.00  0.00    +0.000 C 
BRANCH  17  18
ATOM     18  C   UNL     1       6.533   6.136  18.171  0.00  0.00    +0.000 C 
ATOM     19  C   UNL     1       7.966   6.555  18.580  0.00  0.00    +0.000 C 
ATOM     20  C   UNL     1       7.748   7.855  17.784  0.00  0.00    +0.000 C 
ATOM     21  C   UNL     1       6.665   7.112  16.975  0.00  0.00    +0.000 C 
ENDBRANCH  17  18
ENDBRANCH   3  17
TORSDOF 5
ENDMDL
MODEL 6
REMARK VINA RESULT:      -7.6      1.138      1.398
REMARK  Name = 
REMARK  5 active torsions:
REMARK  status: ('A' for Active; 'I' for Inactive)
REMARK    1  A    between atoms: C_2  and  O_3
REMARK    2  A    between atoms: C_2  and  C_4
REMARK    3  A    between atoms: N_6  and  C_7
REMARK    4  A    between atoms: C_7  and  C_8
REMARK    5  A    between atoms: C_13  and  C_14
REMARK                            x       y       z     vdW  Elec       q    Type
REMARK                         _______ _______ _______ _____ _____    ______ ____
ROOT
ATOM      1  C   UNL     1       6.468   5.194  17.553  0.00  0.00    +0.000 C 
ATOM      2  C   UNL     1       7.386   5.805  16.506  0.00  0.00    +0.000 C 
ATOM      3  N   UNL     1       6.618   5.727  15.257  0.00  0.00    +0.000 NA
ATOM      4  C   UNL     1       5.236   6.046  15.673  0.00  0.00    +0.000 C 
ATOM      5  C   UNL     1       5.099   5.806  17.201  0.00  0.00    +0.000 C 
ENDROOT
BRANCH   5   6
ATOM      6  C   UNL     1       3.876   4.983  17.600  0.00  0.00    +0.000 A 
ATOM      7  C   UNL     1       2.936   5.469  18.526  0.00  0.00    +0.000 A 
ATOM      8  C   UNL     1       1.832   4.701  18.907  0.00  0.00    +0.000 A 
ATOM      9  C   UNL     1       1.643   3.447  18.346  0.00  0.00    +0.000 A 
ATOM     10  F   UNL     1       0.597   2.702  18.722  0.00  0.00    +0.000 F 
ATOM     11  C   UNL     1       2.519   2.960  17.389  0.00  0.00    +0.000 A 
ATOM     12  C   UNL     1       3.611   3.737  17.000  0.00  0.00    +0.000 A 
ENDBRANCH   5   6
BRANCH   1  14
ATOM     13  O   UNL     1       6.579   5.071  19.971  0.00  0.00    +0.000 OA
ATOM     14  C   UNL     1       6.992   5.538  18.922  0.00  0.00    +0.000 C 
BRANCH  14  15
ATOM     15  O   UNL     1       7.997   6.446  18.886  0.00  0.00    +0.000 OA
ATOM     16  H   UNL     1       8.891   6.078  19.024  0.00  0.00    +0.000 HD
ENDBRANCH  14  15
ENDBRANCH   1  14
BRANCH   3  17
ATOM     17  C   UNL     1       6.735   4.392  14.627  0.00  0.00    +0.000 C 
BRANCH  17  18
ATOM     18  C   UNL     1       6.102   4.350  13.236  0.00  0.00    +0.000 C 
ATOM     19  C   UNL     1       6.806   3.472  12.174  0.00  0.00    +0.000 C 
ATOM     20  C   UNL     1       5.409   3.074  11.664  0.00  0.00    +0.000 C 
ATOM     21  C   UNL     1       4.857   3.446  13.056  0.00  0.00    +0.000 C 
ENDBRANCH  17  18
ENDBRANCH   3  17
TORSDOF 5
ENDMDL
MODEL 7
REMARK VINA RESULT:      -7.6      3.256      4.422
REMARK  Name = 
REMARK  5 active torsions:
REMARK  status: ('A' for Active; 'I' for Inactive)
REMARK    1  A    between atoms: C_2  and  O_3
REMARK    2  A    between atoms: C_2  and  C_4
REMARK    3  A    between atoms: N_6  and  C_7
REMARK    4  A    between atoms: C_7  and  C_8
REMARK    5  A    between atoms: C_13  and  C_14
REMARK                            x       y       z     vdW  Elec       q    Type
REMARK                         _______ _______ _______ _____ _____    ______ ____
ROOT
ATOM      1  C   UNL     1       2.624   4.216  19.443  0.00  0.00    +0.000 C 
ATOM      2  C   UNL     1       3.742   3.204  19.250  0.00  0.00    +0.000 C 
ATOM      3  N   UNL     1       4.748   3.918  18.452  0.00  0.00    +0.000 NA
ATOM      4  C   UNL     1       4.732   5.286  19.012  0.00  0.00    +0.000 C 
ATOM      5  C   UNL     1       3.392   5.512  19.761  0.00  0.00    +0.000 C 
ENDROOT
BRANCH   5   6
ATOM      6  C   UNL     1       2.683   6.815  19.402  0.00  0.00    +0.000 A 
ATOM      7  C   UNL     1       1.911   7.514  20.346  0.00  0.00    +0.000 A 
ATOM      8  C   UNL     1       1.243   8.694  20.004  0.00  0.00    +0.000 A 
ATOM      9  C   UNL     1       1.361   9.200  18.719  0.00  0.00    +0.000 A 
ATOM     10  F   UNL     1       0.708  10.319  18.383  0.00  0.00    +0.000 F 
ATOM     11  C   UNL     1       2.159   8.568  17.779  0.00  0.00    +0.000 A 
ATOM     12  C   UNL     1       2.837   7.399  18.129  0.00  0.00    +0.000 A 
ENDBRANCH   5   6
BRANCH   1  14
ATOM     13  O   UNL     1       1.978   3.703  21.722  0.00  0.00    +0.000 OA
ATOM     14  C   UNL     1       1.707   3.728  20.532  0.00  0.00    +0.000 C 
BRANCH  14  15
ATOM     15  O   UNL     1       0.510   3.302  20.059  0.00  0.00    +0.000 OA
ATOM     16  H   UNL     1       0.041   2.668  20.634  0.00  0.00    +0.000 HD
ENDBRANCH  14  15
ENDBRANCH   1  14
BRANCH   3  17
ATOM     17  C   UNL     1       4.423   3.882  17.009  0.00  0.00    +0.000 C 
BRANCH  17  18
ATOM     18  C   UNL     1       5.370   4.752  16.181  0.00  0.00    +0.000 C 
ATOM     19  C   UNL     1       6.877   4.404  16.247  0.00  0.00    +0.000 C 
ATOM     20  C   UNL     1       6.958   4.740  14.746  0.00  0.00    +0.000 C 
ATOM     21  C   UNL     1       5.442   4.466  14.660  0.00  0.00    +0.000 C 
ENDBRANCH  17  18
ENDBRANCH   3  17
TORSDOF 5
ENDMDL
MODEL 8
REMARK VINA RESULT:      -7.6      0.855      1.533
REMARK  Name = 
REMARK  5 active torsions:
REMARK  status: ('A' for Active; 'I' for Inactive)
REMARK    1  A    between atoms: C_2  and  O_3
REMARK    2  A    between atoms: C_2  and  C_4
REMARK    3  A    between atoms: N_6  and  C_7
REMARK    4  A    between atoms: C_7  and  C_8
REMARK    5  A    between atoms: C_13  and  C_14
REMARK                            x       y       z     vdW  Elec       q    Type
REMARK                         _______ _______ _______ _____ _____    ______ ____
ROOT
ATOM      1  C   UNL     1       6.449   5.398  17.881  0.00  0.00    +0.000 C 
ATOM      2  C   UNL     1       7.241   5.897  16.683  0.00  0.00    +0.000 C 
ATOM      3  N   UNL     1       6.271   5.899  15.580  0.00  0.00    +0.000 NA
ATOM      4  C   UNL     1       5.021   6.373  16.212  0.00  0.00    +0.000 C 
ATOM      5  C   UNL     1       5.116   6.157  17.746  0.00  0.00    +0.000 C 
ENDROOT
BRANCH   5   6
ATOM      6  C   UNL     1       3.896   5.478  18.362  0.00  0.00    +0.000 A 
ATOM      7  C   UNL     1       3.093   4.596  17.617  0.00  0.00    +0.000 A 
ATOM      8  C   UNL     1       1.962   3.996  18.180  0.00  0.00    +0.000 A 
ATOM      9  C   UNL     1       1.636   4.253  19.502  0.00  0.00    +0.000 A 
ATOM     10  F   UNL     1       0.544   3.695  20.037  0.00  0.00    +0.000 F 
ATOM     11  C   UNL     1       2.436   5.072  20.282  0.00  0.00    +0.000 A 
ATOM     12  C   UNL     1       3.573   5.657  19.722  0.00  0.00    +0.000 A 
ENDBRANCH   5   6
BRANCH   1  14
ATOM     13  O   UNL     1       7.064   5.135  20.211  0.00  0.00    +0.000 OA
ATOM     14  C   UNL     1       7.230   5.688  19.136  0.00  0.00    +0.000 C 
BRANCH  14  15
ATOM     15  O   UNL     1       8.165   6.653  18.961  0.00  0.00    +0.000 OA
ATOM     16  H   UNL     1       8.735   6.538  18.178  0.00  0.00    +0.000 HD
ENDBRANCH  14  15
ENDBRANCH   1  14
BRANCH   3  17
ATOM     17  C   UNL     1       6.135   4.556  14.972  0.00  0.00    +0.000 C 
BRANCH  17  18
ATOM     18  C   UNL     1       6.151   4.609  13.444  0.00  0.00    +0.000 C 
ATOM     19  C   UNL     1       7.522   4.851  12.767  0.00  0.00    +0.000 C 
ATOM     20  C   UNL     1       7.090   3.855  11.674  0.00  0.00    +0.000 C 
ATOM     21  C   UNL     1       6.098   3.255  12.691  0.00  0.00    +0.000 C 
ENDBRANCH  17  18
ENDBRANCH   3  17
TORSDOF 5
ENDMDL
MODEL 9
REMARK VINA RESULT:      -7.6      1.479      1.882
REMARK  Name = 
REMARK  5 active torsions:
REMARK  status: ('A' for Active; 'I' for Inactive)
REMARK    1  A    between atoms: C_2  and  O_3
REMARK    2  A    between atoms: C_2  and  C_4
REMARK    3  A    between atoms: N_6  and  C_7
REMARK    4  A    between atoms: C_7  and  C_8
REMARK    5  A    between atoms: C_13  and  C_14
REMARK                            x       y       z     vdW  Elec       q    Type
REMARK                         _______ _______ _______ _____ _____    ______ ____
ROOT
ATOM      1  C   UNL     1       6.559   5.370  18.215  0.00  0.00    +0.000 C 
ATOM      2  C   UNL     1       6.912   6.083  16.919  0.00  0.00    +0.000 C 
ATOM      3  N   UNL     1       5.726   5.906  16.071  0.00  0.00    +0.000 NA
ATOM      4  C   UNL     1       4.595   6.056  17.013  0.00  0.00    +0.000 C 
ATOM      5  C   UNL     1       5.103   5.808  18.458  0.00  0.00    +0.000 C 
ENDROOT
BRANCH   5   6
ATOM      6  C   UNL     1       4.242   4.845  19.270  0.00  0.00    +0.000 A 
ATOM      7  C   UNL     1       4.571   3.482  19.380  0.00  0.00    +0.000 A 
ATOM      8  C   UNL     1       3.764   2.599  20.105  0.00  0.00    +0.000 A 
ATOM      9  C   UNL     1       2.633   3.077  20.749  0.00  0.00    +0.000 A 
ATOM     10  F   UNL     1       1.849   2.231  21.428  0.00  0.00    +0.000 F 
ATOM     11  C   UNL     1       2.310   4.423  20.709  0.00  0.00    +0.000 A 
ATOM     12  C   UNL     1       3.126   5.304  19.998  0.00  0.00    +0.000 A 
ENDBRANCH   5   6
BRANCH   1  14
ATOM     13  O   UNL     1       7.660   5.247  20.371  0.00  0.00    +0.000 OA
ATOM     14  C   UNL     1       7.541   5.781  19.281  0.00  0.00    +0.000 C 
BRANCH  14  15
ATOM     15  O   UNL     1       8.305   6.837  18.910  0.00  0.00    +0.000 OA
ATOM     16  H   UNL     1       8.460   7.500  19.610  0.00  0.00    +0.000 HD
ENDBRANCH  14  15
ENDBRANCH   1  14
BRANCH   3  17
ATOM     17  C   UNL     1       5.735   4.592  15.389  0.00  0.00    +0.000 C 
BRANCH  17  18
ATOM     18  C   UNL     1       5.929   4.727  13.878  0.00  0.00    +0.000 C 
ATOM     19  C   UNL     1       7.386   4.846  13.368  0.00  0.00    +0.000 C 
ATOM     20  C   UNL     1       6.975   3.968  12.171  0.00  0.00    +0.000 C 
ATOM     21  C   UNL     1       5.815   3.432  13.035  0.00  0.00    +0.000 C 
ENDBRANCH  17  18
ENDBRANCH   3  17
TORSDOF 5
ENDMDL
