MODEL 1
REMARK VINA RESULT:      -9.2      0.000      0.000
REMARK  Name = 
REMARK  4 active torsions:
REMARK  status: ('A' for Active; 'I' for Inactive)
REMARK    1  A    between atoms: C_1  and  C_2
REMARK    2  A    between atoms: C_4  and  N_5
REMARK    3  A    between atoms: N_5  and  C_6
REMARK    4  A    between atoms: C_18  and  C_19
REMARK                            x       y       z     vdW  Elec       q    Type
REMARK                         _______ _______ _______ _____ _____    ______ ____
ROOT
ATOM      1  C   UNL     1       0.617   2.182  18.676  0.00  0.00    +0.000 C 
ATOM      2  C   UNL     1       1.822   3.084  18.568  0.00  0.00    +0.000 A 
ATOM      3  C   UNL     1       1.807   4.335  19.381  0.00  0.00    +0.000 A 
ATOM      4  C   UNL     1       2.893   5.127  19.311  0.00  0.00    +0.000 A 
ATOM      5  N   UNL     1       3.952   4.718  18.472  0.00  0.00    +0.000 N 
ATOM      6  N   UNL     1       5.133   5.350  18.217  0.00  0.00    +0.000 NA
ATOM      7  C   UNL     1       5.697   4.552  17.286  0.00  0.00    +0.000 A 
ATOM      8  N   UNL     1       4.944   3.436  16.972  0.00  0.00    +0.000 NA
ATOM      9  C   UNL     1       3.868   3.548  17.712  0.00  0.00    +0.000 A 
ATOM     10  N   UNL     1       2.789   2.718  17.780  0.00  0.00    +0.000 NA
ENDROOT
BRANCH   7  11
ATOM     11  C   UNL     1       7.027   4.822  16.614  0.00  0.00    +0.000 C 
ATOM     12  F   UNL     1       8.079   4.251  17.264  0.00  0.00    +0.000 F 
ATOM     13  F   UNL     1       7.062   4.349  15.338  0.00  0.00    +0.000 F 
ATOM     14  F   UNL     1       7.304   6.155  16.542  0.00  0.00    +0.000 F 
ENDBRANCH   7  11
BRANCH   4  15
ATOM     15  N   UNL     1       3.023   6.318  20.025  0.00  0.00    +0.000 N 
ATOM     16  H   UNL     1       4.008   6.578  20.145  0.00  0.00    +0.000 HD
BRANCH  15  17
ATOM     17  C   UNL     1       2.264   7.478  19.711  0.00  0.00    +0.000 A 
ATOM     18  C   UNL     1       2.263   7.948  18.397  0.00  0.00    +0.000 A 
ATOM     19  C   UNL     1       1.535   9.090  18.047  0.00  0.00    +0.000 A 
ATOM     20  C   UNL     1       0.764   9.771  19.003  0.00  0.00    +0.000 A 
ATOM     21  C   UNL     1       0.043  10.932  18.677  0.00  0.00    +0.000 A 
ATOM     22  C   UNL     1      -0.725  11.590  19.641  0.00  0.00    +0.000 A 
ATOM     23  C   UNL     1      -0.789  11.091  20.938  0.00  0.00    +0.000 A 
ATOM     24  C   UNL     1      -0.077   9.939  21.277  0.00  0.00    +0.000 A 
ATOM     25  C   UNL     1       0.712   9.274  20.322  0.00  0.00    +0.000 A 
ATOM     26  C   UNL     1       1.454   8.128  20.655  0.00  0.00    +0.000 A 
ENDBRANCH  15  17
ENDBRANCH   4  15
TORSDOF 3
ENDMDL
MODEL 2
REMARK VINA RESULT:      -9.1      1.507      1.979
REMARK  Name = 
REMARK  4 active torsions:
REMARK  status: ('A' for Active; 'I' for Inactive)
REMARK    1  A    between atoms: C_1  and  C_2
REMARK    2  A    between atoms: C_4  and  N_5
REMARK    3  A    between atoms: N_5  and  C_6
REMARK    4  A    between atoms: C_18  and  C_19
REMARK                            x       y       z     vdW  Elec       q    Type
REMARK                         _______ _______ _______ _____ _____    ______ ____
ROOT
ATOM      1  C   UNL     1       1.111   2.658  18.600  0.00  0.00    +0.000 C 
ATOM      2  C   UNL     1       2.244   3.654  18.560  0.00  0.00    +0.000 A 
ATOM      3  C   UNL     1       1.905   5.050  18.153  0.00  0.00    +0.000 A 
ATOM      4  C   UNL     1       2.907   5.948  18.146  0.00  0.00    +0.000 A 
ATOM      5  N   UNL     1       4.193   5.502  18.515  0.00  0.00    +0.000 N 
ATOM      6  N   UNL     1       5.360   6.205  18.566  0.00  0.00    +0.000 NA
ATOM      7  C   UNL     1       6.261   5.254  18.891  0.00  0.00    +0.000 A 
ATOM      8  N   UNL     1       5.712   4.000  19.079  0.00  0.00    +0.000 NA
ATOM      9  C   UNL     1       4.432   4.164  18.847  0.00  0.00    +0.000 A 
ATOM     10  N   UNL     1       3.433   3.239  18.882  0.00  0.00    +0.000 NA
ENDROOT
BRANCH   7  11
ATOM     11  C   UNL     1       7.751   5.494  19.035  0.00  0.00    +0.000 C 
ATOM     12  F   UNL     1       8.505   4.571  18.377  0.00  0.00    +0.000 F 
ATOM     13  F   UNL     1       8.123   6.710  18.550  0.00  0.00    +0.000 F 
ATOM     14  F   UNL     1       8.152   5.455  20.337  0.00  0.00    +0.000 F 
ENDBRANCH   7  11
BRANCH   4  15
ATOM     15  N   UNL     1       2.734   7.288  17.800  0.00  0.00    +0.000 N 
ATOM     16  H   UNL     1       2.467   7.390  16.814  0.00  0.00    +0.000 HD
BRANCH  15  17
ATOM     17  C   UNL     1       1.965   8.183  18.591  0.00  0.00    +0.000 A 
ATOM     18  C   UNL     1       1.292   9.231  17.962  0.00  0.00    +0.000 A 
ATOM     19  C   UNL     1       0.529  10.139  18.705  0.00  0.00    +0.000 A 
ATOM     20  C   UNL     1       0.399   9.998  20.096  0.00  0.00    +0.000 A 
ATOM     21  C   UNL     1      -0.345  10.911  20.863  0.00  0.00    +0.000 A 
ATOM     22  C   UNL     1      -0.470  10.747  22.244  0.00  0.00    +0.000 A 
ATOM     23  C   UNL     1       0.137   9.666  22.874  0.00  0.00    +0.000 A 
ATOM     24  C   UNL     1       0.881   8.752  22.126  0.00  0.00    +0.000 A 
ATOM     25  C   UNL     1       1.028   8.911  20.736  0.00  0.00    +0.000 A 
ATOM     26  C   UNL     1       1.793   8.012  19.974  0.00  0.00    +0.000 A 
ENDBRANCH  15  17
ENDBRANCH   4  15
TORSDOF 3
ENDMDL
MODEL 3
REMARK VINA RESULT:      -8.9      3.027      4.180
REMARK  Name = 
REMARK  4 active torsions:
REMARK  status: ('A' for Active; 'I' for Inactive)
REMARK    1  A    between atoms: C_1  and  C_2
REMARK    2  A    between atoms: C_4  and  N_5
REMARK    3  A    between atoms: N_5  and  C_6
REMARK    4  A    between atoms: C_18  and  C_19
REMARK                            x       y       z     vdW  Elec       q    Type
REMARK                         _______ _______ _______ _____ _____    ______ ____
ROOT
ATOM      1  C   UNL     1       7.734   5.681  18.914  0.00  0.00    +0.000 C 
ATOM      2  C   UNL     1       6.254   5.412  18.796  0.00  0.00    +0.000 A 
ATOM      3  C   UNL     1       5.417   6.485  18.183  0.00  0.00    +0.000 A 
ATOM      4  C   UNL     1       4.101   6.237  18.048  0.00  0.00    +0.000 A 
ATOM      5  N   UNL     1       3.617   4.992  18.502  0.00  0.00    +0.000 N 
ATOM      6  N   UNL     1       2.339   4.519  18.496  0.00  0.00    +0.000 NA
ATOM      7  C   UNL     1       2.463   3.332  19.126  0.00  0.00    +0.000 A 
ATOM      8  N   UNL     1       3.758   3.024  19.494  0.00  0.00    +0.000 NA
ATOM      9  C   UNL     1       4.465   4.057  19.102  0.00  0.00    +0.000 A 
ATOM     10  N   UNL     1       5.804   4.273  19.232  0.00  0.00    +0.000 NA
ENDROOT
BRANCH   7  11
ATOM     11  C   UNL     1       1.311   2.396  19.432  0.00  0.00    +0.000 C 
ATOM     12  F   UNL     1       0.308   2.468  18.513  0.00  0.00    +0.000 F 
ATOM     13  F   UNL     1       1.705   1.093  19.468  0.00  0.00    +0.000 F 
ATOM     14  F   UNL     1       0.739   2.664  20.639  0.00  0.00    +0.000 F 
ENDBRANCH   7  11
BRANCH   4  15
ATOM     15  N   UNL     1       3.204   7.142  17.481  0.00  0.00    +0.000 N 
ATOM     16  H   UNL     1       2.624   6.694  16.763  0.00  0.00    +0.000 HD
BRANCH  15  17
ATOM     17  C   UNL     1       2.396   8.005  18.270  0.00  0.00    +0.000 A 
ATOM     18  C   UNL     1       1.757   9.081  17.653  0.00  0.00    +0.000 A 
ATOM     19  C   UNL     1       0.958   9.958  18.395  0.00  0.00    +0.000 A 
ATOM     20  C   UNL     1       0.758   9.758  19.770  0.00  0.00    +0.000 A 
ATOM     21  C   UNL     1      -0.023  10.639  20.537  0.00  0.00    +0.000 A 
ATOM     22  C   UNL     1      -0.218  10.417  21.902  0.00  0.00    +0.000 A 
ATOM     23  C   UNL     1       0.356   9.309  22.515  0.00  0.00    +0.000 A 
ATOM     24  C   UNL     1       1.135   8.425  21.767  0.00  0.00    +0.000 A 
ATOM     25  C   UNL     1       1.353   8.643  20.395  0.00  0.00    +0.000 A 
ATOM     26  C   UNL     1       2.155   7.775  19.634  0.00  0.00    +0.000 A 
ENDBRANCH  15  17
ENDBRANCH   4  15
TORSDOF 3
ENDMDL
MODEL 4
REMARK VINA RESULT:      -8.9      2.323      3.901
REMARK  Name = 
REMARK  4 active torsions:
REMARK  status: ('A' for Active; 'I' for Inactive)
REMARK    1  A    between atoms: C_1  and  C_2
REMARK    2  A    between atoms: C_4  and  N_5
REMARK    3  A    between atoms: N_5  and  C_6
REMARK    4  A    between atoms: C_18  and  C_19
REMARK                            x       y       z     vdW  Elec       q    Type
REMARK                         _______ _______ _______ _____ _____    ______ ____
ROOT
ATOM      1  C   UNL     1       8.178   5.535  19.462  0.00  0.00    +0.000 C 
ATOM      2  C   UNL     1       7.271   5.236  18.293  0.00  0.00    +0.000 A 
ATOM      3  C   UNL     1       5.801   5.335  18.533  0.00  0.00    +0.000 A 
ATOM      4  C   UNL     1       4.990   5.098  17.486  0.00  0.00    +0.000 A 
ATOM      5  N   UNL     1       5.589   4.770  16.251  0.00  0.00    +0.000 N 
ATOM      6  N   UNL     1       4.990   4.470  15.064  0.00  0.00    +0.000 NA
ATOM      7  C   UNL     1       6.041   4.156  14.277  0.00  0.00    +0.000 A 
ATOM      8  N   UNL     1       7.267   4.278  14.902  0.00  0.00    +0.000 NA
ATOM      9  C   UNL     1       6.977   4.661  16.122  0.00  0.00    +0.000 A 
ATOM     10  N   UNL     1       7.822   4.915  17.161  0.00  0.00    +0.000 NA
ENDROOT
BRANCH   7  11
ATOM     11  C   UNL     1       5.930   3.697  12.837  0.00  0.00    +0.000 C 
ATOM     12  F   UNL     1       6.747   4.386  11.994  0.00  0.00    +0.000 F 
ATOM     13  F   UNL     1       6.252   2.382  12.693  0.00  0.00    +0.000 F 
ATOM     14  F   UNL     1       4.667   3.845  12.348  0.00  0.00    +0.000 F 
ENDBRANCH   7  11
BRANCH   4  15
ATOM     15  N   UNL     1       3.599   5.167  17.561  0.00  0.00    +0.000 N 
ATOM     16  H   UNL     1       3.190   4.254  17.791  0.00  0.00    +0.000 HD
BRANCH  15  17
ATOM     17  C   UNL     1       2.928   6.182  18.294  0.00  0.00    +0.000 A 
ATOM     18  C   UNL     1       2.522   5.912  19.602  0.00  0.00    +0.000 A 
ATOM     19  C   UNL     1       1.851   6.882  20.356  0.00  0.00    +0.000 A 
ATOM     20  C   UNL     1       1.599   8.157  19.825  0.00  0.00    +0.000 A 
ATOM     21  C   UNL     1       0.910   9.138  20.558  0.00  0.00    +0.000 A 
ATOM     22  C   UNL     1       0.678  10.404  20.015  0.00  0.00    +0.000 A 
ATOM     23  C   UNL     1       1.139  10.708  18.739  0.00  0.00    +0.000 A 
ATOM     24  C   UNL     1       1.825   9.744  17.998  0.00  0.00    +0.000 A 
ATOM     25  C   UNL     1       2.054   8.461  18.525  0.00  0.00    +0.000 A 
ATOM     26  C   UNL     1       2.722   7.472  17.781  0.00  0.00    +0.000 A 
ENDBRANCH  15  17
ENDBRANCH   4  15
TORSDOF 3
ENDMDL
MODEL 5
REMARK VINA RESULT:      -8.7      4.666      6.149
REMARK  Name = 
REMARK  4 active torsions:
REMARK  status: ('A' for Active; 'I' for Inactive)
REMARK    1  A    between atoms: C_1  and  C_2
REMARK    2  A    between atoms: C_4  and  N_5
REMARK    3  A    between atoms: N_5  and  C_6
REMARK    4  A    between atoms: C_18  and  C_19
REMARK                            x       y       z     vdW  Elec       q    Type
REMARK                         _______ _______ _______ _____ _____    ______ ____
ROOT
ATOM      1  C   UNL     1       7.783   7.022  18.184  0.00  0.00    +0.000 C 
ATOM      2  C   UNL     1       7.312   6.076  17.106  0.00  0.00    +0.000 A 
ATOM      3  C   UNL     1       6.443   4.940  17.534  0.00  0.00    +0.000 A 
ATOM      4  C   UNL     1       5.996   4.112  16.571  0.00  0.00    +0.000 A 
ATOM      5  N   UNL     1       6.389   4.376  15.242  0.00  0.00    +0.000 N 
ATOM      6  N   UNL     1       6.090   3.681  14.109  0.00  0.00    +0.000 NA
ATOM      7  C   UNL     1       6.803   4.334  13.167  0.00  0.00    +0.000 A 
ATOM      8  N   UNL     1       7.504   5.423  13.649  0.00  0.00    +0.000 NA
ATOM      9  C   UNL     1       7.240   5.442  14.933  0.00  0.00    +0.000 A 
ATOM     10  N   UNL     1       7.689   6.307  15.884  0.00  0.00    +0.000 NA
ENDROOT
BRANCH   7  11
ATOM     11  C   UNL     1       6.865   3.938  11.706  0.00  0.00    +0.000 C 
ATOM     12  F   UNL     1       5.640   3.667  11.175  0.00  0.00    +0.000 F 
ATOM     13  F   UNL     1       7.410   4.916  10.932  0.00  0.00    +0.000 F 
ATOM     14  F   UNL     1       7.619   2.820  11.510  0.00  0.00    +0.000 F 
ENDBRANCH   7  11
BRANCH   4  15
ATOM     15  N   UNL     1       5.168   3.019  16.823  0.00  0.00    +0.000 N 
ATOM     16  H   UNL     1       5.713   2.177  17.040  0.00  0.00    +0.000 HD
BRANCH  15  17
ATOM     17  C   UNL     1       4.053   3.098  17.701  0.00  0.00    +0.000 A 
ATOM     18  C   UNL     1       2.817   3.494  17.188  0.00  0.00    +0.000 A 
ATOM     19  C   UNL     1       1.697   3.592  18.020  0.00  0.00    +0.000 A 
ATOM     20  C   UNL     1       1.782   3.263  19.382  0.00  0.00    +0.000 A 
ATOM     21  C   UNL     1       0.674   3.374  20.238  0.00  0.00    +0.000 A 
ATOM     22  C   UNL     1       0.778   3.033  21.589  0.00  0.00    +0.000 A 
ATOM     23  C   UNL     1       1.986   2.569  22.097  0.00  0.00    +0.000 A 
ATOM     24  C   UNL     1       3.097   2.454  21.260  0.00  0.00    +0.000 A 
ATOM     25  C   UNL     1       3.012   2.807  19.901  0.00  0.00    +0.000 A 
ATOM     26  C   UNL     1       4.128   2.720  19.051  0.00  0.00    +0.000 A 
ENDBRANCH  15  17
ENDBRANCH   4  15
TORSDOF 3
ENDMDL
MODEL 6
REMARK VINA RESULT:      -8.7      1.359      1.709
REMARK  Name = 
REMARK  4 active torsions:
REMARK  status: ('A' for Active; 'I' for Inactive)
REMARK    1  A    between atoms: C_1  and  C_2
REMARK    2  A    between atoms: C_4  and  N_5
REMARK    3  A    between atoms: N_5  and  C_6
REMARK    4  A    between atoms: C_18  and  C_19
REMARK                            x       y       z     vdW  Elec       q    Type
REMARK                         _______ _______ _______ _____ _____    ______ ____
ROOT
ATOM      1  C   UNL     1       1.387   3.144  21.174  0.00  0.00    +0.000 C 
ATOM      2  C   UNL     1       2.364   3.918  20.323  0.00  0.00    +0.000 A 
ATOM      3  C   UNL     1       1.892   5.219  19.761  0.00  0.00    +0.000 A 
ATOM      4  C   UNL     1       2.770   5.926  19.027  0.00  0.00    +0.000 A 
ATOM      5  N   UNL     1       4.058   5.383  18.840  0.00  0.00    +0.000 N 
ATOM      6  N   UNL     1       5.104   5.891  18.128  0.00  0.00    +0.000 NA
ATOM      7  C   UNL     1       6.029   4.913  18.228  0.00  0.00    +0.000 A 
ATOM      8  N   UNL     1       5.627   3.835  18.994  0.00  0.00    +0.000 NA
ATOM      9  C   UNL     1       4.407   4.137  19.370  0.00  0.00    +0.000 A 
ATOM     10  N   UNL     1       3.545   3.410  20.134  0.00  0.00    +0.000 NA
ENDROOT
BRANCH   7  11
ATOM     11  C   UNL     1       7.392   4.947  17.567  0.00  0.00    +0.000 C 
ATOM     12  F   UNL     1       8.336   4.249  18.256  0.00  0.00    +0.000 F 
ATOM     13  F   UNL     1       7.366   4.420  16.312  0.00  0.00    +0.000 F 
ATOM     14  F   UNL     1       7.871   6.217  17.447  0.00  0.00    +0.000 F 
ENDBRANCH   7  11
BRANCH   4  15
ATOM     15  N   UNL     1       2.470   7.161  18.453  0.00  0.00    +0.000 N 
ATOM     16  H   UNL     1       2.056   7.051  17.520  0.00  0.00    +0.000 HD
BRANCH  15  17
ATOM     17  C   UNL     1       1.776   8.179  19.160  0.00  0.00    +0.000 A 
ATOM     18  C   UNL     1       1.425   9.349  18.486  0.00  0.00    +0.000 A 
ATOM     19  C   UNL     1       0.747  10.379  19.148  0.00  0.00    +0.000 A 
ATOM     20  C   UNL     1       0.378  10.246  20.496  0.00  0.00    +0.000 A 
ATOM     21  C   UNL     1      -0.285  11.276  21.184  0.00  0.00    +0.000 A 
ATOM     22  C   UNL     1      -0.651  11.120  22.523  0.00  0.00    +0.000 A 
ATOM     23  C   UNL     1      -0.370   9.930  23.187  0.00  0.00    +0.000 A 
ATOM     24  C   UNL     1       0.289   8.898  22.517  0.00  0.00    +0.000 A 
ATOM     25  C   UNL     1       0.677   9.046  21.173  0.00  0.00    +0.000 A 
ATOM     26  C   UNL     1       1.363   8.024  20.493  0.00  0.00    +0.000 A 
ENDBRANCH  15  17
ENDBRANCH   4  15
TORSDOF 3
ENDMDL
MODEL 7
REMARK VINA RESULT:      -8.7      2.331      3.523
REMARK  Name = 
REMARK  4 active torsions:
REMARK  status: ('A' for Active; 'I' for Inactive)
REMARK    1  A    between atoms: C_1  and  C_2
REMARK    2  A    between atoms: C_4  and  N_5
REMARK    3  A    between atoms: N_5  and  C_6
REMARK    4  A    between atoms: C_18  and  C_19
REMARK                            x       y       z     vdW  Elec       q    Type
REMARK                         _______ _______ _______ _____ _____    ______ ____
ROOT
ATOM      1  C   UNL     1       8.184   5.587  19.924  0.00  0.00    +0.000 C 
ATOM      2  C   UNL     1       7.292   5.317  18.737  0.00  0.00    +0.000 A 
ATOM      3  C   UNL     1       5.821   5.442  18.953  0.00  0.00    +0.000 A 
ATOM      4  C   UNL     1       5.023   5.232  17.889  0.00  0.00    +0.000 A 
ATOM      5  N   UNL     1       5.637   4.905  16.661  0.00  0.00    +0.000 N 
ATOM      6  N   UNL     1       5.054   4.628  15.461  0.00  0.00    +0.000 NA
ATOM      7  C   UNL     1       6.111   4.302  14.689  0.00  0.00    +0.000 A 
ATOM      8  N   UNL     1       7.329   4.394  15.336  0.00  0.00    +0.000 NA
ATOM      9  C   UNL     1       7.025   4.769  16.555  0.00  0.00    +0.000 A 
ATOM     10  N   UNL     1       7.856   4.996  17.610  0.00  0.00    +0.000 NA
ENDROOT
BRANCH   7  11
ATOM     11  C   UNL     1       6.017   3.859  13.243  0.00  0.00    +0.000 C 
ATOM     12  F   UNL     1       6.335   2.548  13.065  0.00  0.00    +0.000 F 
ATOM     13  F   UNL     1       4.762   4.021  12.739  0.00  0.00    +0.000 F 
ATOM     14  F   UNL     1       6.855   4.566  12.434  0.00  0.00    +0.000 F 
ENDBRANCH   7  11
BRANCH   4  15
ATOM     15  N   UNL     1       3.633   5.327  17.941  0.00  0.00    +0.000 N 
ATOM     16  H   UNL     1       3.220   4.522  18.425  0.00  0.00    +0.000 HD
BRANCH  15  17
ATOM     17  C   UNL     1       2.968   6.515  18.348  0.00  0.00    +0.000 A 
ATOM     18  C   UNL     1       2.819   7.554  17.429  0.00  0.00    +0.000 A 
ATOM     19  C   UNL     1       2.178   8.743  17.792  0.00  0.00    +0.000 A 
ATOM     20  C   UNL     1       1.642   8.906  19.080  0.00  0.00    +0.000 A 
ATOM     21  C   UNL     1       1.012  10.100  19.471  0.00  0.00    +0.000 A 
ATOM     22  C   UNL     1       0.478  10.238  20.753  0.00  0.00    +0.000 A 
ATOM     23  C   UNL     1       0.557   9.184  21.657  0.00  0.00    +0.000 A 
ATOM     24  C   UNL     1       1.181   7.992  21.284  0.00  0.00    +0.000 A 
ATOM     25  C   UNL     1       1.736   7.842  20.001  0.00  0.00    +0.000 A 
ATOM     26  C   UNL     1       2.389   6.657  19.619  0.00  0.00    +0.000 A 
ENDBRANCH  15  17
ENDBRANCH   4  15
TORSDOF 3
ENDMDL
MODEL 8
REMARK VINA RESULT:      -8.6      2.374      4.271
REMARK  Name = 
REMARK  4 active torsions:
REMARK  status: ('A' for Active; 'I' for Inactive)
REMARK    1  A    between atoms: C_1  and  C_2
REMARK    2  A    between atoms: C_4  and  N_5
REMARK    3  A    between atoms: N_5  and  C_6
REMARK    4  A    between atoms: C_18  and  C_19
REMARK                            x       y       z     vdW  Elec       q    Type
REMARK                         _______ _______ _______ _____ _____    ______ ____
ROOT
ATOM      1  C   UNL     1       8.171   7.575  18.351  0.00  0.00    +0.000 C 
ATOM      2  C   UNL     1       7.288   6.742  17.456  0.00  0.00    +0.000 A 
ATOM      3  C   UNL     1       5.919   6.423  17.959  0.00  0.00    +0.000 A 
ATOM      4  C   UNL     1       5.118   5.706  17.150  0.00  0.00    +0.000 A 
ATOM      5  N   UNL     1       5.634   5.307  15.899  0.00  0.00    +0.000 N 
ATOM      6  N   UNL     1       5.035   4.566  14.925  0.00  0.00    +0.000 NA
ATOM      7  C   UNL     1       6.022   4.427  14.014  0.00  0.00    +0.000 A 
ATOM      8  N   UNL     1       7.195   5.072  14.353  0.00  0.00    +0.000 NA
ATOM      9  C   UNL     1       6.945   5.615  15.521  0.00  0.00    +0.000 A 
ATOM     10  N   UNL     1       7.770   6.357  16.311  0.00  0.00    +0.000 NA
ENDROOT
BRANCH   7  11
ATOM     11  C   UNL     1       5.899   3.635  12.728  0.00  0.00    +0.000 C 
ATOM     12  F   UNL     1       4.650   3.684  12.189  0.00  0.00    +0.000 F 
ATOM     13  F   UNL     1       6.750   4.086  11.765  0.00  0.00    +0.000 F 
ATOM     14  F   UNL     1       6.182   2.314  12.910  0.00  0.00    +0.000 F 
ENDBRANCH   7  11
BRANCH   4  15
ATOM     15  N   UNL     1       3.813   5.346  17.484  0.00  0.00    +0.000 N 
ATOM     16  H   UNL     1       3.743   4.346  17.702  0.00  0.00    +0.000 HD
BRANCH  15  17
ATOM     17  C   UNL     1       3.037   6.086  18.416  0.00  0.00    +0.000 A 
ATOM     18  C   UNL     1       2.752   5.518  19.659  0.00  0.00    +0.000 A 
ATOM     19  C   UNL     1       1.985   6.210  20.602  0.00  0.00    +0.000 A 
ATOM     20  C   UNL     1       1.511   7.504  20.332  0.00  0.00    +0.000 A 
ATOM     21  C   UNL     1       0.722   8.208  21.258  0.00  0.00    +0.000 A 
ATOM     22  C   UNL     1       0.268   9.498  20.974  0.00  0.00    +0.000 A 
ATOM     23  C   UNL     1       0.604  10.104  19.768  0.00  0.00    +0.000 A 
ATOM     24  C   UNL     1       1.387   9.417  18.838  0.00  0.00    +0.000 A 
ATOM     25  C   UNL     1       1.839   8.112  19.103  0.00  0.00    +0.000 A 
ATOM     26  C   UNL     1       2.607   7.399  18.166  0.00  0.00    +0.000 A 
ENDBRANCH  15  17
ENDBRANCH   4  15
TORSDOF 3
ENDMDL
MODEL 9
REMARK VINA RESULT:      -8.5      1.194      1.799
REMARK  Name = 
REMARK  4 active torsions:
REMARK  status: ('A' for Active; 'I' for Inactive)
REMARK    1  A    between atoms: C_1  and  C_2
REMARK    2  A    between atoms: C_4  and  N_5
REMARK    3  A    between atoms: N_5  and  C_6
REMARK    4  A    between atoms: C_18  and  C_19
REMARK                            x       y       z     vdW  Elec       q    Type
REMARK                         _______ _______ _______ _____ _____    ______ ____
ROOT
ATOM      1  C   UNL     1       1.041   3.233  19.972  0.00  0.00    +0.000 C 
ATOM      2  C   UNL     1       2.014   3.951  19.069  0.00  0.00    +0.000 A 
ATOM      3  C   UNL     1       1.918   5.439  19.015  0.00  0.00    +0.000 A 
ATOM      4  C   UNL     1       2.804   6.085  18.234  0.00  0.00    +0.000 A 
ATOM      5  N   UNL     1       3.745   5.308  17.526  0.00  0.00    +0.000 N 
ATOM      6  N   UNL     1       4.718   5.720  16.665  0.00  0.00    +0.000 NA
ATOM      7  C   UNL     1       5.237   4.552  16.230  0.00  0.00    +0.000 A 
ATOM      8  N   UNL     1       4.662   3.433  16.801  0.00  0.00    +0.000 NA
ATOM      9  C   UNL     1       3.741   3.912  17.603  0.00  0.00    +0.000 A 
ATOM     10  N   UNL     1       2.869   3.234  18.401  0.00  0.00    +0.000 NA
ENDROOT
BRANCH   7  11
ATOM     11  C   UNL     1       6.345   4.434  15.202  0.00  0.00    +0.000 C 
ATOM     12  F   UNL     1       6.397   5.496  14.351  0.00  0.00    +0.000 F 
ATOM     13  F   UNL     1       7.574   4.346  15.780  0.00  0.00    +0.000 F 
ATOM     14  F   UNL     1       6.202   3.327  14.420  0.00  0.00    +0.000 F 
ENDBRANCH   7  11
BRANCH   4  15
ATOM     15  N   UNL     1       2.839   7.472  18.098  0.00  0.00    +0.000 N 
ATOM     16  H   UNL     1       2.839   7.752  17.111  0.00  0.00    +0.000 HD
BRANCH  15  17
ATOM     17  C   UNL     1       1.974   8.329  18.831  0.00  0.00    +0.000 A 
ATOM     18  C   UNL     1       1.248   9.303  18.143  0.00  0.00    +0.000 A 
ATOM     19  C   UNL     1       0.391  10.171  18.828  0.00  0.00    +0.000 A 
ATOM     20  C   UNL     1       0.219  10.063  20.217  0.00  0.00    +0.000 A 
ATOM     21  C   UNL     1      -0.621  10.938  20.926  0.00  0.00    +0.000 A 
ATOM     22  C   UNL     1      -0.787  10.807  22.307  0.00  0.00    +0.000 A 
ATOM     23  C   UNL     1      -0.123   9.796  22.994  0.00  0.00    +0.000 A 
ATOM     24  C   UNL     1       0.715   8.919  22.304  0.00  0.00    +0.000 A 
ATOM     25  C   UNL     1       0.903   9.047  20.916  0.00  0.00    +0.000 A 
ATOM     26  C   UNL     1       1.763   8.187  20.211  0.00  0.00    +0.000 A 
ENDBRANCH  15  17
ENDBRANCH   4  15
TORSDOF 3
ENDMDL
