MODEL 1
REMARK VINA RESULT:      -6.8      0.000      0.000
REMARK  Name = 
REMARK  1 active torsions:
REMARK  status: ('A' for Active; 'I' for Inactive)
REMARK    1  A    between atoms: N_6  and  C_7
REMARK                            x       y       z     vdW  Elec       q    Type
REMARK                         _______ _______ _______ _____ _____    ______ ____
ROOT
ATOM      1  C   UNL     1       4.661   4.835  18.944  0.00  0.00    +0.000 A 
ATOM      2  C   UNL     1       4.569   3.464  18.649  0.00  0.00    +0.000 A 
ATOM      3  C   UNL     1       3.499   2.700  19.121  0.00  0.00    +0.000 A 
ATOM      4  F   UNL     1       3.462   1.388  18.848  0.00  0.00    +0.000 F 
ATOM      5  C   UNL     1       2.493   3.278  19.876  0.00  0.00    +0.000 A 
ATOM      6  F   UNL     1       1.468   2.540  20.322  0.00  0.00    +0.000 F 
ATOM      7  C   UNL     1       2.561   4.629  20.165  0.00  0.00    +0.000 A 
ATOM      8  F   UNL     1       1.591   5.214  20.882  0.00  0.00    +0.000 F 
ATOM      9  C   UNL     1       3.635   5.403  19.719  0.00  0.00    +0.000 A 
ENDROOT
BRANCH   1  15
ATOM     10  O   UNL     1       7.400   5.164  20.147  0.00  0.00    +0.000 OA
ATOM     11  C   UNL     1       6.992   5.735  19.147  0.00  0.00    +0.000 A 
ATOM     12  C   UNL     1       7.860   6.697  18.430  0.00  0.00    +0.000 A 
ATOM     13  C   UNL     1       7.260   7.199  17.351  0.00  0.00    +0.000 A 
ATOM     14  S   UNL     1       5.677   6.579  17.073  0.00  0.00    +0.000 S 
ATOM     15  N   UNL     1       5.764   5.614  18.491  0.00  0.00    +0.000 N 
ENDBRANCH   1  15
TORSDOF 1
ENDMDL
MODEL 2
REMARK VINA RESULT:      -6.7      0.306      2.141
REMARK  Name = 
REMARK  1 active torsions:
REMARK  status: ('A' for Active; 'I' for Inactive)
REMARK    1  A    between atoms: N_6  and  C_7
REMARK                            x       y       z     vdW  Elec       q    Type
REMARK                         _______ _______ _______ _____ _____    ______ ____
ROOT
ATOM      1  C   UNL     1       4.459   4.901  18.923  0.00  0.00    +0.000 A 
ATOM      2  C   UNL     1       3.476   5.541  19.696  0.00  0.00    +0.000 A 
ATOM      3  C   UNL     1       2.343   4.849  20.130  0.00  0.00    +0.000 A 
ATOM      4  F   UNL     1       1.410   5.502  20.837  0.00  0.00    +0.000 F 
ATOM      5  C   UNL     1       2.169   3.511  19.824  0.00  0.00    +0.000 A 
ATOM      6  F   UNL     1       1.081   2.853  20.247  0.00  0.00    +0.000 F 
ATOM      7  C   UNL     1       3.133   2.861  19.075  0.00  0.00    +0.000 A 
ATOM      8  F   UNL     1       2.993   1.561  18.779  0.00  0.00    +0.000 F 
ATOM      9  C   UNL     1       4.262   3.543  18.616  0.00  0.00    +0.000 A 
ENDROOT
BRANCH   1  15
ATOM     10  O   UNL     1       7.210   5.114  20.125  0.00  0.00    +0.000 OA
ATOM     11  C   UNL     1       6.835   5.679  19.109  0.00  0.00    +0.000 A 
ATOM     12  C   UNL     1       7.755   6.573  18.370  0.00  0.00    +0.000 A 
ATOM     13  C   UNL     1       7.185   7.078  17.276  0.00  0.00    +0.000 A 
ATOM     14  S   UNL     1       5.571   6.538  17.009  0.00  0.00    +0.000 S 
ATOM     15  N   UNL     1       5.603   5.607  18.453  0.00  0.00    +0.000 N 
ENDBRANCH   1  15
TORSDOF 1
ENDMDL
MODEL 3
REMARK VINA RESULT:      -6.7      3.770      5.298
REMARK  Name = 
REMARK  1 active torsions:
REMARK  status: ('A' for Active; 'I' for Inactive)
REMARK    1  A    between atoms: N_6  and  C_7
REMARK                            x       y       z     vdW  Elec       q    Type
REMARK                         _______ _______ _______ _____ _____    ______ ____
ROOT
ATOM      1  C   UNL     1       4.312   4.175  18.186  0.00  0.00    +0.000 A 
ATOM      2  C   UNL     1       4.160   4.064  16.794  0.00  0.00    +0.000 A 
ATOM      3  C   UNL     1       5.255   4.215  15.940  0.00  0.00    +0.000 A 
ATOM      4  F   UNL     1       5.065   4.136  14.615  0.00  0.00    +0.000 F 
ATOM      5  C   UNL     1       6.520   4.460  16.444  0.00  0.00    +0.000 A 
ATOM      6  F   UNL     1       7.566   4.601  15.618  0.00  0.00    +0.000 F 
ATOM      7  C   UNL     1       6.690   4.561  17.813  0.00  0.00    +0.000 A 
ATOM      8  F   UNL     1       7.909   4.783  18.325  0.00  0.00    +0.000 F 
ATOM      9  C   UNL     1       5.603   4.433  18.680  0.00  0.00    +0.000 A 
ENDROOT
BRANCH   1  15
ATOM     10  O   UNL     1       2.715   1.734  18.924  0.00  0.00    +0.000 OA
ATOM     11  C   UNL     1       2.490   2.870  19.310  0.00  0.00    +0.000 A 
ATOM     12  C   UNL     1       1.340   3.141  20.202  0.00  0.00    +0.000 A 
ATOM     13  C   UNL     1       1.268   4.428  20.543  0.00  0.00    +0.000 A 
ATOM     14  S   UNL     1       2.529   5.402  19.887  0.00  0.00    +0.000 S 
ATOM     15  N   UNL     1       3.196   4.051  19.062  0.00  0.00    +0.000 N 
ENDBRANCH   1  15
TORSDOF 1
ENDMDL
MODEL 4
REMARK VINA RESULT:      -6.6      3.763      5.384
REMARK  Name = 
REMARK  1 active torsions:
REMARK  status: ('A' for Active; 'I' for Inactive)
REMARK    1  A    between atoms: N_6  and  C_7
REMARK                            x       y       z     vdW  Elec       q    Type
REMARK                         _______ _______ _______ _____ _____    ______ ____
ROOT
ATOM      1  C   UNL     1       4.315   4.224  18.190  0.00  0.00    +0.000 A 
ATOM      2  C   UNL     1       5.606   4.470  18.687  0.00  0.00    +0.000 A 
ATOM      3  C   UNL     1       6.698   4.580  17.822  0.00  0.00    +0.000 A 
ATOM      4  F   UNL     1       7.920   4.782  18.335  0.00  0.00    +0.000 F 
ATOM      5  C   UNL     1       6.532   4.468  16.453  0.00  0.00    +0.000 A 
ATOM      6  F   UNL     1       7.583   4.578  15.629  0.00  0.00    +0.000 F 
ATOM      7  C   UNL     1       5.266   4.238  15.945  0.00  0.00    +0.000 A 
ATOM      8  F   UNL     1       5.079   4.141  14.621  0.00  0.00    +0.000 F 
ATOM      9  C   UNL     1       4.167   4.105  16.797  0.00  0.00    +0.000 A 
ENDROOT
BRANCH   1  15
ATOM     10  O   UNL     1       2.752   1.758  18.921  0.00  0.00    +0.000 OA
ATOM     11  C   UNL     1       2.513   2.890  19.312  0.00  0.00    +0.000 A 
ATOM     12  C   UNL     1       1.360   3.143  20.206  0.00  0.00    +0.000 A 
ATOM     13  C   UNL     1       1.272   4.428  20.551  0.00  0.00    +0.000 A 
ATOM     14  S   UNL     1       2.518   5.421  19.898  0.00  0.00    +0.000 S 
ATOM     15  N   UNL     1       3.202   4.082  19.067  0.00  0.00    +0.000 N 
ENDBRANCH   1  15
TORSDOF 1
ENDMDL
MODEL 5
REMARK VINA RESULT:      -6.6      1.479      2.550
REMARK  Name = 
REMARK  1 active torsions:
REMARK  status: ('A' for Active; 'I' for Inactive)
REMARK    1  A    between atoms: N_6  and  C_7
REMARK                            x       y       z     vdW  Elec       q    Type
REMARK                         _______ _______ _______ _____ _____    ______ ____
ROOT
ATOM      1  C   UNL     1       3.995   4.289  18.598  0.00  0.00    +0.000 A 
ATOM      2  C   UNL     1       3.457   5.326  19.379  0.00  0.00    +0.000 A 
ATOM      3  C   UNL     1       2.214   5.185  19.999  0.00  0.00    +0.000 A 
ATOM      4  F   UNL     1       1.717   6.208  20.708  0.00  0.00    +0.000 F 
ATOM      5  C   UNL     1       1.488   4.013  19.875  0.00  0.00    +0.000 A 
ATOM      6  F   UNL     1       0.297   3.883  20.476  0.00  0.00    +0.000 F 
ATOM      7  C   UNL     1       2.008   2.977  19.121  0.00  0.00    +0.000 A 
ATOM      8  F   UNL     1       1.330   1.827  18.999  0.00  0.00    +0.000 F 
ATOM      9  C   UNL     1       3.240   3.109  18.477  0.00  0.00    +0.000 A 
ENDROOT
BRANCH   1  15
ATOM     10  O   UNL     1       6.667   5.099  19.720  0.00  0.00    +0.000 OA
ATOM     11  C   UNL     1       6.436   4.861  18.545  0.00  0.00    +0.000 A 
ATOM     12  C   UNL     1       7.510   4.980  17.533  0.00  0.00    +0.000 A 
ATOM     13  C   UNL     1       7.081   4.654  16.313  0.00  0.00    +0.000 A 
ATOM     14  S   UNL     1       5.431   4.163  16.253  0.00  0.00    +0.000 S 
ATOM     15  N   UNL     1       5.249   4.436  17.940  0.00  0.00    +0.000 N 
ENDBRANCH   1  15
TORSDOF 1
ENDMDL
MODEL 6
REMARK VINA RESULT:      -6.6      3.545      5.127
REMARK  Name = 
REMARK  1 active torsions:
REMARK  status: ('A' for Active; 'I' for Inactive)
REMARK    1  A    between atoms: N_6  and  C_7
REMARK                            x       y       z     vdW  Elec       q    Type
REMARK                         _______ _______ _______ _____ _____    ______ ____
ROOT
ATOM      1  C   UNL     1       4.702   4.241  18.446  0.00  0.00    +0.000 A 
ATOM      2  C   UNL     1       4.413   4.002  17.091  0.00  0.00    +0.000 A 
ATOM      3  C   UNL     1       5.310   4.381  16.090  0.00  0.00    +0.000 A 
ATOM      4  F   UNL     1       4.985   4.168  14.807  0.00  0.00    +0.000 F 
ATOM      5  C   UNL     1       6.515   4.984  16.407  0.00  0.00    +0.000 A 
ATOM      6  F   UNL     1       7.371   5.341  15.441  0.00  0.00    +0.000 F 
ATOM      7  C   UNL     1       6.821   5.215  17.736  0.00  0.00    +0.000 A 
ATOM      8  F   UNL     1       7.989   5.784  18.068  0.00  0.00    +0.000 F 
ATOM      9  C   UNL     1       5.927   4.862  18.749  0.00  0.00    +0.000 A 
ENDROOT
BRANCH   1  15
ATOM     10  O   UNL     1       4.800   1.958  20.404  0.00  0.00    +0.000 OA
ATOM     11  C   UNL     1       3.894   2.771  20.309  0.00  0.00    +0.000 A 
ATOM     12  C   UNL     1       2.707   2.672  21.188  0.00  0.00    +0.000 A 
ATOM     13  C   UNL     1       1.838   3.658  20.963  0.00  0.00    +0.000 A 
ATOM     14  S   UNL     1       2.339   4.776  19.753  0.00  0.00    +0.000 S 
ATOM     15  N   UNL     1       3.780   3.884  19.470  0.00  0.00    +0.000 N 
ENDBRANCH   1  15
TORSDOF 1
ENDMDL
MODEL 7
REMARK VINA RESULT:      -6.6      3.514      5.261
REMARK  Name = 
REMARK  1 active torsions:
REMARK  status: ('A' for Active; 'I' for Inactive)
REMARK    1  A    between atoms: N_6  and  C_7
REMARK                            x       y       z     vdW  Elec       q    Type
REMARK                         _______ _______ _______ _____ _____    ______ ____
ROOT
ATOM      1  C   UNL     1       4.715   4.329  18.560  0.00  0.00    +0.000 A 
ATOM      2  C   UNL     1       5.921   4.989  18.850  0.00  0.00    +0.000 A 
ATOM      3  C   UNL     1       6.805   5.346  17.830  0.00  0.00    +0.000 A 
ATOM      4  F   UNL     1       7.962   5.944  18.148  0.00  0.00    +0.000 F 
ATOM      5  C   UNL     1       6.508   5.074  16.506  0.00  0.00    +0.000 A 
ATOM      6  F   UNL     1       7.360   5.423  15.532  0.00  0.00    +0.000 F 
ATOM      7  C   UNL     1       5.319   4.437  16.201  0.00  0.00    +0.000 A 
ATOM      8  F   UNL     1       5.002   4.177  14.924  0.00  0.00    +0.000 F 
ATOM      9  C   UNL     1       4.433   4.055  17.210  0.00  0.00    +0.000 A 
ENDROOT
BRANCH   1  15
ATOM     10  O   UNL     1       4.799   1.913  20.353  0.00  0.00    +0.000 OA
ATOM     11  C   UNL     1       3.923   2.765  20.353  0.00  0.00    +0.000 A 
ATOM     12  C   UNL     1       2.770   2.649  21.273  0.00  0.00    +0.000 A 
ATOM     13  C   UNL     1       1.933   3.680  21.153  0.00  0.00    +0.000 A 
ATOM     14  S   UNL     1       2.430   4.861  20.001  0.00  0.00    +0.000 S 
ATOM     15  N   UNL     1       3.821   3.937  19.597  0.00  0.00    +0.000 N 
ENDBRANCH   1  15
TORSDOF 1
ENDMDL
MODEL 8
REMARK VINA RESULT:      -6.6      1.612      1.750
REMARK  Name = 
REMARK  1 active torsions:
REMARK  status: ('A' for Active; 'I' for Inactive)
REMARK    1  A    between atoms: N_6  and  C_7
REMARK                            x       y       z     vdW  Elec       q    Type
REMARK                         _______ _______ _______ _____ _____    ______ ____
ROOT
ATOM      1  C   UNL     1       3.935   4.318  18.365  0.00  0.00    +0.000 A 
ATOM      2  C   UNL     1       3.160   3.146  18.332  0.00  0.00    +0.000 A 
ATOM      3  C   UNL     1       1.949   3.068  19.023  0.00  0.00    +0.000 A 
ATOM      4  F   UNL     1       1.254   1.922  18.996  0.00  0.00    +0.000 F 
ATOM      5  C   UNL     1       1.473   4.149  19.744  0.00  0.00    +0.000 A 
ATOM      6  F   UNL     1       0.308   4.068  20.402  0.00  0.00    +0.000 F 
ATOM      7  C   UNL     1       2.216   5.315  19.778  0.00  0.00    +0.000 A 
ATOM      8  F   UNL     1       1.767   6.380  20.457  0.00  0.00    +0.000 F 
ATOM      9  C   UNL     1       3.439   5.404  19.109  0.00  0.00    +0.000 A 
ENDROOT
BRANCH   1  15
ATOM     10  O   UNL     1       6.691   4.803  19.472  0.00  0.00    +0.000 OA
ATOM     11  C   UNL     1       6.416   4.668  18.289  0.00  0.00    +0.000 A 
ATOM     12  C   UNL     1       7.478   4.759  17.261  0.00  0.00    +0.000 A 
ATOM     13  C   UNL     1       6.998   4.559  16.033  0.00  0.00    +0.000 A 
ATOM     14  S   UNL     1       5.309   4.226  15.982  0.00  0.00    +0.000 S 
ATOM     15  N   UNL     1       5.185   4.396  17.687  0.00  0.00    +0.000 N 
ENDBRANCH   1  15
TORSDOF 1
ENDMDL
MODEL 9
REMARK VINA RESULT:      -6.6      3.750      5.171
REMARK  Name = 
REMARK  1 active torsions:
REMARK  status: ('A' for Active; 'I' for Inactive)
REMARK    1  A    between atoms: N_6  and  C_7
REMARK                            x       y       z     vdW  Elec       q    Type
REMARK                         _______ _______ _______ _____ _____    ______ ____
ROOT
ATOM      1  C   UNL     1       4.508   4.395  18.324  0.00  0.00    +0.000 A 
ATOM      2  C   UNL     1       4.233   4.239  16.955  0.00  0.00    +0.000 A 
ATOM      3  C   UNL     1       5.259   4.276  16.009  0.00  0.00    +0.000 A 
ATOM      4  F   UNL     1       4.954   4.157  14.709  0.00  0.00    +0.000 F 
ATOM      5  C   UNL     1       6.576   4.449  16.397  0.00  0.00    +0.000 A 
ATOM      6  F   UNL     1       7.556   4.480  15.484  0.00  0.00    +0.000 F 
ATOM      7  C   UNL     1       6.867   4.592  17.742  0.00  0.00    +0.000 A 
ATOM      8  F   UNL     1       8.137   4.746  18.143  0.00  0.00    +0.000 F 
ATOM      9  C   UNL     1       5.851   4.578  18.699  0.00  0.00    +0.000 A 
ENDROOT
BRANCH   1  15
ATOM     10  O   UNL     1       2.793   6.662  19.313  0.00  0.00    +0.000 OA
ATOM     11  C   UNL     1       2.747   5.510  19.717  0.00  0.00    +0.000 A 
ATOM     12  C   UNL     1       1.805   5.135  20.796  0.00  0.00    +0.000 A 
ATOM     13  C   UNL     1       1.874   3.836  21.086  0.00  0.00    +0.000 A 
ATOM     14  S   UNL     1       3.000   2.957  20.123  0.00  0.00    +0.000 S 
ATOM     15  N   UNL     1       3.464   4.388  19.292  0.00  0.00    +0.000 N 
ENDBRANCH   1  15
TORSDOF 1
ENDMDL
