MODEL 1
REMARK VINA RESULT:      -8.0      0.000      0.000
REMARK  Name = 
REMARK  7 active torsions:
REMARK  status: ('A' for Active; 'I' for Inactive)
REMARK    1  A    between atoms: C_1  and  C_2
REMARK    2  A    between atoms: C_4  and  C_5
REMARK    3  A    between atoms: N_7  and  C_8
REMARK    4  A    between atoms: C_8  and  C_9
REMARK    5  A    between atoms: C_9  and  O_10
REMARK    6  A    between atoms: O_10  and  C_11
REMARK    7  A    between atoms: C_16  and  C_17
REMARK                            x       y       z     vdW  Elec       q    Type
REMARK                         _______ _______ _______ _____ _____    ______ ____
ROOT
ATOM      1  C   UNL     1       3.953   6.159  17.514  0.00  0.00    +0.000 A 
ATOM      2  C   UNL     1       4.841   6.569  16.495  0.00  0.00    +0.000 A 
ATOM      3  C   UNL     1       5.420   5.648  15.628  0.00  0.00    +0.000 A 
ATOM      4  C   UNL     1       5.154   4.301  15.792  0.00  0.00    +0.000 A 
ATOM      5  C   UNL     1       4.322   3.879  16.833  0.00  0.00    +0.000 A 
ATOM      6  C   UNL     1       3.684   4.785  17.717  0.00  0.00    +0.000 A 
ENDROOT
BRANCH   6   7
ATOM      7  C   UNL     1       2.777   4.232  18.771  0.00  0.00    +0.000 A 
ATOM      8  C   UNL     1       3.082   4.283  20.142  0.00  0.00    +0.000 A 
ATOM      9  C   UNL     1       2.235   3.719  21.107  0.00  0.00    +0.000 A 
ATOM     10  C   UNL     1       1.065   3.070  20.724  0.00  0.00    +0.000 A 
ATOM     11  C   UNL     1       0.731   3.004  19.378  0.00  0.00    +0.000 A 
ATOM     12  C   UNL     1       1.569   3.591  18.422  0.00  0.00    +0.000 A 
ENDBRANCH   6   7
BRANCH   1  13
ATOM     13  O   UNL     1       3.342   7.089  18.340  0.00  0.00    +0.000 OA
BRANCH  13  14
ATOM     14  C   UNL     1       2.258   7.784  17.726  0.00  0.00    +0.000 C 
BRANCH  14  15
ATOM     15  C   UNL     1       2.254   9.268  18.102  0.00  0.00    +0.000 C 
BRANCH  15  22
ATOM     16  C   UNL     1      -1.772  10.638  18.475  0.00  0.00    +0.000 C 
ATOM     17  C   UNL     1      -0.676  11.352  19.283  0.00  0.00    +0.000 C 
ATOM     18  C   UNL     1      -0.694  10.956  20.765  0.00  0.00    +0.000 C 
ATOM     19  C   UNL     1      -0.302   9.486  20.940  0.00  0.00    +0.000 C 
ATOM     20  C   UNL     1      -0.250   9.109  22.420  0.00  0.00    +0.000 C 
ATOM     21  C   UNL     1       1.043   9.200  20.243  0.00  0.00    +0.000 C 
ATOM     22  N   UNL     1       1.027   9.625  18.833  0.00  0.00    +0.000 NA
ATOM     23  C   UNL     1       0.716  11.055  18.702  0.00  0.00    +0.000 C 
ENDBRANCH  15  22
ENDBRANCH  14  15
ENDBRANCH  13  14
ENDBRANCH   1  13
TORSDOF 5
ENDMDL
MODEL 2
REMARK VINA RESULT:      -8.0      0.144      1.008
REMARK  Name = 
REMARK  7 active torsions:
REMARK  status: ('A' for Active; 'I' for Inactive)
REMARK    1  A    between atoms: C_1  and  C_2
REMARK    2  A    between atoms: C_4  and  C_5
REMARK    3  A    between atoms: N_7  and  C_8
REMARK    4  A    between atoms: C_8  and  C_9
REMARK    5  A    between atoms: C_9  and  O_10
REMARK    6  A    between atoms: O_10  and  C_11
REMARK    7  A    between atoms: C_16  and  C_17
REMARK                            x       y       z     vdW  Elec       q    Type
REMARK                         _______ _______ _______ _____ _____    ______ ____
ROOT
ATOM      1  C   UNL     1       3.897   6.138  17.560  0.00  0.00    +0.000 A 
ATOM      2  C   UNL     1       4.773   6.656  16.579  0.00  0.00    +0.000 A 
ATOM      3  C   UNL     1       5.425   5.818  15.679  0.00  0.00    +0.000 A 
ATOM      4  C   UNL     1       5.245   4.450  15.772  0.00  0.00    +0.000 A 
ATOM      5  C   UNL     1       4.427   3.924  16.775  0.00  0.00    +0.000 A 
ATOM      6  C   UNL     1       3.716   4.741  17.690  0.00  0.00    +0.000 A 
ENDROOT
BRANCH   6   7
ATOM      7  C   UNL     1       2.831   4.079  18.698  0.00  0.00    +0.000 A 
ATOM      8  C   UNL     1       1.588   3.511  18.367  0.00  0.00    +0.000 A 
ATOM      9  C   UNL     1       0.759   2.935  19.339  0.00  0.00    +0.000 A 
ATOM     10  C   UNL     1       1.142   2.926  20.676  0.00  0.00    +0.000 A 
ATOM     11  C   UNL     1       2.364   3.475  21.040  0.00  0.00    +0.000 A 
ATOM     12  C   UNL     1       3.199   4.027  20.060  0.00  0.00    +0.000 A 
ENDBRANCH   6   7
BRANCH   1  13
ATOM     13  O   UNL     1       3.214   6.984  18.418  0.00  0.00    +0.000 OA
BRANCH  13  14
ATOM     14  C   UNL     1       2.146   7.698  17.799  0.00  0.00    +0.000 C 
BRANCH  14  15
ATOM     15  C   UNL     1       2.197   9.191  18.130  0.00  0.00    +0.000 C 
BRANCH  15  22
ATOM     16  C   UNL     1      -1.753  10.767  18.513  0.00  0.00    +0.000 C 
ATOM     17  C   UNL     1      -0.619  11.424  19.318  0.00  0.00    +0.000 C 
ATOM     18  C   UNL     1      -0.653  11.029  20.800  0.00  0.00    +0.000 C 
ATOM     19  C   UNL     1      -0.337   9.541  20.975  0.00  0.00    +0.000 C 
ATOM     20  C   UNL     1      -0.301   9.162  22.455  0.00  0.00    +0.000 C 
ATOM     21  C   UNL     1       0.989   9.186  20.274  0.00  0.00    +0.000 C 
ATOM     22  N   UNL     1       0.991   9.611  18.864  0.00  0.00    +0.000 NA
ATOM     23  C   UNL     1       0.755  11.055  18.733  0.00  0.00    +0.000 C 
ENDBRANCH  15  22
ENDBRANCH  14  15
ENDBRANCH  13  14
ENDBRANCH   1  13
TORSDOF 5
ENDMDL
MODEL 3
REMARK VINA RESULT:      -7.8      1.222      3.564
REMARK  Name = 
REMARK  7 active torsions:
REMARK  status: ('A' for Active; 'I' for Inactive)
REMARK    1  A    between atoms: C_1  and  C_2
REMARK    2  A    between atoms: C_4  and  C_5
REMARK    3  A    between atoms: N_7  and  C_8
REMARK    4  A    between atoms: C_8  and  C_9
REMARK    5  A    between atoms: C_9  and  O_10
REMARK    6  A    between atoms: O_10  and  C_11
REMARK    7  A    between atoms: C_16  and  C_17
REMARK                            x       y       z     vdW  Elec       q    Type
REMARK                         _______ _______ _______ _____ _____    ______ ____
ROOT
ATOM      1  C   UNL     1       3.120   5.359  19.549  0.00  0.00    +0.000 A 
ATOM      2  C   UNL     1       2.110   5.203  20.524  0.00  0.00    +0.000 A 
ATOM      3  C   UNL     1       1.864   3.968  21.117  0.00  0.00    +0.000 A 
ATOM      4  C   UNL     1       2.593   2.864  20.714  0.00  0.00    +0.000 A 
ATOM      5  C   UNL     1       3.554   2.996  19.708  0.00  0.00    +0.000 A 
ATOM      6  C   UNL     1       3.862   4.240  19.103  0.00  0.00    +0.000 A 
ENDROOT
BRANCH   6   7
ATOM      7  C   UNL     1       4.940   4.281  18.066  0.00  0.00    +0.000 A 
ATOM      8  C   UNL     1       6.263   4.658  18.357  0.00  0.00    +0.000 A 
ATOM      9  C   UNL     1       7.245   4.729  17.358  0.00  0.00    +0.000 A 
ATOM     10  C   UNL     1       6.925   4.442  16.034  0.00  0.00    +0.000 A 
ATOM     11  C   UNL     1       5.629   4.063  15.712  0.00  0.00    +0.000 A 
ATOM     12  C   UNL     1       4.660   3.970  16.719  0.00  0.00    +0.000 A 
ENDBRANCH   6   7
BRANCH   1  13
ATOM     13  O   UNL     1       3.391   6.603  19.002  0.00  0.00    +0.000 OA
BRANCH  13  14
ATOM     14  C   UNL     1       2.326   7.135  18.217  0.00  0.00    +0.000 C 
BRANCH  14  15
ATOM     15  C   UNL     1       2.327   8.666  18.228  0.00  0.00    +0.000 C 
BRANCH  15  22
ATOM     16  C   UNL     1      -1.604  10.322  18.398  0.00  0.00    +0.000 C 
ATOM     17  C   UNL     1      -0.463  11.064  19.114  0.00  0.00    +0.000 C 
ATOM     18  C   UNL     1      -0.503  10.865  20.634  0.00  0.00    +0.000 C 
ATOM     19  C   UNL     1      -0.203   9.408  21.000  0.00  0.00    +0.000 C 
ATOM     20  C   UNL     1      -0.171   9.223  22.516  0.00  0.00    +0.000 C 
ATOM     21  C   UNL     1       1.119   8.951  20.353  0.00  0.00    +0.000 C 
ATOM     22  N   UNL     1       1.126   9.191  18.899  0.00  0.00    +0.000 NA
ATOM     23  C   UNL     1       0.906  10.608  18.583  0.00  0.00    +0.000 C 
ENDBRANCH  15  22
ENDBRANCH  14  15
ENDBRANCH  13  14
ENDBRANCH   1  13
TORSDOF 5
ENDMDL
MODEL 4
REMARK VINA RESULT:      -7.8      1.269      3.724
REMARK  Name = 
REMARK  7 active torsions:
REMARK  status: ('A' for Active; 'I' for Inactive)
REMARK    1  A    between atoms: C_1  and  C_2
REMARK    2  A    between atoms: C_4  and  C_5
REMARK    3  A    between atoms: N_7  and  C_8
REMARK    4  A    between atoms: C_8  and  C_9
REMARK    5  A    between atoms: C_9  and  O_10
REMARK    6  A    between atoms: O_10  and  C_11
REMARK    7  A    between atoms: C_16  and  C_17
REMARK                            x       y       z     vdW  Elec       q    Type
REMARK                         _______ _______ _______ _____ _____    ______ ____
ROOT
ATOM      1  C   UNL     1       2.443   4.561  18.201  0.00  0.00    +0.000 A 
ATOM      2  C   UNL     1       1.267   4.074  18.815  0.00  0.00    +0.000 A 
ATOM      3  C   UNL     1       1.176   2.758  19.258  0.00  0.00    +0.000 A 
ATOM      4  C   UNL     1       2.240   1.899  19.058  0.00  0.00    +0.000 A 
ATOM      5  C   UNL     1       3.387   2.355  18.401  0.00  0.00    +0.000 A 
ATOM      6  C   UNL     1       3.536   3.695  17.965  0.00  0.00    +0.000 A 
ENDROOT
BRANCH   6   7
ATOM      7  C   UNL     1       4.822   4.092  17.311  0.00  0.00    +0.000 A 
ATOM      8  C   UNL     1       5.003   4.084  15.917  0.00  0.00    +0.000 A 
ATOM      9  C   UNL     1       6.232   4.419  15.331  0.00  0.00    +0.000 A 
ATOM     10  C   UNL     1       7.323   4.756  16.127  0.00  0.00    +0.000 A 
ATOM     11  C   UNL     1       7.179   4.777  17.508  0.00  0.00    +0.000 A 
ATOM     12  C   UNL     1       5.942   4.465  18.085  0.00  0.00    +0.000 A 
ENDBRANCH   6   7
BRANCH   1  13
ATOM     13  O   UNL     1       2.542   5.886  17.810  0.00  0.00    +0.000 OA
BRANCH  13  14
ATOM     14  C   UNL     1       2.569   6.810  18.896  0.00  0.00    +0.000 C 
BRANCH  14  15
ATOM     15  C   UNL     1       2.463   8.258  18.408  0.00  0.00    +0.000 C 
BRANCH  15  22
ATOM     16  C   UNL     1      -1.291  10.289  18.291  0.00  0.00    +0.000 C 
ATOM     17  C   UNL     1      -0.120  10.951  19.036  0.00  0.00    +0.000 C 
ATOM     18  C   UNL     1      -0.256  10.829  20.559  0.00  0.00    +0.000 C 
ATOM     19  C   UNL     1      -0.119   9.369  21.002  0.00  0.00    +0.000 C 
ATOM     20  C   UNL     1      -0.183   9.255  22.525  0.00  0.00    +0.000 C 
ATOM     21  C   UNL     1       1.183   8.758  20.449  0.00  0.00    +0.000 C 
ATOM     22  N   UNL     1       1.287   8.926  18.989  0.00  0.00    +0.000 NA
ATOM     23  C   UNL     1       1.223  10.341  18.602  0.00  0.00    +0.000 C 
ENDBRANCH  15  22
ENDBRANCH  14  15
ENDBRANCH  13  14
ENDBRANCH   1  13
TORSDOF 5
ENDMDL
MODEL 5
REMARK VINA RESULT:      -7.8      1.170      3.677
REMARK  Name = 
REMARK  7 active torsions:
REMARK  status: ('A' for Active; 'I' for Inactive)
REMARK    1  A    between atoms: C_1  and  C_2
REMARK    2  A    between atoms: C_4  and  C_5
REMARK    3  A    between atoms: N_7  and  C_8
REMARK    4  A    between atoms: C_8  and  C_9
REMARK    5  A    between atoms: C_9  and  O_10
REMARK    6  A    between atoms: O_10  and  C_11
REMARK    7  A    between atoms: C_16  and  C_17
REMARK                            x       y       z     vdW  Elec       q    Type
REMARK                         _______ _______ _______ _____ _____    ______ ____
ROOT
ATOM      1  C   UNL     1       3.054   5.426  19.479  0.00  0.00    +0.000 A 
ATOM      2  C   UNL     1       2.054   5.261  20.462  0.00  0.00    +0.000 A 
ATOM      3  C   UNL     1       1.797   4.016  21.029  0.00  0.00    +0.000 A 
ATOM      4  C   UNL     1       2.505   2.912  20.593  0.00  0.00    +0.000 A 
ATOM      5  C   UNL     1       3.457   3.054  19.579  0.00  0.00    +0.000 A 
ATOM      6  C   UNL     1       3.776   4.307  18.999  0.00  0.00    +0.000 A 
ENDROOT
BRANCH   6   7
ATOM      7  C   UNL     1       4.843   4.357  17.952  0.00  0.00    +0.000 A 
ATOM      8  C   UNL     1       4.597   4.068  16.598  0.00  0.00    +0.000 A 
ATOM      9  C   UNL     1       5.624   4.080  15.644  0.00  0.00    +0.000 A 
ATOM     10  C   UNL     1       6.933   4.364  16.021  0.00  0.00    +0.000 A 
ATOM     11  C   UNL     1       7.212   4.658  17.349  0.00  0.00    +0.000 A 
ATOM     12  C   UNL     1       6.177   4.669  18.292  0.00  0.00    +0.000 A 
ENDBRANCH   6   7
BRANCH   1  13
ATOM     13  O   UNL     1       3.337   6.678  18.958  0.00  0.00    +0.000 OA
BRANCH  13  14
ATOM     14  C   UNL     1       2.282   7.231  18.174  0.00  0.00    +0.000 C 
BRANCH  14  15
ATOM     15  C   UNL     1       2.284   8.762  18.224  0.00  0.00    +0.000 C 
BRANCH  15  22
ATOM     16  C   UNL     1      -1.660  10.383  18.424  0.00  0.00    +0.000 C 
ATOM     17  C   UNL     1      -0.522  11.129  19.141  0.00  0.00    +0.000 C 
ATOM     18  C   UNL     1      -0.554  10.916  20.659  0.00  0.00    +0.000 C 
ATOM     19  C   UNL     1      -0.240   9.459  21.012  0.00  0.00    +0.000 C 
ATOM     20  C   UNL     1      -0.201   9.262  22.526  0.00  0.00    +0.000 C 
ATOM     21  C   UNL     1       1.083   9.018  20.356  0.00  0.00    +0.000 C 
ATOM     22  N   UNL     1       1.082   9.270  18.904  0.00  0.00    +0.000 NA
ATOM     23  C   UNL     1       0.849  10.688  18.601  0.00  0.00    +0.000 C 
ENDBRANCH  15  22
ENDBRANCH  14  15
ENDBRANCH  13  14
ENDBRANCH   1  13
TORSDOF 5
ENDMDL
MODEL 6
REMARK VINA RESULT:      -7.8      3.136      5.908
REMARK  Name = 
REMARK  7 active torsions:
REMARK  status: ('A' for Active; 'I' for Inactive)
REMARK    1  A    between atoms: C_1  and  C_2
REMARK    2  A    between atoms: C_4  and  C_5
REMARK    3  A    between atoms: N_7  and  C_8
REMARK    4  A    between atoms: C_8  and  C_9
REMARK    5  A    between atoms: C_9  and  O_10
REMARK    6  A    between atoms: O_10  and  C_11
REMARK    7  A    between atoms: C_16  and  C_17
REMARK                            x       y       z     vdW  Elec       q    Type
REMARK                         _______ _______ _______ _____ _____    ______ ____
ROOT
ATOM      1  C   UNL     1       5.252   4.553  15.407  0.00  0.00    +0.000 A 
ATOM      2  C   UNL     1       4.791   3.968  14.207  0.00  0.00    +0.000 A 
ATOM      3  C   UNL     1       5.643   3.776  13.123  0.00  0.00    +0.000 A 
ATOM      4  C   UNL     1       6.955   4.202  13.207  0.00  0.00    +0.000 A 
ATOM      5  C   UNL     1       7.407   4.834  14.369  0.00  0.00    +0.000 A 
ATOM      6  C   UNL     1       6.585   5.019  15.508  0.00  0.00    +0.000 A 
ENDROOT
BRANCH   6   7
ATOM      7  C   UNL     1       7.179   5.668  16.718  0.00  0.00    +0.000 A 
ATOM      8  C   UNL     1       7.585   4.942  17.851  0.00  0.00    +0.000 A 
ATOM      9  C   UNL     1       8.099   5.580  18.989  0.00  0.00    +0.000 A 
ATOM     10  C   UNL     1       8.205   6.966  19.033  0.00  0.00    +0.000 A 
ATOM     11  C   UNL     1       7.816   7.715  17.931  0.00  0.00    +0.000 A 
ATOM     12  C   UNL     1       7.326   7.070  16.788  0.00  0.00    +0.000 A 
ENDBRANCH   6   7
BRANCH   1  13
ATOM     13  O   UNL     1       4.410   4.694  16.497  0.00  0.00    +0.000 OA
BRANCH  13  14
ATOM     14  C   UNL     1       4.025   3.458  17.095  0.00  0.00    +0.000 C 
BRANCH  14  15
ATOM     15  C   UNL     1       4.511   3.356  18.544  0.00  0.00    +0.000 C 
BRANCH  15  22
ATOM     16  C   UNL     1       1.776   2.526  21.715  0.00  0.00    +0.000 C 
ATOM     17  C   UNL     1       1.215   3.029  20.374  0.00  0.00    +0.000 C 
ATOM     18  C   UNL     1       0.804   4.505  20.433  0.00  0.00    +0.000 C 
ATOM     19  C   UNL     1       2.031   5.405  20.613  0.00  0.00    +0.000 C 
ATOM     20  C   UNL     1       1.630   6.879  20.600  0.00  0.00    +0.000 C 
ATOM     21  C   UNL     1       3.085   5.102  19.531  0.00  0.00    +0.000 C 
ATOM     22  N   UNL     1       3.426   3.669  19.488  0.00  0.00    +0.000 NA
ATOM     23  C   UNL     1       2.240   2.838  19.244  0.00  0.00    +0.000 C 
ENDBRANCH  15  22
ENDBRANCH  14  15
ENDBRANCH  13  14
ENDBRANCH   1  13
TORSDOF 5
ENDMDL
MODEL 7
REMARK VINA RESULT:      -7.7      1.766      3.768
REMARK  Name = 
REMARK  7 active torsions:
REMARK  status: ('A' for Active; 'I' for Inactive)
REMARK    1  A    between atoms: C_1  and  C_2
REMARK    2  A    between atoms: C_4  and  C_5
REMARK    3  A    between atoms: N_7  and  C_8
REMARK    4  A    between atoms: C_8  and  C_9
REMARK    5  A    between atoms: C_9  and  O_10
REMARK    6  A    between atoms: O_10  and  C_11
REMARK    7  A    between atoms: C_16  and  C_17
REMARK                            x       y       z     vdW  Elec       q    Type
REMARK                         _______ _______ _______ _____ _____    ______ ____
ROOT
ATOM      1  C   UNL     1       2.861   5.344  18.972  0.00  0.00    +0.000 A 
ATOM      2  C   UNL     1       1.646   4.633  18.861  0.00  0.00    +0.000 A 
ATOM      3  C   UNL     1       1.517   3.556  17.990  0.00  0.00    +0.000 A 
ATOM      4  C   UNL     1       2.585   3.198  17.188  0.00  0.00    +0.000 A 
ATOM      5  C   UNL     1       3.774   3.931  17.248  0.00  0.00    +0.000 A 
ATOM      6  C   UNL     1       3.961   5.013  18.145  0.00  0.00    +0.000 A 
ENDROOT
BRANCH   6   7
ATOM      7  C   UNL     1       5.288   5.703  18.162  0.00  0.00    +0.000 A 
ATOM      8  C   UNL     1       5.619   6.742  17.274  0.00  0.00    +0.000 A 
ATOM      9  C   UNL     1       6.886   7.343  17.282  0.00  0.00    +0.000 A 
ATOM     10  C   UNL     1       7.866   6.908  18.169  0.00  0.00    +0.000 A 
ATOM     11  C   UNL     1       7.573   5.887  19.063  0.00  0.00    +0.000 A 
ATOM     12  C   UNL     1       6.298   5.308  19.066  0.00  0.00    +0.000 A 
ENDBRANCH   6   7
BRANCH   1  13
ATOM     13  O   UNL     1       2.995   6.383  19.879  0.00  0.00    +0.000 OA
BRANCH  13  14
ATOM     14  C   UNL     1       2.167   7.509  19.596  0.00  0.00    +0.000 C 
BRANCH  14  15
ATOM     15  C   UNL     1       1.443   8.007  20.850  0.00  0.00    +0.000 C 
BRANCH  15  22
ATOM     16  C   UNL     1      -1.290  10.234  18.441  0.00  0.00    +0.000 C 
ATOM     17  C   UNL     1      -0.009  10.929  18.933  0.00  0.00    +0.000 C 
ATOM     18  C   UNL     1      -0.280  11.892  20.096  0.00  0.00    +0.000 C 
ATOM     19  C   UNL     1      -0.717  11.125  21.348  0.00  0.00    +0.000 C 
ATOM     20  C   UNL     1      -0.918  12.076  22.527  0.00  0.00    +0.000 C 
ATOM     21  C   UNL     1       0.304  10.021  21.687  0.00  0.00    +0.000 C 
ATOM     22  N   UNL     1       0.558   9.140  20.534  0.00  0.00    +0.000 NA
ATOM     23  C   UNL     1       1.043   9.896  19.372  0.00  0.00    +0.000 C 
ENDBRANCH  15  22
ENDBRANCH  14  15
ENDBRANCH  13  14
ENDBRANCH   1  13
TORSDOF 5
ENDMDL
MODEL 8
REMARK VINA RESULT:      -7.7      1.226      1.735
REMARK  Name = 
REMARK  7 active torsions:
REMARK  status: ('A' for Active; 'I' for Inactive)
REMARK    1  A    between atoms: C_1  and  C_2
REMARK    2  A    between atoms: C_4  and  C_5
REMARK    3  A    between atoms: N_7  and  C_8
REMARK    4  A    between atoms: C_8  and  C_9
REMARK    5  A    between atoms: C_9  and  O_10
REMARK    6  A    between atoms: O_10  and  C_11
REMARK    7  A    between atoms: C_16  and  C_17
REMARK                            x       y       z     vdW  Elec       q    Type
REMARK                         _______ _______ _______ _____ _____    ______ ____
ROOT
ATOM      1  C   UNL     1       3.544   6.584  17.790  0.00  0.00    +0.000 A 
ATOM      2  C   UNL     1       4.415   7.133  16.822  0.00  0.00    +0.000 A 
ATOM      3  C   UNL     1       5.186   6.317  16.001  0.00  0.00    +0.000 A 
ATOM      4  C   UNL     1       5.131   4.945  16.161  0.00  0.00    +0.000 A 
ATOM      5  C   UNL     1       4.317   4.394  17.154  0.00  0.00    +0.000 A 
ATOM      6  C   UNL     1       3.488   5.184  17.989  0.00  0.00    +0.000 A 
ENDROOT
BRANCH   6   7
ATOM      7  C   UNL     1       2.620   4.492  18.992  0.00  0.00    +0.000 A 
ATOM      8  C   UNL     1       2.854   4.557  20.377  0.00  0.00    +0.000 A 
ATOM      9  C   UNL     1       2.050   3.864  21.293  0.00  0.00    +0.000 A 
ATOM     10  C   UNL     1       0.998   3.070  20.847  0.00  0.00    +0.000 A 
ATOM     11  C   UNL     1       0.736   2.985  19.487  0.00  0.00    +0.000 A 
ATOM     12  C   UNL     1       1.528   3.700  18.579  0.00  0.00    +0.000 A 
ENDBRANCH   6   7
BRANCH   1  13
ATOM     13  O   UNL     1       2.743   7.403  18.569  0.00  0.00    +0.000 OA
BRANCH  13  14
ATOM     14  C   UNL     1       1.927   8.299  17.817  0.00  0.00    +0.000 C 
BRANCH  14  15
ATOM     15  C   UNL     1       2.204   9.760  18.184  0.00  0.00    +0.000 C 
BRANCH  15  22
ATOM     16  C   UNL     1      -0.144  13.306  18.550  0.00  0.00    +0.000 C 
ATOM     17  C   UNL     1      -0.383  12.161  19.548  0.00  0.00    +0.000 C 
ATOM     18  C   UNL     1      -1.659  11.372  19.234  0.00  0.00    +0.000 C 
ATOM     19  C   UNL     1      -1.516  10.607  17.915  0.00  0.00    +0.000 C 
ATOM     20  C   UNL     1      -2.760   9.764  17.637  0.00  0.00    +0.000 C 
ATOM     21  C   UNL     1      -0.243   9.739  17.930  0.00  0.00    +0.000 C 
ATOM     22  N   UNL     1       0.953  10.530  18.268  0.00  0.00    +0.000 NA
ATOM     23  C   UNL     1       0.813  11.194  19.570  0.00  0.00    +0.000 C 
ENDBRANCH  15  22
ENDBRANCH  14  15
ENDBRANCH  13  14
ENDBRANCH   1  13
TORSDOF 5
ENDMDL
MODEL 9
REMARK VINA RESULT:      -7.6      0.789      1.978
REMARK  Name = 
REMARK  7 active torsions:
REMARK  status: ('A' for Active; 'I' for Inactive)
REMARK    1  A    between atoms: C_1  and  C_2
REMARK    2  A    between atoms: C_4  and  C_5
REMARK    3  A    between atoms: N_7  and  C_8
REMARK    4  A    between atoms: C_8  and  C_9
REMARK    5  A    between atoms: C_9  and  O_10
REMARK    6  A    between atoms: O_10  and  C_11
REMARK    7  A    between atoms: C_16  and  C_17
REMARK                            x       y       z     vdW  Elec       q    Type
REMARK                         _______ _______ _______ _____ _____    ______ ____
ROOT
ATOM      1  C   UNL     1       3.995   6.019  17.666  0.00  0.00    +0.000 A 
ATOM      2  C   UNL     1       4.842   6.548  16.667  0.00  0.00    +0.000 A 
ATOM      3  C   UNL     1       5.401   5.732  15.688  0.00  0.00    +0.000 A 
ATOM      4  C   UNL     1       5.157   4.371  15.717  0.00  0.00    +0.000 A 
ATOM      5  C   UNL     1       4.367   3.829  16.736  0.00  0.00    +0.000 A 
ATOM      6  C   UNL     1       3.750   4.627  17.731  0.00  0.00    +0.000 A 
ENDROOT
BRANCH   6   7
ATOM      7  C   UNL     1       2.887   3.952  18.751  0.00  0.00    +0.000 A 
ATOM      8  C   UNL     1       1.521   3.692  18.543  0.00  0.00    +0.000 A 
ATOM      9  C   UNL     1       0.726   3.097  19.532  0.00  0.00    +0.000 A 
ATOM     10  C   UNL     1       1.271   2.762  20.768  0.00  0.00    +0.000 A 
ATOM     11  C   UNL     1       2.617   3.002  21.007  0.00  0.00    +0.000 A 
ATOM     12  C   UNL     1       3.412   3.574  20.005  0.00  0.00    +0.000 A 
ENDBRANCH   6   7
BRANCH   1  13
ATOM     13  O   UNL     1       3.403   6.847  18.605  0.00  0.00    +0.000 OA
BRANCH  13  14
ATOM     14  C   UNL     1       2.174   7.427  18.173  0.00  0.00    +0.000 C 
BRANCH  14  15
ATOM     15  C   UNL     1       2.340   8.907  17.821  0.00  0.00    +0.000 C 
BRANCH  15  22
ATOM     16  C   UNL     1       1.008  11.727  20.736  0.00  0.00    +0.000 C 
ATOM     17  C   UNL     1       0.331  10.348  20.686  0.00  0.00    +0.000 C 
ATOM     18  C   UNL     1      -1.053  10.402  20.029  0.00  0.00    +0.000 C 
ATOM     19  C   UNL     1      -0.937  10.745  18.541  0.00  0.00    +0.000 C 
ATOM     20  C   UNL     1      -2.309  10.730  17.870  0.00  0.00    +0.000 C 
ATOM     21  C   UNL     1       0.039   9.780  17.840  0.00  0.00    +0.000 C 
ATOM     22  N   UNL     1       1.344   9.733  18.523  0.00  0.00    +0.000 NA
ATOM     23  C   UNL     1       1.206   9.334  19.929  0.00  0.00    +0.000 C 
ENDBRANCH  15  22
ENDBRANCH  14  15
ENDBRANCH  13  14
ENDBRANCH   1  13
TORSDOF 5
ENDMDL
