MODEL 1
REMARK VINA RESULT:      -8.2      0.000      0.000
REMARK  Name = 
REMARK  7 active torsions:
REMARK  status: ('A' for Active; 'I' for Inactive)
REMARK    1  A    between atoms: C_1  and  C_2
REMARK    2  A    between atoms: C_7  and  C_8
REMARK    3  A    between atoms: C_8  and  N_9
REMARK    4  A    between atoms: C_14  and  C_15
REMARK    5  A    between atoms: C_15  and  C_16
REMARK    6  A    between atoms: C_16  and  N_17
REMARK    7  A    between atoms: C_21  and  C_22
REMARK                            x       y       z     vdW  Elec       q    Type
REMARK                         _______ _______ _______ _____ _____    ______ ____
ROOT
ATOM      1  N   UNL     1       3.579   3.564  18.861  0.00  0.00    +0.000 NA
ATOM      2  C   UNL     1       3.230   2.269  19.436  0.00  0.00    +0.000 C 
ATOM      3  C   UNL     1       1.785   1.792  19.316  0.00  0.00    +0.000 C 
ATOM      4  C   UNL     1       0.786   2.926  19.419  0.00  0.00    +0.000 C 
ATOM      5  C   UNL     1       1.166   4.033  18.446  0.00  0.00    +0.000 C 
ATOM      6  C   UNL     1       2.578   4.625  18.708  0.00  0.00    +0.000 C 
ENDROOT
BRANCH   1   7
ATOM      7  C   UNL     1       4.953   3.962  19.188  0.00  0.00    +0.000 C 
BRANCH   7  14
ATOM      8  C   UNL     1       7.487   5.807  19.308  0.00  0.00    +0.000 C 
ATOM      9  C   UNL     1       6.916   5.239  18.036  0.00  0.00    +0.000 A 
ATOM     10  C   UNL     1       7.576   5.558  16.833  0.00  0.00    +0.000 A 
ATOM     11  C   UNL     1       7.050   5.090  15.637  0.00  0.00    +0.000 A 
ATOM     12  C   UNL     1       5.906   4.347  15.615  0.00  0.00    +0.000 A 
ATOM     13  C   UNL     1       5.253   3.971  16.750  0.00  0.00    +0.000 A 
ATOM     14  C   UNL     1       5.768   4.395  17.997  0.00  0.00    +0.000 A 
ATOM     15  O   UNL     1       5.533   4.015  14.357  0.00  0.00    +0.000 OA
ATOM     16  C   UNL     1       6.656   4.490  13.611  0.00  0.00    +0.000 C 
ATOM     17  O   UNL     1       7.550   5.309  14.396  0.00  0.00    +0.000 OA
ENDBRANCH   7  14
ENDBRANCH   1   7
BRANCH   6  18
ATOM     18  C   UNL     1       2.465   5.779  19.752  0.00  0.00    +0.000 C 
BRANCH  18  19
ATOM     19  C   UNL     1       2.636   7.220  19.244  0.00  0.00    +0.000 C 
BRANCH  19  20
ATOM     20  N   UNL     1       1.727   8.167  19.886  0.00  0.00    +0.000 N 
ATOM     21  C   UNL     1       1.177   8.018  21.130  0.00  0.00    +0.000 A 
ATOM     22  C   UNL     1       0.369   9.117  21.296  0.00  0.00    +0.000 A 
ATOM     23  N   UNL     1       0.385   9.902  20.177  0.00  0.00    +0.000 NA
ATOM     24  C   UNL     1       1.193   9.307  19.324  0.00  0.00    +0.000 A 
ATOM     25  C   UNL     1       1.491   9.781  17.948  0.00  0.00    +0.000 C 
ENDBRANCH  19  20
ENDBRANCH  18  19
ENDBRANCH   6  18
TORSDOF 5
ENDMDL
MODEL 2
REMARK VINA RESULT:      -8.1      0.530      1.292
REMARK  Name = 
REMARK  7 active torsions:
REMARK  status: ('A' for Active; 'I' for Inactive)
REMARK    1  A    between atoms: C_1  and  C_2
REMARK    2  A    between atoms: C_7  and  C_8
REMARK    3  A    between atoms: C_8  and  N_9
REMARK    4  A    between atoms: C_14  and  C_15
REMARK    5  A    between atoms: C_15  and  C_16
REMARK    6  A    between atoms: C_16  and  N_17
REMARK    7  A    between atoms: C_21  and  C_22
REMARK                            x       y       z     vdW  Elec       q    Type
REMARK                         _______ _______ _______ _____ _____    ______ ____
ROOT
ATOM      1  N   UNL     1       3.467   3.403  18.588  0.00  0.00    +0.000 NA
ATOM      2  C   UNL     1       3.127   2.055  19.033  0.00  0.00    +0.000 C 
ATOM      3  C   UNL     1       1.700   1.560  18.813  0.00  0.00    +0.000 C 
ATOM      4  C   UNL     1       0.670   2.660  18.974  0.00  0.00    +0.000 C 
ATOM      5  C   UNL     1       1.060   3.857  18.118  0.00  0.00    +0.000 C 
ATOM      6  C   UNL     1       2.446   4.453  18.488  0.00  0.00    +0.000 C 
ENDROOT
BRANCH   1   7
ATOM      7  C   UNL     1       4.817   3.800  19.004  0.00  0.00    +0.000 C 
BRANCH   7  14
ATOM      8  C   UNL     1       7.277   5.716  19.339  0.00  0.00    +0.000 C 
ATOM      9  C   UNL     1       6.799   5.181  18.016  0.00  0.00    +0.000 A 
ATOM     10  C   UNL     1       7.516   5.565  16.866  0.00  0.00    +0.000 A 
ATOM     11  C   UNL     1       7.075   5.127  15.625  0.00  0.00    +0.000 A 
ATOM     12  C   UNL     1       5.959   4.350  15.509  0.00  0.00    +0.000 A 
ATOM     13  C   UNL     1       5.255   3.911  16.590  0.00  0.00    +0.000 A 
ATOM     14  C   UNL     1       5.683   4.303  17.879  0.00  0.00    +0.000 A 
ATOM     15  O   UNL     1       5.671   4.055  14.220  0.00  0.00    +0.000 OA
ATOM     16  C   UNL     1       6.818   4.592  13.559  0.00  0.00    +0.000 C 
ATOM     17  O   UNL     1       7.638   5.409  14.424  0.00  0.00    +0.000 OA
ENDBRANCH   7  14
ENDBRANCH   1   7
BRANCH   6  18
ATOM     18  C   UNL     1       2.265   5.507  19.624  0.00  0.00    +0.000 C 
BRANCH  18  19
ATOM     19  C   UNL     1       3.016   6.842  19.485  0.00  0.00    +0.000 C 
BRANCH  19  20
ATOM     20  N   UNL     1       2.146   7.954  19.113  0.00  0.00    +0.000 N 
ATOM     21  C   UNL     1       2.040   8.493  17.859  0.00  0.00    +0.000 A 
ATOM     22  C   UNL     1       1.146   9.527  17.990  0.00  0.00    +0.000 A 
ATOM     23  N   UNL     1       0.740   9.655  19.289  0.00  0.00    +0.000 NA
ATOM     24  C   UNL     1       1.368   8.712  19.962  0.00  0.00    +0.000 A 
ATOM     25  C   UNL     1       1.265   8.489  21.427  0.00  0.00    +0.000 C 
ENDBRANCH  19  20
ENDBRANCH  18  19
ENDBRANCH   6  18
TORSDOF 5
ENDMDL
MODEL 3
REMARK VINA RESULT:      -8.0      0.925      1.314
REMARK  Name = 
REMARK  7 active torsions:
REMARK  status: ('A' for Active; 'I' for Inactive)
REMARK    1  A    between atoms: C_1  and  C_2
REMARK    2  A    between atoms: C_7  and  C_8
REMARK    3  A    between atoms: C_8  and  N_9
REMARK    4  A    between atoms: C_14  and  C_15
REMARK    5  A    between atoms: C_15  and  C_16
REMARK    6  A    between atoms: C_16  and  N_17
REMARK    7  A    between atoms: C_21  and  C_22
REMARK                            x       y       z     vdW  Elec       q    Type
REMARK                         _______ _______ _______ _____ _____    ______ ____
ROOT
ATOM      1  N   UNL     1       3.374   3.481  18.712  0.00  0.00    +0.000 NA
ATOM      2  C   UNL     1       3.152   2.083  19.067  0.00  0.00    +0.000 C 
ATOM      3  C   UNL     1       1.770   1.485  18.816  0.00  0.00    +0.000 C 
ATOM      4  C   UNL     1       0.652   2.481  19.052  0.00  0.00    +0.000 C 
ATOM      5  C   UNL     1       0.935   3.761  18.277  0.00  0.00    +0.000 C 
ATOM      6  C   UNL     1       2.268   4.445  18.685  0.00  0.00    +0.000 C 
ENDROOT
BRANCH   1   7
ATOM      7  C   UNL     1       4.688   3.962  19.152  0.00  0.00    +0.000 C 
BRANCH   7  14
ATOM      8  C   UNL     1       7.291   5.680  19.482  0.00  0.00    +0.000 C 
ATOM      9  C   UNL     1       6.777   5.173  18.161  0.00  0.00    +0.000 A 
ATOM     10  C   UNL     1       7.526   5.491  17.011  0.00  0.00    +0.000 A 
ATOM     11  C   UNL     1       7.056   5.078  15.772  0.00  0.00    +0.000 A 
ATOM     12  C   UNL     1       5.883   4.391  15.658  0.00  0.00    +0.000 A 
ATOM     13  C   UNL     1       5.142   4.018  16.739  0.00  0.00    +0.000 A 
ATOM     14  C   UNL     1       5.596   4.386  18.027  0.00  0.00    +0.000 A 
ATOM     15  O   UNL     1       5.576   4.110  14.370  0.00  0.00    +0.000 OA
ATOM     16  C   UNL     1       6.764   4.549  13.710  0.00  0.00    +0.000 C 
ATOM     17  O   UNL     1       7.643   5.305  14.571  0.00  0.00    +0.000 OA
ENDBRANCH   7  14
ENDBRANCH   1   7
BRANCH   6  18
ATOM     18  C   UNL     1       2.006   5.403  19.888  0.00  0.00    +0.000 C 
BRANCH  18  19
ATOM     19  C   UNL     1       2.872   6.669  19.994  0.00  0.00    +0.000 C 
BRANCH  19  20
ATOM     20  N   UNL     1       2.361   7.783  19.198  0.00  0.00    +0.000 N 
ATOM     21  C   UNL     1       1.330   8.607  19.560  0.00  0.00    +0.000 A 
ATOM     22  C   UNL     1       1.176   9.469  18.502  0.00  0.00    +0.000 A 
ATOM     23  N   UNL     1       2.053   9.166  17.498  0.00  0.00    +0.000 NA
ATOM     24  C   UNL     1       2.750   8.131  17.923  0.00  0.00    +0.000 A 
ATOM     25  C   UNL     1       3.803   7.428  17.147  0.00  0.00    +0.000 C 
ENDBRANCH  19  20
ENDBRANCH  18  19
ENDBRANCH   6  18
TORSDOF 5
ENDMDL
MODEL 4
REMARK VINA RESULT:      -7.8      3.231      6.363
REMARK  Name = 
REMARK  7 active torsions:
REMARK  status: ('A' for Active; 'I' for Inactive)
REMARK    1  A    between atoms: C_1  and  C_2
REMARK    2  A    between atoms: C_7  and  C_8
REMARK    3  A    between atoms: C_8  and  N_9
REMARK    4  A    between atoms: C_14  and  C_15
REMARK    5  A    between atoms: C_15  and  C_16
REMARK    6  A    between atoms: C_16  and  N_17
REMARK    7  A    between atoms: C_21  and  C_22
REMARK                            x       y       z     vdW  Elec       q    Type
REMARK                         _______ _______ _______ _____ _____    ______ ____
ROOT
ATOM      1  N   UNL     1       2.879   4.424  19.759  0.00  0.00    +0.000 NA
ATOM      2  C   UNL     1       1.466   4.586  20.085  0.00  0.00    +0.000 C 
ATOM      3  C   UNL     1       0.547   3.377  19.934  0.00  0.00    +0.000 C 
ATOM      4  C   UNL     1       0.926   2.501  18.756  0.00  0.00    +0.000 C 
ATOM      5  C   UNL     1       2.408   2.161  18.826  0.00  0.00    +0.000 C 
ATOM      6  C   UNL     1       3.328   3.411  18.797  0.00  0.00    +0.000 C 
ENDROOT
BRANCH   1   7
ATOM      7  C   UNL     1       3.606   5.699  19.798  0.00  0.00    +0.000 C 
BRANCH   7  14
ATOM      8  C   UNL     1       3.710   7.169  17.030  0.00  0.00    +0.000 C 
ATOM      9  C   UNL     1       2.814   7.577  18.168  0.00  0.00    +0.000 A 
ATOM     10  C   UNL     1       1.968   8.685  17.960  0.00  0.00    +0.000 A 
ATOM     11  C   UNL     1       1.162   9.116  19.004  0.00  0.00    +0.000 A 
ATOM     12  C   UNL     1       1.192   8.495  20.219  0.00  0.00    +0.000 A 
ATOM     13  C   UNL     1       1.956   7.393  20.461  0.00  0.00    +0.000 A 
ATOM     14  C   UNL     1       2.771   6.894  19.419  0.00  0.00    +0.000 A 
ATOM     15  O   UNL     1       0.365   9.080  21.115  0.00  0.00    +0.000 OA
ATOM     16  C   UNL     1      -0.306  10.028  20.282  0.00  0.00    +0.000 C 
ATOM     17  O   UNL     1       0.302  10.164  18.979  0.00  0.00    +0.000 OA
ENDBRANCH   7  14
ENDBRANCH   1   7
BRANCH   6  18
ATOM     18  C   UNL     1       3.633   3.789  17.315  0.00  0.00    +0.000 C 
BRANCH  18  19
ATOM     19  C   UNL     1       4.989   3.356  16.732  0.00  0.00    +0.000 C 
BRANCH  19  20
ATOM     20  N   UNL     1       6.013   4.394  16.827  0.00  0.00    +0.000 N 
ATOM     21  C   UNL     1       6.485   4.937  17.991  0.00  0.00    +0.000 A 
ATOM     22  C   UNL     1       7.394   5.888  17.597  0.00  0.00    +0.000 A 
ATOM     23  N   UNL     1       7.456   5.963  16.234  0.00  0.00    +0.000 NA
ATOM     24  C   UNL     1       6.601   5.070  15.779  0.00  0.00    +0.000 A 
ATOM     25  C   UNL     1       6.300   4.819  14.347  0.00  0.00    +0.000 C 
ENDBRANCH  19  20
ENDBRANCH  18  19
ENDBRANCH   6  18
TORSDOF 5
ENDMDL
MODEL 5
REMARK VINA RESULT:      -7.5      3.630      7.276
REMARK  Name = 
REMARK  7 active torsions:
REMARK  status: ('A' for Active; 'I' for Inactive)
REMARK    1  A    between atoms: C_1  and  C_2
REMARK    2  A    between atoms: C_7  and  C_8
REMARK    3  A    between atoms: C_8  and  N_9
REMARK    4  A    between atoms: C_14  and  C_15
REMARK    5  A    between atoms: C_15  and  C_16
REMARK    6  A    between atoms: C_16  and  N_17
REMARK    7  A    between atoms: C_21  and  C_22
REMARK                            x       y       z     vdW  Elec       q    Type
REMARK                         _______ _______ _______ _____ _____    ______ ____
ROOT
ATOM      1  N   UNL     1       2.513   5.474  19.885  0.00  0.00    +0.000 NA
ATOM      2  C   UNL     1       1.121   5.045  19.793  0.00  0.00    +0.000 C 
ATOM      3  C   UNL     1       0.758   3.658  20.317  0.00  0.00    +0.000 C 
ATOM      4  C   UNL     1       1.851   2.638  20.073  0.00  0.00    +0.000 C 
ATOM      5  C   UNL     1       3.179   3.176  20.587  0.00  0.00    +0.000 C 
ATOM      6  C   UNL     1       3.611   4.502  19.903  0.00  0.00    +0.000 C 
ENDROOT
BRANCH   1   7
ATOM      7  C   UNL     1       2.744   6.754  19.205  0.00  0.00    +0.000 C 
BRANCH   7  14
ATOM      8  C   UNL     1       1.788   9.216  17.514  0.00  0.00    +0.000 C 
ATOM      9  C   UNL     1       1.465   9.017  18.971  0.00  0.00    +0.000 A 
ATOM     10  C   UNL     1       0.677  10.002  19.599  0.00  0.00    +0.000 A 
ATOM     11  C   UNL     1       0.400   9.873  20.953  0.00  0.00    +0.000 A 
ATOM     12  C   UNL     1       0.890   8.823  21.675  0.00  0.00    +0.000 A 
ATOM     13  C   UNL     1       1.618   7.820  21.109  0.00  0.00    +0.000 A 
ATOM     14  C   UNL     1       1.900   7.888  19.726  0.00  0.00    +0.000 A 
ATOM     15  O   UNL     1       0.542   8.892  22.980  0.00  0.00    +0.000 OA
ATOM     16  C   UNL     1      -0.353  10.005  22.961  0.00  0.00    +0.000 C 
ATOM     17  O   UNL     1      -0.329  10.728  21.711  0.00  0.00    +0.000 OA
ENDBRANCH   7  14
ENDBRANCH   1   7
BRANCH   6  18
ATOM     18  C   UNL     1       4.413   4.172  18.606  0.00  0.00    +0.000 C 
BRANCH  18  19
ATOM     19  C   UNL     1       5.901   4.557  18.569  0.00  0.00    +0.000 C 
BRANCH  19  20
ATOM     20  N   UNL     1       6.387   4.845  17.222  0.00  0.00    +0.000 N 
ATOM     21  C   UNL     1       6.272   4.011  16.143  0.00  0.00    +0.000 A 
ATOM     22  C   UNL     1       6.896   4.671  15.114  0.00  0.00    +0.000 A 
ATOM     23  N   UNL     1       7.418   5.858  15.546  0.00  0.00    +0.000 NA
ATOM     24  C   UNL     1       7.122   5.942  16.827  0.00  0.00    +0.000 A 
ATOM     25  C   UNL     1       7.520   7.052  17.730  0.00  0.00    +0.000 C 
ENDBRANCH  19  20
ENDBRANCH  18  19
ENDBRANCH   6  18
TORSDOF 5
ENDMDL
MODEL 6
REMARK VINA RESULT:      -7.5      1.292      1.443
REMARK  Name = 
REMARK  7 active torsions:
REMARK  status: ('A' for Active; 'I' for Inactive)
REMARK    1  A    between atoms: C_1  and  C_2
REMARK    2  A    between atoms: C_7  and  C_8
REMARK    3  A    between atoms: C_8  and  N_9
REMARK    4  A    between atoms: C_14  and  C_15
REMARK    5  A    between atoms: C_15  and  C_16
REMARK    6  A    between atoms: C_16  and  N_17
REMARK    7  A    between atoms: C_21  and  C_22
REMARK                            x       y       z     vdW  Elec       q    Type
REMARK                         _______ _______ _______ _____ _____    ______ ____
ROOT
ATOM      1  N   UNL     1       3.323   4.900  19.515  0.00  0.00    +0.000 NA
ATOM      2  C   UNL     1       3.795   3.706  20.208  0.00  0.00    +0.000 C 
ATOM      3  C   UNL     1       2.760   2.683  20.669  0.00  0.00    +0.000 C 
ATOM      4  C   UNL     1       1.468   3.328  21.130  0.00  0.00    +0.000 C 
ATOM      5  C   UNL     1       0.968   4.291  20.063  0.00  0.00    +0.000 C 
ATOM      6  C   UNL     1       1.974   5.431  19.743  0.00  0.00    +0.000 C 
ENDROOT
BRANCH   1   7
ATOM      7  C   UNL     1       4.404   5.863  19.274  0.00  0.00    +0.000 C 
BRANCH   7  14
ATOM      8  C   UNL     1       7.518   5.647  19.575  0.00  0.00    +0.000 C 
ATOM      9  C   UNL     1       6.773   5.362  18.299  0.00  0.00    +0.000 A 
ATOM     10  C   UNL     1       7.533   4.966  17.181  0.00  0.00    +0.000 A 
ATOM     11  C   UNL     1       6.882   4.741  15.976  0.00  0.00    +0.000 A 
ATOM     12  C   UNL     1       5.533   4.911  15.862  0.00  0.00    +0.000 A 
ATOM     13  C   UNL     1       4.744   5.248  16.920  0.00  0.00    +0.000 A 
ATOM     14  C   UNL     1       5.355   5.457  18.178  0.00  0.00    +0.000 A 
ATOM     15  O   UNL     1       5.091   4.679  14.604  0.00  0.00    +0.000 OA
ATOM     16  C   UNL     1       6.282   4.185  13.989  0.00  0.00    +0.000 C 
ATOM     17  O   UNL     1       7.458   4.367  14.807  0.00  0.00    +0.000 OA
ENDBRANCH   7  14
ENDBRANCH   1   7
BRANCH   6  18
ATOM     18  C   UNL     1       1.733   6.619  20.724  0.00  0.00    +0.000 C 
BRANCH  18  19
ATOM     19  C   UNL     1       1.561   8.022  20.117  0.00  0.00    +0.000 C 
BRANCH  19  20
ATOM     20  N   UNL     1       0.982   8.985  21.051  0.00  0.00    +0.000 N 
ATOM     21  C   UNL     1       0.495   8.687  22.295  0.00  0.00    +0.000 A 
ATOM     22  C   UNL     1       0.024   9.879  22.787  0.00  0.00    +0.000 A 
ATOM     23  N   UNL     1       0.175  10.877  21.865  0.00  0.00    +0.000 NA
ATOM     24  C   UNL     1       0.736  10.319  20.812  0.00  0.00    +0.000 A 
ATOM     25  C   UNL     1       1.059  11.016  19.541  0.00  0.00    +0.000 C 
ENDBRANCH  19  20
ENDBRANCH  18  19
ENDBRANCH   6  18
TORSDOF 5
ENDMDL
MODEL 7
REMARK VINA RESULT:      -7.5      3.229      6.594
REMARK  Name = 
REMARK  7 active torsions:
REMARK  status: ('A' for Active; 'I' for Inactive)
REMARK    1  A    between atoms: C_1  and  C_2
REMARK    2  A    between atoms: C_7  and  C_8
REMARK    3  A    between atoms: C_8  and  N_9
REMARK    4  A    between atoms: C_14  and  C_15
REMARK    5  A    between atoms: C_15  and  C_16
REMARK    6  A    between atoms: C_16  and  N_17
REMARK    7  A    between atoms: C_21  and  C_22
REMARK                            x       y       z     vdW  Elec       q    Type
REMARK                         _______ _______ _______ _____ _____    ______ ____
ROOT
ATOM      1  N   UNL     1       2.845   4.539  19.858  0.00  0.00    +0.000 NA
ATOM      2  C   UNL     1       1.392   4.666  19.807  0.00  0.00    +0.000 C 
ATOM      3  C   UNL     1       0.567   3.412  19.530  0.00  0.00    +0.000 C 
ATOM      4  C   UNL     1       1.249   2.468  18.561  0.00  0.00    +0.000 C 
ATOM      5  C   UNL     1       2.672   2.195  19.027  0.00  0.00    +0.000 C 
ATOM      6  C   UNL     1       3.544   3.477  19.126  0.00  0.00    +0.000 C 
ENDROOT
BRANCH   1   7
ATOM      7  C   UNL     1       3.511   5.842  19.973  0.00  0.00    +0.000 C 
BRANCH   7  14
ATOM      8  C   UNL     1       3.691   7.072  17.094  0.00  0.00    +0.000 C 
ATOM      9  C   UNL     1       2.764   7.574  18.169  0.00  0.00    +0.000 A 
ATOM     10  C   UNL     1       1.924   8.658  17.845  0.00  0.00    +0.000 A 
ATOM     11  C   UNL     1       1.091   9.175  18.827  0.00  0.00    +0.000 A 
ATOM     12  C   UNL     1       1.088   8.659  20.091  0.00  0.00    +0.000 A 
ATOM     13  C   UNL     1       1.845   7.583  20.446  0.00  0.00    +0.000 A 
ATOM     14  C   UNL     1       2.687   6.999  19.472  0.00  0.00    +0.000 A 
ATOM     15  O   UNL     1       0.237   9.317  20.912  0.00  0.00    +0.000 OA
ATOM     16  C   UNL     1      -0.410  10.190  19.983  0.00  0.00    +0.000 C 
ATOM     17  O   UNL     1       0.232  10.215  18.690  0.00  0.00    +0.000 OA
ENDBRANCH   7  14
ENDBRANCH   1   7
BRANCH   6  18
ATOM     18  C   UNL     1       4.205   3.757  17.741  0.00  0.00    +0.000 C 
BRANCH  18  19
ATOM     19  C   UNL     1       5.740   3.702  17.659  0.00  0.00    +0.000 C 
BRANCH  19  20
ATOM     20  N   UNL     1       6.270   4.292  16.432  0.00  0.00    +0.000 N 
ATOM     21  C   UNL     1       6.194   3.732  15.186  0.00  0.00    +0.000 A 
ATOM     22  C   UNL     1       6.852   4.609  14.360  0.00  0.00    +0.000 A 
ATOM     23  N   UNL     1       7.356   5.661  15.074  0.00  0.00    +0.000 NA
ATOM     24  C   UNL     1       7.016   5.447  16.328  0.00  0.00    +0.000 A 
ATOM     25  C   UNL     1       7.381   6.314  17.477  0.00  0.00    +0.000 C 
ENDBRANCH  19  20
ENDBRANCH  18  19
ENDBRANCH   6  18
TORSDOF 5
ENDMDL
MODEL 8
REMARK VINA RESULT:      -7.4      3.550      6.904
REMARK  Name = 
REMARK  7 active torsions:
REMARK  status: ('A' for Active; 'I' for Inactive)
REMARK    1  A    between atoms: C_1  and  C_2
REMARK    2  A    between atoms: C_7  and  C_8
REMARK    3  A    between atoms: C_8  and  N_9
REMARK    4  A    between atoms: C_14  and  C_15
REMARK    5  A    between atoms: C_15  and  C_16
REMARK    6  A    between atoms: C_16  and  N_17
REMARK    7  A    between atoms: C_21  and  C_22
REMARK                            x       y       z     vdW  Elec       q    Type
REMARK                         _______ _______ _______ _____ _____    ______ ____
ROOT
ATOM      1  N   UNL     1       2.509   5.238  19.292  0.00  0.00    +0.000 NA
ATOM      2  C   UNL     1       1.632   5.047  18.141  0.00  0.00    +0.000 C 
ATOM      3  C   UNL     1       1.063   3.653  17.891  0.00  0.00    +0.000 C 
ATOM      4  C   UNL     1       2.039   2.552  18.252  0.00  0.00    +0.000 C 
ATOM      5  C   UNL     1       2.562   2.773  19.664  0.00  0.00    +0.000 C 
ATOM      6  C   UNL     1       3.298   4.130  19.842  0.00  0.00    +0.000 C 
ENDROOT
BRANCH   1   7
ATOM      7  C   UNL     1       3.104   6.579  19.318  0.00  0.00    +0.000 C 
BRANCH   7  14
ATOM      8  C   UNL     1       2.202   8.899  17.410  0.00  0.00    +0.000 C 
ATOM      9  C   UNL     1       1.723   8.739  18.828  0.00  0.00    +0.000 A 
ATOM     10  C   UNL     1       0.806   9.693  19.313  0.00  0.00    +0.000 A 
ATOM     11  C   UNL     1       0.380   9.602  20.630  0.00  0.00    +0.000 A 
ATOM     12  C   UNL     1       0.846   8.619  21.454  0.00  0.00    +0.000 A 
ATOM     13  C   UNL     1       1.697   7.645  21.026  0.00  0.00    +0.000 A 
ATOM     14  C   UNL     1       2.135   7.674  19.682  0.00  0.00    +0.000 A 
ATOM     15  O   UNL     1       0.343   8.718  22.706  0.00  0.00    +0.000 OA
ATOM     16  C   UNL     1      -0.612   9.766  22.529  0.00  0.00    +0.000 C 
ATOM     17  O   UNL     1      -0.486  10.436  21.256  0.00  0.00    +0.000 OA
ENDBRANCH   7  14
ENDBRANCH   1   7
BRANCH   6  18
ATOM     18  C   UNL     1       4.801   3.951  19.468  0.00  0.00    +0.000 C 
BRANCH  18  19
ATOM     19  C   UNL     1       5.188   4.077  17.985  0.00  0.00    +0.000 C 
BRANCH  19  20
ATOM     20  N   UNL     1       6.185   5.115  17.737  0.00  0.00    +0.000 N 
ATOM     21  C   UNL     1       6.900   5.773  18.701  0.00  0.00    +0.000 A 
ATOM     22  C   UNL     1       7.676   6.676  18.015  0.00  0.00    +0.000 A 
ATOM     23  N   UNL     1       7.421   6.611  16.674  0.00  0.00    +0.000 NA
ATOM     24  C   UNL     1       6.503   5.679  16.520  0.00  0.00    +0.000 A 
ATOM     25  C   UNL     1       5.887   5.285  15.228  0.00  0.00    +0.000 C 
ENDBRANCH  19  20
ENDBRANCH  18  19
ENDBRANCH   6  18
TORSDOF 5
ENDMDL
MODEL 9
REMARK VINA RESULT:      -7.4      0.940      1.512
REMARK  Name = 
REMARK  7 active torsions:
REMARK  status: ('A' for Active; 'I' for Inactive)
REMARK    1  A    between atoms: C_1  and  C_2
REMARK    2  A    between atoms: C_7  and  C_8
REMARK    3  A    between atoms: C_8  and  N_9
REMARK    4  A    between atoms: C_14  and  C_15
REMARK    5  A    between atoms: C_15  and  C_16
REMARK    6  A    between atoms: C_16  and  N_17
REMARK    7  A    between atoms: C_21  and  C_22
REMARK                            x       y       z     vdW  Elec       q    Type
REMARK                         _______ _______ _______ _____ _____    ______ ____
ROOT
ATOM      1  N   UNL     1       3.495   3.561  18.861  0.00  0.00    +0.000 NA
ATOM      2  C   UNL     1       3.232   2.138  19.048  0.00  0.00    +0.000 C 
ATOM      3  C   UNL     1       1.798   1.642  18.882  0.00  0.00    +0.000 C 
ATOM      4  C   UNL     1       0.774   2.642  19.379  0.00  0.00    +0.000 C 
ATOM      5  C   UNL     1       1.044   4.004  18.755  0.00  0.00    +0.000 C 
ATOM      6  C   UNL     1       2.452   4.567  19.092  0.00  0.00    +0.000 C 
ENDROOT
BRANCH   1   7
ATOM      7  C   UNL     1       4.876   3.919  19.205  0.00  0.00    +0.000 C 
BRANCH   7  14
ATOM      8  C   UNL     1       7.423   5.741  19.384  0.00  0.00    +0.000 C 
ATOM      9  C   UNL     1       6.860   5.201  18.096  0.00  0.00    +0.000 A 
ATOM     10  C   UNL     1       7.535   5.537  16.905  0.00  0.00    +0.000 A 
ATOM     11  C   UNL     1       7.017   5.094  15.696  0.00  0.00    +0.000 A 
ATOM     12  C   UNL     1       5.867   4.361  15.649  0.00  0.00    +0.000 A 
ATOM     13  C   UNL     1       5.201   3.970  16.771  0.00  0.00    +0.000 A 
ATOM     14  C   UNL     1       5.706   4.367  18.030  0.00  0.00    +0.000 A 
ATOM     15  O   UNL     1       5.505   4.055  14.382  0.00  0.00    +0.000 OA
ATOM     16  C   UNL     1       6.638   4.534  13.656  0.00  0.00    +0.000 C 
ATOM     17  O   UNL     1       7.531   5.333  14.464  0.00  0.00    +0.000 OA
ENDBRANCH   7  14
ENDBRANCH   1   7
BRANCH   6  18
ATOM     18  C   UNL     1       2.380   5.357  20.435  0.00  0.00    +0.000 C 
BRANCH  18  19
ATOM     19  C   UNL     1       1.835   6.794  20.390  0.00  0.00    +0.000 C 
BRANCH  19  20
ATOM     20  N   UNL     1       2.226   7.519  19.184  0.00  0.00    +0.000 N 
ATOM     21  C   UNL     1       3.224   7.147  18.324  0.00  0.00    +0.000 A 
ATOM     22  C   UNL     1       3.259   8.134  17.370  0.00  0.00    +0.000 A 
ATOM     23  N   UNL     1       2.342   9.109  17.649  0.00  0.00    +0.000 NA
ATOM     24  C   UNL     1       1.739   8.736  18.759  0.00  0.00    +0.000 A 
ATOM     25  C   UNL     1       0.686   9.509  19.466  0.00  0.00    +0.000 C 
ENDBRANCH  19  20
ENDBRANCH  18  19
ENDBRANCH   6  18
TORSDOF 5
ENDMDL
