MODEL 1
REMARK VINA RESULT:      -6.9      0.000      0.000
REMARK  Name = 
REMARK  5 active torsions:
REMARK  status: ('A' for Active; 'I' for Inactive)
REMARK    1  A    between atoms: C_1  and  O_2
REMARK    2  A    between atoms: O_2  and  C_3
REMARK    3  A    between atoms: C_3  and  C_4
REMARK    4  A    between atoms: C_9  and  C_10
REMARK    5  A    between atoms: C_10  and  N_11
REMARK                            x       y       z     vdW  Elec       q    Type
REMARK                         _______ _______ _______ _____ _____    ______ ____
ROOT
ATOM      1  C   UNL     1       5.433   5.336  16.864  0.00  0.00    +0.000 A 
ATOM      2  C   UNL     1       6.380   5.710  17.737  0.00  0.00    +0.000 A 
ATOM      3  C   UNL     1       6.374   5.100  19.072  0.00  0.00    +0.000 A 
ATOM      4  O   UNL     1       7.209   5.398  19.918  0.00  0.00    +0.000 OA
ATOM      5  N   UNL     1       5.384   4.192  19.286  0.00  0.00    +0.000 N 
ATOM      6  C   UNL     1       4.430   3.909  18.344  0.00  0.00    +0.000 A 
ATOM      7  N   UNL     1       4.424   4.450  17.165  0.00  0.00    +0.000 NA
ATOM      8  H   UNL     1       5.391   3.688  20.160  0.00  0.00    +0.000 HD
ENDROOT
BRANCH   6   9
ATOM      9  C   UNL     1       3.360   2.884  18.767  0.00  0.00    +0.000 C 
ATOM     10  C   UNL     1       2.055   3.005  17.966  0.00  0.00    +0.000 C 
ATOM     11  C   UNL     1       0.945   2.472  18.868  0.00  0.00    +0.000 C 
ATOM     12  C   UNL     1       1.503   2.470  20.287  0.00  0.00    +0.000 C 
ATOM     13  C   UNL     1       2.879   3.120  20.206  0.00  0.00    +0.000 C 
BRANCH   9  14
ATOM     14  N   UNL     1       3.946   1.534  18.647  0.00  0.00    +0.000 NA
ATOM     15  H   UNL     1       3.245   0.919  18.228  0.00  0.00    +0.000 HD
ATOM     16  H   UNL     1       4.111   1.148  19.578  0.00  0.00    +0.000 HD
ENDBRANCH   9  14
ENDBRANCH   6   9
BRANCH   1  17
ATOM     17  C   UNL     1       5.452   5.868  15.448  0.00  0.00    +0.000 C 
BRANCH  17  19
ATOM     18  C   UNL     1       6.434   4.237  14.058  0.00  0.00    +0.000 C 
ATOM     19  O   UNL     1       6.649   5.425  14.803  0.00  0.00    +0.000 OA
ENDBRANCH  17  19
ENDBRANCH   1  17
TORSDOF 4
ENDMDL
MODEL 2
REMARK VINA RESULT:      -6.8      1.245      1.325
REMARK  Name = 
REMARK  5 active torsions:
REMARK  status: ('A' for Active; 'I' for Inactive)
REMARK    1  A    between atoms: C_1  and  O_2
REMARK    2  A    between atoms: O_2  and  C_3
REMARK    3  A    between atoms: C_3  and  C_4
REMARK    4  A    between atoms: C_9  and  C_10
REMARK    5  A    between atoms: C_10  and  N_11
REMARK                            x       y       z     vdW  Elec       q    Type
REMARK                         _______ _______ _______ _____ _____    ______ ____
ROOT
ATOM      1  C   UNL     1       6.315   4.583  15.880  0.00  0.00    +0.000 A 
ATOM      2  C   UNL     1       7.302   4.942  16.714  0.00  0.00    +0.000 A 
ATOM      3  C   UNL     1       7.142   4.655  18.145  0.00  0.00    +0.000 A 
ATOM      4  O   UNL     1       8.004   4.959  18.961  0.00  0.00    +0.000 OA
ATOM      5  N   UNL     1       5.978   4.035  18.481  0.00  0.00    +0.000 N 
ATOM      6  C   UNL     1       5.005   3.750  17.561  0.00  0.00    +0.000 A 
ATOM      7  N   UNL     1       5.136   4.006  16.296  0.00  0.00    +0.000 NA
ATOM      8  H   UNL     1       5.862   3.746  19.441  0.00  0.00    +0.000 HD
ENDROOT
BRANCH   6   9
ATOM      9  C   UNL     1       3.735   3.080  18.121  0.00  0.00    +0.000 C 
ATOM     10  C   UNL     1       2.454   3.502  17.386  0.00  0.00    +0.000 C 
ATOM     11  C   UNL     1       1.312   3.345  18.387  0.00  0.00    +0.000 C 
ATOM     12  C   UNL     1       1.953   3.277  19.769  0.00  0.00    +0.000 C 
ATOM     13  C   UNL     1       3.443   3.524  19.562  0.00  0.00    +0.000 C 
BRANCH   9  14
ATOM     14  N   UNL     1       3.929   1.617  18.074  0.00  0.00    +0.000 NA
ATOM     15  H   UNL     1       3.675   1.292  17.139  0.00  0.00    +0.000 HD
ATOM     16  H   UNL     1       3.262   1.163  18.700  0.00  0.00    +0.000 HD
ENDBRANCH   9  14
ENDBRANCH   6   9
BRANCH   1  17
ATOM     17  C   UNL     1       6.473   4.774  14.388  0.00  0.00    +0.000 C 
BRANCH  17  19
ATOM     18  C   UNL     1       6.480   3.569  12.362  0.00  0.00    +0.000 C 
ATOM     19  O   UNL     1       6.083   3.569  13.724  0.00  0.00    +0.000 OA
ENDBRANCH  17  19
ENDBRANCH   1  17
TORSDOF 4
ENDMDL
MODEL 3
REMARK VINA RESULT:      -6.6      1.210      1.318
REMARK  Name = 
REMARK  5 active torsions:
REMARK  status: ('A' for Active; 'I' for Inactive)
REMARK    1  A    between atoms: C_1  and  O_2
REMARK    2  A    between atoms: O_2  and  C_3
REMARK    3  A    between atoms: C_3  and  C_4
REMARK    4  A    between atoms: C_9  and  C_10
REMARK    5  A    between atoms: C_10  and  N_11
REMARK                            x       y       z     vdW  Elec       q    Type
REMARK                         _______ _______ _______ _____ _____    ______ ____
ROOT
ATOM      1  C   UNL     1       6.170   4.536  16.635  0.00  0.00    +0.000 A 
ATOM      2  C   UNL     1       6.946   5.002  17.625  0.00  0.00    +0.000 A 
ATOM      3  C   UNL     1       6.404   5.009  18.989  0.00  0.00    +0.000 A 
ATOM      4  O   UNL     1       7.060   5.423  19.938  0.00  0.00    +0.000 OA
ATOM      5  N   UNL     1       5.139   4.524  19.108  0.00  0.00    +0.000 N 
ATOM      6  C   UNL     1       4.405   4.112  18.027  0.00  0.00    +0.000 A 
ATOM      7  N   UNL     1       4.874   4.110  16.818  0.00  0.00    +0.000 NA
ATOM      8  H   UNL     1       4.757   4.433  20.038  0.00  0.00    +0.000 HD
ENDROOT
BRANCH   6   9
ATOM      9  C   UNL     1       2.975   3.628  18.339  0.00  0.00    +0.000 C 
ATOM     10  C   UNL     1       2.128   4.676  19.076  0.00  0.00    +0.000 C 
ATOM     11  C   UNL     1       1.086   3.900  19.877  0.00  0.00    +0.000 C 
ATOM     12  C   UNL     1       1.588   2.463  19.967  0.00  0.00    +0.000 C 
ATOM     13  C   UNL     1       2.973   2.454  19.329  0.00  0.00    +0.000 C 
BRANCH   9  14
ATOM     14  N   UNL     1       2.343   3.217  17.069  0.00  0.00    +0.000 NA
ATOM     15  H   UNL     1       2.877   2.434  16.686  0.00  0.00    +0.000 HD
ATOM     16  H   UNL     1       2.442   3.965  16.380  0.00  0.00    +0.000 HD
ENDBRANCH   9  14
ENDBRANCH   6   9
BRANCH   1  17
ATOM     17  C   UNL     1       6.716   4.424  15.229  0.00  0.00    +0.000 C 
BRANCH  17  19
ATOM     18  C   UNL     1       6.012   3.656  13.113  0.00  0.00    +0.000 C 
ATOM     19  O   UNL     1       5.621   4.298  14.317  0.00  0.00    +0.000 OA
ENDBRANCH  17  19
ENDBRANCH   1  17
TORSDOF 4
ENDMDL
MODEL 4
REMARK VINA RESULT:      -6.6      1.528      1.812
REMARK  Name = 
REMARK  5 active torsions:
REMARK  status: ('A' for Active; 'I' for Inactive)
REMARK    1  A    between atoms: C_1  and  O_2
REMARK    2  A    between atoms: O_2  and  C_3
REMARK    3  A    between atoms: C_3  and  C_4
REMARK    4  A    between atoms: C_9  and  C_10
REMARK    5  A    between atoms: C_10  and  N_11
REMARK                            x       y       z     vdW  Elec       q    Type
REMARK                         _______ _______ _______ _____ _____    ______ ____
ROOT
ATOM      1  C   UNL     1       5.757   4.445  15.765  0.00  0.00    +0.000 A 
ATOM      2  C   UNL     1       6.958   4.596  16.342  0.00  0.00    +0.000 A 
ATOM      3  C   UNL     1       7.056   4.430  17.797  0.00  0.00    +0.000 A 
ATOM      4  O   UNL     1       8.123   4.556  18.387  0.00  0.00    +0.000 OA
ATOM      5  N   UNL     1       5.886   4.128  18.422  0.00  0.00    +0.000 N 
ATOM      6  C   UNL     1       4.695   4.041  17.751  0.00  0.00    +0.000 A 
ATOM      7  N   UNL     1       4.599   4.193  16.467  0.00  0.00    +0.000 NA
ATOM      8  H   UNL     1       5.922   3.925  19.410  0.00  0.00    +0.000 HD
ENDROOT
BRANCH   6   9
ATOM      9  C   UNL     1       3.462   3.728  18.621  0.00  0.00    +0.000 C 
ATOM     10  C   UNL     1       3.331   2.239  18.973  0.00  0.00    +0.000 C 
ATOM     11  C   UNL     1       1.844   1.981  19.204  0.00  0.00    +0.000 C 
ATOM     12  C   UNL     1       1.097   3.150  18.572  0.00  0.00    +0.000 C 
ATOM     13  C   UNL     1       2.150   4.001  17.871  0.00  0.00    +0.000 C 
BRANCH   9  14
ATOM     14  N   UNL     1       3.532   4.566  19.835  0.00  0.00    +0.000 NA
ATOM     15  H   UNL     1       2.578   4.751  20.150  0.00  0.00    +0.000 HD
ATOM     16  H   UNL     1       3.913   5.484  19.596  0.00  0.00    +0.000 HD
ENDBRANCH   9  14
ENDBRANCH   6   9
BRANCH   1  17
ATOM     17  C   UNL     1       5.621   4.516  14.260  0.00  0.00    +0.000 C 
BRANCH  17  19
ATOM     18  C   UNL     1       6.291   3.459  12.262  0.00  0.00    +0.000 C 
ATOM     19  O   UNL     1       6.420   3.485  13.675  0.00  0.00    +0.000 OA
ENDBRANCH  17  19
ENDBRANCH   1  17
TORSDOF 4
ENDMDL
MODEL 5
REMARK VINA RESULT:      -6.5      1.697      2.898
REMARK  Name = 
REMARK  5 active torsions:
REMARK  status: ('A' for Active; 'I' for Inactive)
REMARK    1  A    between atoms: C_1  and  O_2
REMARK    2  A    between atoms: O_2  and  C_3
REMARK    3  A    between atoms: C_3  and  C_4
REMARK    4  A    between atoms: C_9  and  C_10
REMARK    5  A    between atoms: C_10  and  N_11
REMARK                            x       y       z     vdW  Elec       q    Type
REMARK                         _______ _______ _______ _____ _____    ______ ____
ROOT
ATOM      1  C   UNL     1       6.754   5.451  17.436  0.00  0.00    +0.000 A 
ATOM      2  C   UNL     1       7.055   5.066  16.187  0.00  0.00    +0.000 A 
ATOM      3  C   UNL     1       6.201   4.060  15.544  0.00  0.00    +0.000 A 
ATOM      4  O   UNL     1       6.421   3.664  14.406  0.00  0.00    +0.000 OA
ATOM      5  N   UNL     1       5.163   3.616  16.304  0.00  0.00    +0.000 N 
ATOM      6  C   UNL     1       4.963   4.035  17.592  0.00  0.00    +0.000 A 
ATOM      7  N   UNL     1       5.718   4.918  18.170  0.00  0.00    +0.000 NA
ATOM      8  H   UNL     1       4.503   2.986  15.872  0.00  0.00    +0.000 HD
ENDROOT
BRANCH   6   9
ATOM      9  C   UNL     1       3.762   3.401  18.320  0.00  0.00    +0.000 C 
ATOM     10  C   UNL     1       2.464   3.447  17.499  0.00  0.00    +0.000 C 
ATOM     11  C   UNL     1       1.318   3.440  18.507  0.00  0.00    +0.000 C 
ATOM     12  C   UNL     1       1.918   3.834  19.852  0.00  0.00    +0.000 C 
ATOM     13  C   UNL     1       3.376   4.190  19.580  0.00  0.00    +0.000 C 
BRANCH   9  14
ATOM     14  N   UNL     1       4.124   2.016  18.683  0.00  0.00    +0.000 NA
ATOM     15  H   UNL     1       5.015   1.792  18.234  0.00  0.00    +0.000 HD
ATOM     16  H   UNL     1       3.451   1.368  18.271  0.00  0.00    +0.000 HD
ENDBRANCH   9  14
ENDBRANCH   6   9
BRANCH   1  17
ATOM     17  C   UNL     1       7.549   6.549  18.106  0.00  0.00    +0.000 C 
BRANCH  17  19
ATOM     18  C   UNL     1       8.043   8.840  17.848  0.00  0.00    +0.000 C 
ATOM     19  O   UNL     1       7.714   7.630  17.184  0.00  0.00    +0.000 OA
ENDBRANCH  17  19
ENDBRANCH   1  17
TORSDOF 4
ENDMDL
MODEL 6
REMARK VINA RESULT:      -6.5      2.522      5.215
REMARK  Name = 
REMARK  5 active torsions:
REMARK  status: ('A' for Active; 'I' for Inactive)
REMARK    1  A    between atoms: C_1  and  O_2
REMARK    2  A    between atoms: O_2  and  C_3
REMARK    3  A    between atoms: C_3  and  C_4
REMARK    4  A    between atoms: C_9  and  C_10
REMARK    5  A    between atoms: C_10  and  N_11
REMARK                            x       y       z     vdW  Elec       q    Type
REMARK                         _______ _______ _______ _____ _____    ______ ____
ROOT
ATOM      1  C   UNL     1       2.618   2.738  19.058  0.00  0.00    +0.000 A 
ATOM      2  C   UNL     1       3.189   2.056  20.061  0.00  0.00    +0.000 A 
ATOM      3  C   UNL     1       4.640   2.175  20.245  0.00  0.00    +0.000 A 
ATOM      4  O   UNL     1       5.225   1.577  21.141  0.00  0.00    +0.000 OA
ATOM      5  N   UNL     1       5.268   2.991  19.356  0.00  0.00    +0.000 N 
ATOM      6  C   UNL     1       4.604   3.611  18.331  0.00  0.00    +0.000 A 
ATOM      7  N   UNL     1       3.323   3.505  18.158  0.00  0.00    +0.000 NA
ATOM      8  H   UNL     1       6.253   3.166  19.495  0.00  0.00    +0.000 HD
ENDROOT
BRANCH   6   9
ATOM      9  C   UNL     1       5.477   4.468  17.394  0.00  0.00    +0.000 C 
ATOM     10  C   UNL     1       5.041   5.940  17.339  0.00  0.00    +0.000 C 
ATOM     11  C   UNL     1       5.483   6.469  15.977  0.00  0.00    +0.000 C 
ATOM     12  C   UNL     1       5.752   5.248  15.103  0.00  0.00    +0.000 C 
ATOM     13  C   UNL     1       5.338   4.034  15.928  0.00  0.00    +0.000 C 
BRANCH   9  14
ATOM     14  N   UNL     1       6.883   4.336  17.828  0.00  0.00    +0.000 NA
ATOM     15  H   UNL     1       7.478   4.394  16.999  0.00  0.00    +0.000 HD
ATOM     16  H   UNL     1       7.039   3.397  18.199  0.00  0.00    +0.000 HD
ENDBRANCH   9  14
ENDBRANCH   6   9
BRANCH   1  17
ATOM     17  C   UNL     1       1.115   2.720  18.884  0.00  0.00    +0.000 C 
BRANCH  17  19
ATOM     18  C   UNL     1       0.903   4.499  20.416  0.00  0.00    +0.000 C 
ATOM     19  O   UNL     1       0.504   3.176  20.094  0.00  0.00    +0.000 OA
ENDBRANCH  17  19
ENDBRANCH   1  17
TORSDOF 4
ENDMDL
MODEL 7
REMARK VINA RESULT:      -6.4      1.404      1.880
REMARK  Name = 
REMARK  5 active torsions:
REMARK  status: ('A' for Active; 'I' for Inactive)
REMARK    1  A    between atoms: C_1  and  O_2
REMARK    2  A    between atoms: O_2  and  C_3
REMARK    3  A    between atoms: C_3  and  C_4
REMARK    4  A    between atoms: C_9  and  C_10
REMARK    5  A    between atoms: C_10  and  N_11
REMARK                            x       y       z     vdW  Elec       q    Type
REMARK                         _______ _______ _______ _____ _____    ______ ____
ROOT
ATOM      1  C   UNL     1       6.227   4.833  16.786  0.00  0.00    +0.000 A 
ATOM      2  C   UNL     1       7.115   5.073  17.763  0.00  0.00    +0.000 A 
ATOM      3  C   UNL     1       6.618   5.196  19.139  0.00  0.00    +0.000 A 
ATOM      4  O   UNL     1       7.375   5.415  20.077  0.00  0.00    +0.000 OA
ATOM      5  N   UNL     1       5.274   5.045  19.281  0.00  0.00    +0.000 N 
ATOM      6  C   UNL     1       4.439   4.850  18.213  0.00  0.00    +0.000 A 
ATOM      7  N   UNL     1       4.869   4.748  16.994  0.00  0.00    +0.000 NA
ATOM      8  H   UNL     1       4.899   5.040  20.218  0.00  0.00    +0.000 HD
ENDROOT
BRANCH   6   9
ATOM      9  C   UNL     1       2.939   4.739  18.552  0.00  0.00    +0.000 C 
ATOM     10  C   UNL     1       2.673   4.482  20.042  0.00  0.00    +0.000 C 
ATOM     11  C   UNL     1       1.333   3.754  20.120  0.00  0.00    +0.000 C 
ATOM     12  C   UNL     1       1.054   3.206  18.724  0.00  0.00    +0.000 C 
ATOM     13  C   UNL     1       2.294   3.513  17.890  0.00  0.00    +0.000 C 
BRANCH   9  14
ATOM     14  N   UNL     1       2.271   5.972  18.087  0.00  0.00    +0.000 NA
ATOM     15  H   UNL     1       1.900   6.460  18.905  0.00  0.00    +0.000 HD
ATOM     16  H   UNL     1       1.450   5.727  17.532  0.00  0.00    +0.000 HD
ENDBRANCH   9  14
ENDBRANCH   6   9
BRANCH   1  17
ATOM     17  C   UNL     1       6.700   4.609  15.367  0.00  0.00    +0.000 C 
BRANCH  17  19
ATOM     18  C   UNL     1       5.999   3.734  13.292  0.00  0.00    +0.000 C 
ATOM     19  O   UNL     1       5.587   4.194  14.570  0.00  0.00    +0.000 OA
ENDBRANCH  17  19
ENDBRANCH   1  17
TORSDOF 4
ENDMDL
MODEL 8
REMARK VINA RESULT:      -6.4      1.274      1.771
REMARK  Name = 
REMARK  5 active torsions:
REMARK  status: ('A' for Active; 'I' for Inactive)
REMARK    1  A    between atoms: C_1  and  O_2
REMARK    2  A    between atoms: O_2  and  C_3
REMARK    3  A    between atoms: C_3  and  C_4
REMARK    4  A    between atoms: C_9  and  C_10
REMARK    5  A    between atoms: C_10  and  N_11
REMARK                            x       y       z     vdW  Elec       q    Type
REMARK                         _______ _______ _______ _____ _____    ______ ____
ROOT
ATOM      1  C   UNL     1       5.297   5.732  17.122  0.00  0.00    +0.000 A 
ATOM      2  C   UNL     1       6.441   5.782  17.820  0.00  0.00    +0.000 A 
ATOM      3  C   UNL     1       6.408   5.396  19.236  0.00  0.00    +0.000 A 
ATOM      4  O   UNL     1       7.417   5.420  19.931  0.00  0.00    +0.000 OA
ATOM      5  N   UNL     1       5.187   5.014  19.701  0.00  0.00    +0.000 N 
ATOM      6  C   UNL     1       4.062   5.042  18.920  0.00  0.00    +0.000 A 
ATOM      7  N   UNL     1       4.082   5.389  17.670  0.00  0.00    +0.000 NA
ATOM      8  H   UNL     1       5.135   4.663  20.645  0.00  0.00    +0.000 HD
ENDROOT
BRANCH   6   9
ATOM      9  C   UNL     1       2.757   4.614  19.618  0.00  0.00    +0.000 C 
ATOM     10  C   UNL     1       2.925   3.373  20.508  0.00  0.00    +0.000 C 
ATOM     11  C   UNL     1       1.558   2.697  20.566  0.00  0.00    +0.000 C 
ATOM     12  C   UNL     1       0.747   3.256  19.402  0.00  0.00    +0.000 C 
ATOM     13  C   UNL     1       1.696   4.148  18.610  0.00  0.00    +0.000 C 
BRANCH   9  14
ATOM     14  N   UNL     1       2.248   5.767  20.388  0.00  0.00    +0.000 NA
ATOM     15  H   UNL     1       2.829   6.579  20.166  0.00  0.00    +0.000 HD
ATOM     16  H   UNL     1       2.395   5.604  21.386  0.00  0.00    +0.000 HD
ENDBRANCH   9  14
ENDBRANCH   6   9
BRANCH   1  17
ATOM     17  C   UNL     1       5.297   6.032  15.639  0.00  0.00    +0.000 C 
BRANCH  17  19
ATOM     18  C   UNL     1       6.418   4.370  14.398  0.00  0.00    +0.000 C 
ATOM     19  O   UNL     1       6.544   5.607  15.082  0.00  0.00    +0.000 OA
ENDBRANCH  17  19
ENDBRANCH   1  17
TORSDOF 4
ENDMDL
MODEL 9
REMARK VINA RESULT:      -6.4      1.400      1.742
REMARK  Name = 
REMARK  5 active torsions:
REMARK  status: ('A' for Active; 'I' for Inactive)
REMARK    1  A    between atoms: C_1  and  O_2
REMARK    2  A    between atoms: O_2  and  C_3
REMARK    3  A    between atoms: C_3  and  C_4
REMARK    4  A    between atoms: C_9  and  C_10
REMARK    5  A    between atoms: C_10  and  N_11
REMARK                            x       y       z     vdW  Elec       q    Type
REMARK                         _______ _______ _______ _____ _____    ______ ____
ROOT
ATOM      1  C   UNL     1       6.396   4.574  16.287  0.00  0.00    +0.000 A 
ATOM      2  C   UNL     1       7.437   4.908  17.063  0.00  0.00    +0.000 A 
ATOM      3  C   UNL     1       7.247   4.911  18.518  0.00  0.00    +0.000 A 
ATOM      4  O   UNL     1       8.157   5.208  19.284  0.00  0.00    +0.000 OA
ATOM      5  N   UNL     1       6.000   4.562  18.937  0.00  0.00    +0.000 N 
ATOM      6  C   UNL     1       4.983   4.282  18.063  0.00  0.00    +0.000 A 
ATOM      7  N   UNL     1       5.142   4.284  16.776  0.00  0.00    +0.000 NA
ATOM      8  H   UNL     1       5.848   4.471  19.930  0.00  0.00    +0.000 HD
ENDROOT
BRANCH   6   9
ATOM      9  C   UNL     1       3.626   3.943  18.708  0.00  0.00    +0.000 C 
ATOM     10  C   UNL     1       3.518   2.477  19.155  0.00  0.00    +0.000 C 
ATOM     11  C   UNL     1       2.032   2.126  19.123  0.00  0.00    +0.000 C 
ATOM     12  C   UNL     1       1.353   3.187  18.263  0.00  0.00    +0.000 C 
ATOM     13  C   UNL     1       2.470   4.061  17.704  0.00  0.00    +0.000 C 
BRANCH   9  14
ATOM     14  N   UNL     1       3.409   4.870  19.837  0.00  0.00    +0.000 NA
ATOM     15  H   UNL     1       3.529   4.345  20.707  0.00  0.00    +0.000 HD
ATOM     16  H   UNL     1       2.435   5.176  19.847  0.00  0.00    +0.000 HD
ENDBRANCH   9  14
ENDBRANCH   6   9
BRANCH   1  17
ATOM     17  C   UNL     1       6.567   4.468  14.788  0.00  0.00    +0.000 C 
BRANCH  17  19
ATOM     18  C   UNL     1       7.900   5.218  12.993  0.00  0.00    +0.000 C 
ATOM     19  O   UNL     1       7.636   5.328  14.383  0.00  0.00    +0.000 OA
ENDBRANCH  17  19
ENDBRANCH   1  17
TORSDOF 4
ENDMDL
