MODEL 1
REMARK VINA RESULT:      -6.8      0.000      0.000
REMARK  Name = 
REMARK  9 active torsions:
REMARK  status: ('A' for Active; 'I' for Inactive)
REMARK    1  A    between atoms: C_1  and  C_2
REMARK    2  A    between atoms: C_8  and  C_9
REMARK    3  A    between atoms: C_9  and  O_10
REMARK    4  A    between atoms: C_11  and  O_12
REMARK    5  A    between atoms: C_13  and  O_14
REMARK    6  A    between atoms: C_20  and  C_21
REMARK    7  A    between atoms: C_21  and  O_22
REMARK    8  A    between atoms: O_22  and  C_23
REMARK    9  A    between atoms: C_23  and  C_25
REMARK                            x       y       z     vdW  Elec       q    Type
REMARK                         _______ _______ _______ _____ _____    ______ ____
ROOT
ATOM      1  C   UNL     1       2.598   2.765  21.906  0.00  0.00    +0.000 C 
ATOM      2  C   UNL     1       2.434   3.105  20.417  0.00  0.00    +0.000 C 
ATOM      3  C   UNL     1       1.019   3.671  20.149  0.00  0.00    +0.000 C 
ATOM      4  C   UNL     1       1.291   5.117  20.310  0.00  0.00    +0.000 C 
ATOM      5  O   UNL     1       0.186   6.010  20.352  0.00  0.00    +0.000 OA
ATOM      6  C   UNL     1       0.758   7.251  20.800  0.00  0.00    +0.000 C 
ATOM      7  O   UNL     1      -0.164   8.175  21.331  0.00  0.00    +0.000 OA
ATOM      8  C   UNL     1       0.489   9.380  21.768  0.00  0.00    +0.000 C 
ATOM      9  C   UNL     1       0.895  10.152  20.497  0.00  0.00    +0.000 C 
ATOM     10  C   UNL     1       1.509   9.270  19.353  0.00  0.00    +0.000 C 
ATOM     11  C   UNL     1       1.731   7.786  19.718  0.00  0.00    +0.000 C 
ATOM     12  O   UNL     1       1.931   6.782  18.618  0.00  0.00    +0.000 OA
ATOM     13  C   UNL     1       2.303   5.445  19.185  0.00  0.00    +0.000 C 
ATOM     14  C   UNL     1       3.742   5.588  19.819  0.00  0.00    +0.000 C 
ATOM     15  C   UNL     1       3.627   4.051  19.860  0.00  0.00    +0.000 C 
ATOM     16  C   UNL     1       3.034   4.073  18.364  0.00  0.00    +0.000 C 
ATOM     17  C   UNL     1       3.107   2.387  18.493  0.00  0.00    +0.000 C 
ATOM     18  O   UNL     1       3.824   1.616  17.862  0.00  0.00    +0.000 OA
ATOM     19  O   UNL     1       2.526   1.944  19.651  0.00  0.00    +0.000 OA
ENDROOT
BRANCH   9  20
ATOM     20  O   UNL     1       1.705  11.290  20.818  0.00  0.00    +0.000 OA
ATOM     21  H   UNL     1       2.188  11.140  21.645  0.00  0.00    +0.000 HD
ENDBRANCH   9  20
BRANCH  10  22
ATOM     22  O   UNL     1       0.693   9.388  18.185  0.00  0.00    +0.000 OA
ATOM     23  H   UNL     1       0.686  10.320  17.936  0.00  0.00    +0.000 HD
ENDBRANCH  10  22
BRANCH   8  24
ATOM     24  C   UNL     1       1.645   9.205  22.800  0.00  0.00    +0.000 C 
BRANCH  24  25
ATOM     25  O   UNL     1       1.225   9.483  24.128  0.00  0.00    +0.000 OA
ATOM     26  H   UNL     1       1.854   9.085  24.748  0.00  0.00    +0.000 HD
ENDBRANCH  24  25
ENDBRANCH   8  24
BRANCH  16  27
ATOM     27  C   UNL     1       3.240   4.252  16.879  0.00  0.00    +0.000 C 
BRANCH  27  28
ATOM     28  O   UNL     1       4.289   5.170  16.614  0.00  0.00    +0.000 OA
BRANCH  28  29
ATOM     29  C   UNL     1       5.525   4.631  16.548  0.00  0.00    +0.000 C 
ATOM     30  O   UNL     1       5.823   3.637  15.899  0.00  0.00    +0.000 OA
BRANCH  29  31
ATOM     31  C   UNL     1       6.468   5.434  17.330  0.00  0.00    +0.000 A 
ATOM     32  C   UNL     1       6.688   6.733  16.903  0.00  0.00    +0.000 A 
ATOM     33  C   UNL     1       7.547   7.561  17.599  0.00  0.00    +0.000 A 
ATOM     34  C   UNL     1       8.216   7.079  18.739  0.00  0.00    +0.000 A 
ATOM     35  C   UNL     1       8.025   5.770  19.154  0.00  0.00    +0.000 A 
ATOM     36  C   UNL     1       7.147   4.935  18.462  0.00  0.00    +0.000 A 
ENDBRANCH  29  31
ENDBRANCH  28  29
ENDBRANCH  27  28
ENDBRANCH  16  27
TORSDOF 8
ENDMDL
MODEL 2
REMARK VINA RESULT:      -6.3      6.247      9.906
REMARK  Name = 
REMARK  9 active torsions:
REMARK  status: ('A' for Active; 'I' for Inactive)
REMARK    1  A    between atoms: C_1  and  C_2
REMARK    2  A    between atoms: C_8  and  C_9
REMARK    3  A    between atoms: C_9  and  O_10
REMARK    4  A    between atoms: C_11  and  O_12
REMARK    5  A    between atoms: C_13  and  O_14
REMARK    6  A    between atoms: C_20  and  C_21
REMARK    7  A    between atoms: C_21  and  O_22
REMARK    8  A    between atoms: O_22  and  C_23
REMARK    9  A    between atoms: C_23  and  C_25
REMARK                            x       y       z     vdW  Elec       q    Type
REMARK                         _______ _______ _______ _____ _____    ______ ____
ROOT
ATOM      1  C   UNL     1       0.028   9.432  20.803  0.00  0.00    +0.000 C 
ATOM      2  C   UNL     1       0.054  10.699  19.935  0.00  0.00    +0.000 C 
ATOM      3  C   UNL     1      -1.352  10.978  19.352  0.00  0.00    +0.000 C 
ATOM      4  C   UNL     1      -1.888  11.872  20.402  0.00  0.00    +0.000 C 
ATOM      5  O   UNL     1      -3.269  12.207  20.363  0.00  0.00    +0.000 OA
ATOM      6  C   UNL     1      -3.515  12.820  21.640  0.00  0.00    +0.000 C 
ATOM      7  O   UNL     1      -4.868  12.859  22.031  0.00  0.00    +0.000 OA
ATOM      8  C   UNL     1      -5.027  13.472  23.322  0.00  0.00    +0.000 C 
ATOM      9  C   UNL     1      -4.791  14.983  23.128  0.00  0.00    +0.000 C 
ATOM     10  C   UNL     1      -3.579  15.352  22.203  0.00  0.00    +0.000 C 
ATOM     11  C   UNL     1      -2.728  14.153  21.727  0.00  0.00    +0.000 C 
ATOM     12  O   UNL     1      -1.810  14.325  20.551  0.00  0.00    +0.000 OA
ATOM     13  C   UNL     1      -0.955  13.108  20.367  0.00  0.00    +0.000 C 
ATOM     14  C   UNL     1       0.032  13.038  21.596  0.00  0.00    +0.000 C 
ATOM     15  C   UNL     1       0.699  11.969  20.708  0.00  0.00    +0.000 C 
ATOM     16  C   UNL     1       0.528  12.943  19.439  0.00  0.00    +0.000 C 
ATOM     17  C   UNL     1       1.409  11.752  18.620  0.00  0.00    +0.000 C 
ATOM     18  O   UNL     1       2.536  11.844  18.144  0.00  0.00    +0.000 OA
ATOM     19  O   UNL     1       0.886  10.504  18.834  0.00  0.00    +0.000 OA
ENDROOT
BRANCH   9  20
ATOM     20  O   UNL     1      -4.759  15.668  24.388  0.00  0.00    +0.000 OA
ATOM     21  H   UNL     1      -4.399  15.091  25.078  0.00  0.00    +0.000 HD
ENDBRANCH   9  20
BRANCH  10  22
ATOM     22  O   UNL     1      -4.057  16.107  21.086  0.00  0.00    +0.000 OA
ATOM     23  H   UNL     1      -4.635  15.525  20.577  0.00  0.00    +0.000 HD
ENDBRANCH  10  22
BRANCH   8  24
ATOM     24  C   UNL     1      -4.205  12.847  24.490  0.00  0.00    +0.000 C 
BRANCH  24  25
ATOM     25  O   UNL     1      -4.959  11.896  25.228  0.00  0.00    +0.000 OA
ATOM     26  H   UNL     1      -5.196  12.276  26.086  0.00  0.00    +0.000 HD
ENDBRANCH  24  25
ENDBRANCH   8  24
BRANCH  16  27
ATOM     27  C   UNL     1       0.944  14.176  18.672  0.00  0.00    +0.000 C 
BRANCH  27  28
ATOM     28  O   UNL     1       1.740  15.035  19.475  0.00  0.00    +0.000 OA
BRANCH  28  29
ATOM     29  C   UNL     1       1.125  16.156  19.907  0.00  0.00    +0.000 C 
ATOM     30  O   UNL     1       0.932  16.442  21.082  0.00  0.00    +0.000 OA
BRANCH  29  31
ATOM     31  C   UNL     1       0.761  17.003  18.768  0.00  0.00    +0.000 A 
ATOM     32  C   UNL     1      -0.570  17.369  18.661  0.00  0.00    +0.000 A 
ATOM     33  C   UNL     1      -0.990  18.183  17.628  0.00  0.00    +0.000 A 
ATOM     34  C   UNL     1      -0.064  18.631  16.668  0.00  0.00    +0.000 A 
ATOM     35  C   UNL     1       1.264  18.243  16.751  0.00  0.00    +0.000 A 
ATOM     36  C   UNL     1       1.694  17.432  17.801  0.00  0.00    +0.000 A 
ENDBRANCH  29  31
ENDBRANCH  28  29
ENDBRANCH  27  28
ENDBRANCH  16  27
TORSDOF 8
ENDMDL
MODEL 3
REMARK VINA RESULT:      -6.2      6.233      9.271
REMARK  Name = 
REMARK  9 active torsions:
REMARK  status: ('A' for Active; 'I' for Inactive)
REMARK    1  A    between atoms: C_1  and  C_2
REMARK    2  A    between atoms: C_8  and  C_9
REMARK    3  A    between atoms: C_9  and  O_10
REMARK    4  A    between atoms: C_11  and  O_12
REMARK    5  A    between atoms: C_13  and  O_14
REMARK    6  A    between atoms: C_20  and  C_21
REMARK    7  A    between atoms: C_21  and  O_22
REMARK    8  A    between atoms: O_22  and  C_23
REMARK    9  A    between atoms: C_23  and  C_25
REMARK                            x       y       z     vdW  Elec       q    Type
REMARK                         _______ _______ _______ _____ _____    ______ ____
ROOT
ATOM      1  C   UNL     1       3.218  17.661  20.945  0.00  0.00    +0.000 C 
ATOM      2  C   UNL     1       4.209  16.689  20.288  0.00  0.00    +0.000 C 
ATOM      3  C   UNL     1       4.265  15.362  21.083  0.00  0.00    +0.000 C 
ATOM      4  C   UNL     1       3.234  14.588  20.356  0.00  0.00    +0.000 C 
ATOM      5  O   UNL     1       2.808  13.349  20.905  0.00  0.00    +0.000 OA
ATOM      6  C   UNL     1       1.635  13.015  20.144  0.00  0.00    +0.000 C 
ATOM      7  O   UNL     1       0.781  12.071  20.748  0.00  0.00    +0.000 OA
ATOM      8  C   UNL     1      -0.372  11.804  19.931  0.00  0.00    +0.000 C 
ATOM      9  C   UNL     1       0.114  10.957  18.739  0.00  0.00    +0.000 C 
ATOM     10  C   UNL     1       1.466  11.429  18.097  0.00  0.00    +0.000 C 
ATOM     11  C   UNL     1       2.041  12.742  18.672  0.00  0.00    +0.000 C 
ATOM     12  O   UNL     1       3.486  13.078  18.432  0.00  0.00    +0.000 OA
ATOM     13  C   UNL     1       3.793  14.463  18.917  0.00  0.00    +0.000 C 
ATOM     14  C   UNL     1       3.020  15.470  17.979  0.00  0.00    +0.000 C 
ATOM     15  C   UNL     1       3.925  16.485  18.706  0.00  0.00    +0.000 C 
ATOM     16  C   UNL     1       5.169  15.481  18.519  0.00  0.00    +0.000 C 
ATOM     17  C   UNL     1       6.071  16.745  19.192  0.00  0.00    +0.000 C 
ATOM     18  O   UNL     1       6.939  17.422  18.648  0.00  0.00    +0.000 OA
ATOM     19  O   UNL     1       5.499  17.215  20.344  0.00  0.00    +0.000 OA
ENDROOT
BRANCH   9  20
ATOM     20  O   UNL     1      -0.929  10.776  17.771  0.00  0.00    +0.000 OA
ATOM     21  H   UNL     1      -1.395   9.941  17.928  0.00  0.00    +0.000 HD
ENDBRANCH   9  20
BRANCH  10  22
ATOM     22  O   UNL     1       2.424  10.371  18.195  0.00  0.00    +0.000 OA
ATOM     23  H   UNL     1       1.960   9.600  18.546  0.00  0.00    +0.000 HD
ENDBRANCH  10  22
BRANCH   8  24
ATOM     24  C   UNL     1      -1.231  13.039  19.523  0.00  0.00    +0.000 C 
BRANCH  24  25
ATOM     25  O   UNL     1      -2.506  12.663  19.022  0.00  0.00    +0.000 OA
ATOM     26  H   UNL     1      -2.431  11.809  18.573  0.00  0.00    +0.000 HD
ENDBRANCH  24  25
ENDBRANCH   8  24
BRANCH  16  27
ATOM     27  C   UNL     1       6.207  14.836  17.632  0.00  0.00    +0.000 C 
BRANCH  27  28
ATOM     28  O   UNL     1       7.248  14.254  18.400  0.00  0.00    +0.000 OA
BRANCH  28  29
ATOM     29  C   UNL     1       7.848  13.181  17.841  0.00  0.00    +0.000 C 
ATOM     30  O   UNL     1       7.480  12.629  16.811  0.00  0.00    +0.000 OA
BRANCH  29  31
ATOM     31  C   UNL     1       9.028  12.799  18.620  0.00  0.00    +0.000 A 
ATOM     32  C   UNL     1       9.237  13.477  19.810  0.00  0.00    +0.000 A 
ATOM     33  C   UNL     1      10.316  13.161  20.613  0.00  0.00    +0.000 A 
ATOM     34  C   UNL     1      11.217  12.157  20.214  0.00  0.00    +0.000 A 
ATOM     35  C   UNL     1      11.031  11.496  19.010  0.00  0.00    +0.000 A 
ATOM     36  C   UNL     1       9.935  11.803  18.203  0.00  0.00    +0.000 A 
ENDBRANCH  29  31
ENDBRANCH  28  29
ENDBRANCH  27  28
ENDBRANCH  16  27
TORSDOF 8
ENDMDL
MODEL 4
REMARK VINA RESULT:      -6.1      6.286      8.995
REMARK  Name = 
REMARK  9 active torsions:
REMARK  status: ('A' for Active; 'I' for Inactive)
REMARK    1  A    between atoms: C_1  and  C_2
REMARK    2  A    between atoms: C_8  and  C_9
REMARK    3  A    between atoms: C_9  and  O_10
REMARK    4  A    between atoms: C_11  and  O_12
REMARK    5  A    between atoms: C_13  and  O_14
REMARK    6  A    between atoms: C_20  and  C_21
REMARK    7  A    between atoms: C_21  and  O_22
REMARK    8  A    between atoms: O_22  and  C_23
REMARK    9  A    between atoms: C_23  and  C_25
REMARK                            x       y       z     vdW  Elec       q    Type
REMARK                         _______ _______ _______ _____ _____    ______ ____
ROOT
ATOM      1  C   UNL     1       0.561   9.741  20.497  0.00  0.00    +0.000 C 
ATOM      2  C   UNL     1       0.484  11.079  19.746  0.00  0.00    +0.000 C 
ATOM      3  C   UNL     1      -0.932  11.280  19.153  0.00  0.00    +0.000 C 
ATOM      4  C   UNL     1      -1.568  12.022  20.265  0.00  0.00    +0.000 C 
ATOM      5  O   UNL     1      -2.973  12.231  20.219  0.00  0.00    +0.000 OA
ATOM      6  C   UNL     1      -3.298  12.701  21.539  0.00  0.00    +0.000 C 
ATOM      7  O   UNL     1      -4.655  12.580  21.896  0.00  0.00    +0.000 OA
ATOM      8  C   UNL     1      -4.893  13.057  23.232  0.00  0.00    +0.000 C 
ATOM      9  C   UNL     1      -4.796  14.594  23.180  0.00  0.00    +0.000 C 
ATOM     10  C   UNL     1      -3.608  15.155  22.322  0.00  0.00    +0.000 C 
ATOM     11  C   UNL     1      -2.641  14.087  21.765  0.00  0.00    +0.000 C 
ATOM     12  O   UNL     1      -1.723  14.448  20.633  0.00  0.00    +0.000 OA
ATOM     13  C   UNL     1      -0.754  13.336  20.363  0.00  0.00    +0.000 C 
ATOM     14  C   UNL     1       0.214  13.245  21.607  0.00  0.00    +0.000 C 
ATOM     15  C   UNL     1       0.993  12.327  20.645  0.00  0.00    +0.000 C 
ATOM     16  C   UNL     1       0.754  13.393  19.463  0.00  0.00    +0.000 C 
ATOM     17  C   UNL     1       1.756  12.366  18.565  0.00  0.00    +0.000 C 
ATOM     18  O   UNL     1       2.879  12.604  18.128  0.00  0.00    +0.000 OA
ATOM     19  O   UNL     1       1.349  11.061  18.654  0.00  0.00    +0.000 OA
ENDROOT
BRANCH   9  20
ATOM     20  O   UNL     1      -4.851  15.162  24.495  0.00  0.00    +0.000 OA
ATOM     21  H   UNL     1      -5.603  15.770  24.571  0.00  0.00    +0.000 HD
ENDBRANCH   9  20
BRANCH  10  22
ATOM     22  O   UNL     1      -4.135  15.961  21.265  0.00  0.00    +0.000 OA
ATOM     23  H   UNL     1      -3.718  16.829  21.336  0.00  0.00    +0.000 HD
ENDBRANCH  10  22
BRANCH   8  24
ATOM     24  C   UNL     1      -4.038  12.406  24.362  0.00  0.00    +0.000 C 
BRANCH  24  25
ATOM     25  O   UNL     1      -4.777  12.232  25.562  0.00  0.00    +0.000 OA
ATOM     26  H   UNL     1      -4.313  12.679  26.287  0.00  0.00    +0.000 HD
ENDBRANCH  24  25
ENDBRANCH   8  24
BRANCH  16  27
ATOM     27  C   UNL     1       1.066  14.723  18.820  0.00  0.00    +0.000 C 
BRANCH  27  28
ATOM     28  O   UNL     1       1.983  15.470  19.606  0.00  0.00    +0.000 OA
BRANCH  28  29
ATOM     29  C   UNL     1       2.824  16.265  18.912  0.00  0.00    +0.000 C 
ATOM     30  O   UNL     1       2.495  17.281  18.312  0.00  0.00    +0.000 OA
BRANCH  29  31
ATOM     31  C   UNL     1       4.195  15.761  19.015  0.00  0.00    +0.000 A 
ATOM     32  C   UNL     1       4.785  15.308  17.847  0.00  0.00    +0.000 A 
ATOM     33  C   UNL     1       6.083  14.837  17.856  0.00  0.00    +0.000 A 
ATOM     34  C   UNL     1       6.807  14.802  19.062  0.00  0.00    +0.000 A 
ATOM     35  C   UNL     1       6.213  15.225  20.241  0.00  0.00    +0.000 A 
ATOM     36  C   UNL     1       4.907  15.715  20.232  0.00  0.00    +0.000 A 
ENDBRANCH  29  31
ENDBRANCH  28  29
ENDBRANCH  27  28
ENDBRANCH  16  27
TORSDOF 8
ENDMDL
MODEL 5
REMARK VINA RESULT:      -6.0      9.275     12.317
REMARK  Name = 
REMARK  9 active torsions:
REMARK  status: ('A' for Active; 'I' for Inactive)
REMARK    1  A    between atoms: C_1  and  C_2
REMARK    2  A    between atoms: C_8  and  C_9
REMARK    3  A    between atoms: C_9  and  O_10
REMARK    4  A    between atoms: C_11  and  O_12
REMARK    5  A    between atoms: C_13  and  O_14
REMARK    6  A    between atoms: C_20  and  C_21
REMARK    7  A    between atoms: C_21  and  O_22
REMARK    8  A    between atoms: O_22  and  C_23
REMARK    9  A    between atoms: C_23  and  C_25
REMARK                            x       y       z     vdW  Elec       q    Type
REMARK                         _______ _______ _______ _____ _____    ______ ____
ROOT
ATOM      1  C   UNL     1       7.658  12.138  23.100  0.00  0.00    +0.000 C 
ATOM      2  C   UNL     1       7.445  13.658  23.139  0.00  0.00    +0.000 C 
ATOM      3  C   UNL     1       8.804  14.388  23.257  0.00  0.00    +0.000 C 
ATOM      4  C   UNL     1       9.101  14.603  21.823  0.00  0.00    +0.000 C 
ATOM      5  O   UNL     1      10.394  15.072  21.465  0.00  0.00    +0.000 OA
ATOM      6  C   UNL     1      10.446  14.893  20.039  0.00  0.00    +0.000 C 
ATOM      7  O   UNL     1      11.743  14.876  19.488  0.00  0.00    +0.000 OA
ATOM      8  C   UNL     1      11.708  14.679  18.064  0.00  0.00    +0.000 C 
ATOM      9  C   UNL     1      11.204  15.997  17.444  0.00  0.00    +0.000 C 
ATOM     10  C   UNL     1       9.999  16.665  18.197  0.00  0.00    +0.000 C 
ATOM     11  C   UNL     1       9.419  15.840  19.367  0.00  0.00    +0.000 C 
ATOM     12  O   UNL     1       8.555  16.523  20.388  0.00  0.00    +0.000 OA
ATOM     13  C   UNL     1       7.956  15.520  21.328  0.00  0.00    +0.000 C 
ATOM     14  C   UNL     1       6.930  14.654  20.498  0.00  0.00    +0.000 C 
ATOM     15  C   UNL     1       6.529  14.189  21.912  0.00  0.00    +0.000 C 
ATOM     16  C   UNL     1       6.586  15.718  22.411  0.00  0.00    +0.000 C 
ATOM     17  C   UNL     1       5.995  15.087  23.866  0.00  0.00    +0.000 C 
ATOM     18  O   UNL     1       4.900  15.287  24.383  0.00  0.00    +0.000 OA
ATOM     19  O   UNL     1       6.730  14.008  24.283  0.00  0.00    +0.000 OA
ENDROOT
BRANCH   9  20
ATOM     20  O   UNL     1      10.971  15.853  16.037  0.00  0.00    +0.000 OA
ATOM     21  H   UNL     1      11.753  16.128  15.534  0.00  0.00    +0.000 HD
ENDBRANCH   9  20
BRANCH  10  22
ATOM     22  O   UNL     1      10.391  17.967  18.640  0.00  0.00    +0.000 OA
ATOM     23  H   UNL     1      10.156  18.588  17.939  0.00  0.00    +0.000 HD
ENDBRANCH  10  22
BRANCH   8  24
ATOM     24  C   UNL     1      10.953  13.412  17.559  0.00  0.00    +0.000 C 
BRANCH  24  25
ATOM     25  O   UNL     1      11.542  12.868  16.386  0.00  0.00    +0.000 OA
ATOM     26  H   UNL     1      12.504  12.959  16.444  0.00  0.00    +0.000 HD
ENDBRANCH  24  25
ENDBRANCH   8  24
BRANCH  16  27
ATOM     27  C   UNL     1       5.991  17.106  22.444  0.00  0.00    +0.000 C 
BRANCH  27  28
ATOM     28  O   UNL     1       4.718  17.132  21.817  0.00  0.00    +0.000 OA
BRANCH  28  29
ATOM     29  C   UNL     1       4.721  17.495  20.517  0.00  0.00    +0.000 C 
ATOM     30  O   UNL     1       5.250  18.506  20.073  0.00  0.00    +0.000 OA
BRANCH  29  31
ATOM     31  C   UNL     1       4.039  16.482  19.709  0.00  0.00    +0.000 A 
ATOM     32  C   UNL     1       4.223  16.549  18.338  0.00  0.00    +0.000 A 
ATOM     33  C   UNL     1       3.631  15.617  17.508  0.00  0.00    +0.000 A 
ATOM     34  C   UNL     1       2.824  14.603  18.055  0.00  0.00    +0.000 A 
ATOM     35  C   UNL     1       2.610  14.549  19.423  0.00  0.00    +0.000 A 
ATOM     36  C   UNL     1       3.218  15.480  20.266  0.00  0.00    +0.000 A 
ENDBRANCH  29  31
ENDBRANCH  28  29
ENDBRANCH  27  28
ENDBRANCH  16  27
TORSDOF 8
ENDMDL
MODEL 6
REMARK VINA RESULT:      -6.0      4.115      7.861
REMARK  Name = 
REMARK  9 active torsions:
REMARK  status: ('A' for Active; 'I' for Inactive)
REMARK    1  A    between atoms: C_1  and  C_2
REMARK    2  A    between atoms: C_8  and  C_9
REMARK    3  A    between atoms: C_9  and  O_10
REMARK    4  A    between atoms: C_11  and  O_12
REMARK    5  A    between atoms: C_13  and  O_14
REMARK    6  A    between atoms: C_20  and  C_21
REMARK    7  A    between atoms: C_21  and  O_22
REMARK    8  A    between atoms: O_22  and  C_23
REMARK    9  A    between atoms: C_23  and  C_25
REMARK                            x       y       z     vdW  Elec       q    Type
REMARK                         _______ _______ _______ _____ _____    ______ ____
ROOT
ATOM      1  C   UNL     1       1.838  14.780  18.629  0.00  0.00    +0.000 C 
ATOM      2  C   UNL     1       1.635  13.339  19.120  0.00  0.00    +0.000 C 
ATOM      3  C   UNL     1       1.799  13.268  20.658  0.00  0.00    +0.000 C 
ATOM      4  C   UNL     1       0.391  13.464  21.071  0.00  0.00    +0.000 C 
ATOM      5  O   UNL     1       0.117  13.679  22.448  0.00  0.00    +0.000 OA
ATOM      6  C   UNL     1      -1.254  14.113  22.467  0.00  0.00    +0.000 C 
ATOM      7  O   UNL     1      -1.648  14.793  23.636  0.00  0.00    +0.000 OA
ATOM      8  C   UNL     1      -3.024  15.204  23.568  0.00  0.00    +0.000 C 
ATOM      9  C   UNL     1      -3.878  13.931  23.733  0.00  0.00    +0.000 C 
ATOM     10  C   UNL     1      -3.369  12.683  22.931  0.00  0.00    +0.000 C 
ATOM     11  C   UNL     1      -2.165  12.948  22.000  0.00  0.00    +0.000 C 
ATOM     12  O   UNL     1      -1.355  11.787  21.498  0.00  0.00    +0.000 OA
ATOM     13  C   UNL     1      -0.355  12.243  20.479  0.00  0.00    +0.000 C 
ATOM     14  C   UNL     1      -1.162  12.706  19.204  0.00  0.00    +0.000 C 
ATOM     15  C   UNL     1       0.250  12.689  18.586  0.00  0.00    +0.000 C 
ATOM     16  C   UNL     1       0.529  11.277  19.306  0.00  0.00    +0.000 C 
ATOM     17  C   UNL     1       1.984  11.317  18.442  0.00  0.00    +0.000 C 
ATOM     18  O   UNL     1       2.341  10.570  17.536  0.00  0.00    +0.000 OA
ATOM     19  O   UNL     1       2.630  12.515  18.598  0.00  0.00    +0.000 OA
ENDROOT
BRANCH   9  20
ATOM     20  O   UNL     1      -5.268  14.207  23.512  0.00  0.00    +0.000 OA
ATOM     21  H   UNL     1      -5.457  14.253  22.562  0.00  0.00    +0.000 HD
ENDBRANCH   9  20
BRANCH  10  22
ATOM     22  O   UNL     1      -3.074  11.627  23.850  0.00  0.00    +0.000 OA
ATOM     23  H   UNL     1      -2.122  11.643  24.004  0.00  0.00    +0.000 HD
ENDBRANCH  10  22
BRANCH   8  24
ATOM     24  C   UNL     1      -3.424  16.081  22.343  0.00  0.00    +0.000 C 
BRANCH  24  25
ATOM     25  O   UNL     1      -4.563  16.888  22.609  0.00  0.00    +0.000 OA
ATOM     26  H   UNL     1      -5.286  16.619  22.023  0.00  0.00    +0.000 HD
ENDBRANCH  24  25
ENDBRANCH   8  24
BRANCH  16  27
ATOM     27  C   UNL     1       0.297   9.788  19.398  0.00  0.00    +0.000 C 
BRANCH  27  28
ATOM     28  O   UNL     1       1.521   9.087  19.558  0.00  0.00    +0.000 OA
BRANCH  28  29
ATOM     29  C   UNL     1       1.516   8.127  20.506  0.00  0.00    +0.000 C 
ATOM     30  O   UNL     1       1.150   8.286  21.664  0.00  0.00    +0.000 OA
BRANCH  29  31
ATOM     31  C   UNL     1       1.970   6.855  19.939  0.00  0.00    +0.000 A 
ATOM     32  C   UNL     1       2.600   6.909  18.707  0.00  0.00    +0.000 A 
ATOM     33  C   UNL     1       3.076   5.756  18.115  0.00  0.00    +0.000 A 
ATOM     34  C   UNL     1       2.907   4.516  18.758  0.00  0.00    +0.000 A 
ATOM     35  C   UNL     1       2.250   4.450  19.976  0.00  0.00    +0.000 A 
ATOM     36  C   UNL     1       1.780   5.615  20.584  0.00  0.00    +0.000 A 
ENDBRANCH  29  31
ENDBRANCH  28  29
ENDBRANCH  27  28
ENDBRANCH  16  27
TORSDOF 8
ENDMDL
MODEL 7
REMARK VINA RESULT:      -6.0      6.335     10.023
REMARK  Name = 
REMARK  9 active torsions:
REMARK  status: ('A' for Active; 'I' for Inactive)
REMARK    1  A    between atoms: C_1  and  C_2
REMARK    2  A    between atoms: C_8  and  C_9
REMARK    3  A    between atoms: C_9  and  O_10
REMARK    4  A    between atoms: C_11  and  O_12
REMARK    5  A    between atoms: C_13  and  O_14
REMARK    6  A    between atoms: C_20  and  C_21
REMARK    7  A    between atoms: C_21  and  O_22
REMARK    8  A    between atoms: O_22  and  C_23
REMARK    9  A    between atoms: C_23  and  C_25
REMARK                            x       y       z     vdW  Elec       q    Type
REMARK                         _______ _______ _______ _____ _____    ______ ____
ROOT
ATOM      1  C   UNL     1       0.473   9.730  20.405  0.00  0.00    +0.000 C 
ATOM      2  C   UNL     1       0.411  11.088  19.691  0.00  0.00    +0.000 C 
ATOM      3  C   UNL     1      -1.007  11.328  19.119  0.00  0.00    +0.000 C 
ATOM      4  C   UNL     1      -1.620  12.050  20.257  0.00  0.00    +0.000 C 
ATOM      5  O   UNL     1      -3.021  12.284  20.232  0.00  0.00    +0.000 OA
ATOM      6  C   UNL     1      -3.325  12.722  21.567  0.00  0.00    +0.000 C 
ATOM      7  O   UNL     1      -4.681  12.614  21.935  0.00  0.00    +0.000 OA
ATOM      8  C   UNL     1      -4.897  13.058  23.286  0.00  0.00    +0.000 C 
ATOM      9  C   UNL     1      -4.775  14.595  23.274  0.00  0.00    +0.000 C 
ATOM     10  C   UNL     1      -3.586  15.159  22.419  0.00  0.00    +0.000 C 
ATOM     11  C   UNL     1      -2.643  14.091  21.823  0.00  0.00    +0.000 C 
ATOM     12  O   UNL     1      -1.730  14.468  20.691  0.00  0.00    +0.000 OA
ATOM     13  C   UNL     1      -0.783  13.348  20.382  0.00  0.00    +0.000 C 
ATOM     14  C   UNL     1       0.196  13.208  21.613  0.00  0.00    +0.000 C 
ATOM     15  C   UNL     1       0.950  12.303  20.618  0.00  0.00    +0.000 C 
ATOM     16  C   UNL     1       0.717  13.405  19.468  0.00  0.00    +0.000 C 
ATOM     17  C   UNL     1       1.693  12.386  18.532  0.00  0.00    +0.000 C 
ATOM     18  O   UNL     1       2.814  12.617  18.090  0.00  0.00    +0.000 OA
ATOM     19  O   UNL     1       1.265  11.086  18.590  0.00  0.00    +0.000 OA
ENDROOT
BRANCH   9  20
ATOM     20  O   UNL     1      -4.807  15.128  24.605  0.00  0.00    +0.000 OA
ATOM     21  H   UNL     1      -5.722  15.272  24.890  0.00  0.00    +0.000 HD
ENDBRANCH   9  20
BRANCH  10  22
ATOM     22  O   UNL     1      -4.111  16.003  21.390  0.00  0.00    +0.000 OA
ATOM     23  H   UNL     1      -5.065  16.054  21.526  0.00  0.00    +0.000 HD
ENDBRANCH  10  22
BRANCH   8  24
ATOM     24  C   UNL     1      -4.041  12.363  24.388  0.00  0.00    +0.000 C 
BRANCH  24  25
ATOM     25  O   UNL     1      -4.613  12.505  25.681  0.00  0.00    +0.000 OA
ATOM     26  H   UNL     1      -3.949  12.873  26.282  0.00  0.00    +0.000 HD
ENDBRANCH  24  25
ENDBRANCH   8  24
BRANCH  16  27
ATOM     27  C   UNL     1       1.044  14.746  18.857  0.00  0.00    +0.000 C 
BRANCH  27  28
ATOM     28  O   UNL     1       2.069  15.405  19.586  0.00  0.00    +0.000 OA
BRANCH  28  29
ATOM     29  C   UNL     1       1.869  16.722  19.803  0.00  0.00    +0.000 C 
ATOM     30  O   UNL     1       2.292  17.623  19.090  0.00  0.00    +0.000 OA
BRANCH  29  31
ATOM     31  C   UNL     1       1.033  16.916  20.991  0.00  0.00    +0.000 A 
ATOM     32  C   UNL     1      -0.148  17.616  20.816  0.00  0.00    +0.000 A 
ATOM     33  C   UNL     1      -1.001  17.823  21.882  0.00  0.00    +0.000 A 
ATOM     34  C   UNL     1      -0.662  17.335  23.157  0.00  0.00    +0.000 A 
ATOM     35  C   UNL     1       0.534  16.661  23.346  0.00  0.00    +0.000 A 
ATOM     36  C   UNL     1       1.391  16.437  22.268  0.00  0.00    +0.000 A 
ENDBRANCH  29  31
ENDBRANCH  28  29
ENDBRANCH  27  28
ENDBRANCH  16  27
TORSDOF 8
ENDMDL
MODEL 8
REMARK VINA RESULT:      -6.0      6.722     10.090
REMARK  Name = 
REMARK  9 active torsions:
REMARK  status: ('A' for Active; 'I' for Inactive)
REMARK    1  A    between atoms: C_1  and  C_2
REMARK    2  A    between atoms: C_8  and  C_9
REMARK    3  A    between atoms: C_9  and  O_10
REMARK    4  A    between atoms: C_11  and  O_12
REMARK    5  A    between atoms: C_13  and  O_14
REMARK    6  A    between atoms: C_20  and  C_21
REMARK    7  A    between atoms: C_21  and  O_22
REMARK    8  A    between atoms: O_22  and  C_23
REMARK    9  A    between atoms: C_23  and  C_25
REMARK                            x       y       z     vdW  Elec       q    Type
REMARK                         _______ _______ _______ _____ _____    ______ ____
ROOT
ATOM      1  C   UNL     1       1.339  17.317  20.464  0.00  0.00    +0.000 C 
ATOM      2  C   UNL     1       1.524  15.795  20.550  0.00  0.00    +0.000 C 
ATOM      3  C   UNL     1       1.498  15.334  22.028  0.00  0.00    +0.000 C 
ATOM      4  C   UNL     1       0.056  15.030  22.172  0.00  0.00    +0.000 C 
ATOM      5  O   UNL     1      -0.450  14.765  23.473  0.00  0.00    +0.000 OA
ATOM      6  C   UNL     1      -1.878  14.803  23.305  0.00  0.00    +0.000 C 
ATOM      7  O   UNL     1      -2.612  14.995  24.492  0.00  0.00    +0.000 OA
ATOM      8  C   UNL     1      -4.027  15.036  24.237  0.00  0.00    +0.000 C 
ATOM      9  C   UNL     1      -4.463  13.593  23.916  0.00  0.00    +0.000 C 
ATOM     10  C   UNL     1      -3.495  12.802  22.969  0.00  0.00    +0.000 C 
ATOM     11  C   UNL     1      -2.319  13.625  22.398  0.00  0.00    +0.000 C 
ATOM     12  O   UNL     1      -1.133  12.907  21.820  0.00  0.00    +0.000 OA
ATOM     13  C   UNL     1      -0.195  13.878  21.168  0.00  0.00    +0.000 C 
ATOM     14  C   UNL     1      -0.930  14.459  19.897  0.00  0.00    +0.000 C 
ATOM     15  C   UNL     1       0.489  14.987  19.601  0.00  0.00    +0.000 C 
ATOM     16  C   UNL     1       1.089  13.551  20.013  0.00  0.00    +0.000 C 
ATOM     17  C   UNL     1       2.562  14.213  19.505  0.00  0.00    +0.000 C 
ATOM     18  O   UNL     1       3.247  13.874  18.545  0.00  0.00    +0.000 OA
ATOM     19  O   UNL     1       2.784  15.441  20.069  0.00  0.00    +0.000 OA
ENDROOT
BRANCH   9  20
ATOM     20  O   UNL     1      -5.829  13.549  23.480  0.00  0.00    +0.000 OA
ATOM     21  H   UNL     1      -6.261  14.402  23.635  0.00  0.00    +0.000 HD
ENDBRANCH   9  20
BRANCH  10  22
ATOM     22  O   UNL     1      -3.015  11.642  23.655  0.00  0.00    +0.000 OA
ATOM     23  H   UNL     1      -2.126  11.847  23.970  0.00  0.00    +0.000 HD
ENDBRANCH  10  22
BRANCH   8  24
ATOM     24  C   UNL     1      -4.511  16.090  23.195  0.00  0.00    +0.000 C 
BRANCH  24  25
ATOM     25  O   UNL     1      -4.258  17.421  23.621  0.00  0.00    +0.000 OA
ATOM     26  H   UNL     1      -3.370  17.468  24.005  0.00  0.00    +0.000 HD
ENDBRANCH  24  25
ENDBRANCH   8  24
BRANCH  16  27
ATOM     27  C   UNL     1       1.314  12.091  19.702  0.00  0.00    +0.000 C 
BRANCH  27  28
ATOM     28  O   UNL     1       0.458  11.651  18.658  0.00  0.00    +0.000 OA
BRANCH  28  29
ATOM     29  C   UNL     1      -0.309  10.580  18.953  0.00  0.00    +0.000 C 
ATOM     30  O   UNL     1      -0.010   9.703  19.754  0.00  0.00    +0.000 OA
BRANCH  29  31
ATOM     31  C   UNL     1      -1.569  10.642  18.210  0.00  0.00    +0.000 A 
ATOM     32  C   UNL     1      -2.538  11.507  18.692  0.00  0.00    +0.000 A 
ATOM     33  C   UNL     1      -3.745  11.639  18.035  0.00  0.00    +0.000 A 
ATOM     34  C   UNL     1      -4.002  10.879  16.880  0.00  0.00    +0.000 A 
ATOM     35  C   UNL     1      -3.050   9.989  16.409  0.00  0.00    +0.000 A 
ATOM     36  C   UNL     1      -1.823   9.863  17.062  0.00  0.00    +0.000 A 
ENDBRANCH  29  31
ENDBRANCH  28  29
ENDBRANCH  27  28
ENDBRANCH  16  27
TORSDOF 8
ENDMDL
MODEL 9
REMARK VINA RESULT:      -6.0      8.260     11.653
REMARK  Name = 
REMARK  9 active torsions:
REMARK  status: ('A' for Active; 'I' for Inactive)
REMARK    1  A    between atoms: C_1  and  C_2
REMARK    2  A    between atoms: C_8  and  C_9
REMARK    3  A    between atoms: C_9  and  O_10
REMARK    4  A    between atoms: C_11  and  O_12
REMARK    5  A    between atoms: C_13  and  O_14
REMARK    6  A    between atoms: C_20  and  C_21
REMARK    7  A    between atoms: C_21  and  O_22
REMARK    8  A    between atoms: O_22  and  C_23
REMARK    9  A    between atoms: C_23  and  C_25
REMARK                            x       y       z     vdW  Elec       q    Type
REMARK                         _______ _______ _______ _____ _____    ______ ____
ROOT
ATOM      1  C   UNL     1      -0.861  10.972  22.567  0.00  0.00    +0.000 C 
ATOM      2  C   UNL     1      -1.764  12.214  22.614  0.00  0.00    +0.000 C 
ATOM      3  C   UNL     1      -0.999  13.410  23.230  0.00  0.00    +0.000 C 
ATOM      4  C   UNL     1      -0.453  14.021  21.997  0.00  0.00    +0.000 C 
ATOM      5  O   UNL     1       0.510  15.058  22.128  0.00  0.00    +0.000 OA
ATOM      6  C   UNL     1       1.034  15.217  20.799  0.00  0.00    +0.000 C 
ATOM      7  O   UNL     1       2.282  15.866  20.724  0.00  0.00    +0.000 OA
ATOM      8  C   UNL     1       2.740  15.972  19.365  0.00  0.00    +0.000 C 
ATOM      9  C   UNL     1       1.871  17.047  18.684  0.00  0.00    +0.000 C 
ATOM     10  C   UNL     1       0.339  16.969  19.015  0.00  0.00    +0.000 C 
ATOM     11  C   UNL     1      -0.085  15.754  19.869  0.00  0.00    +0.000 C 
ATOM     12  O   UNL     1      -1.414  15.778  20.570  0.00  0.00    +0.000 OA
ATOM     13  C   UNL     1      -1.706  14.446  21.192  0.00  0.00    +0.000 C 
ATOM     14  C   UNL     1      -1.930  13.418  20.016  0.00  0.00    +0.000 C 
ATOM     15  C   UNL     1      -2.441  12.546  21.180  0.00  0.00    +0.000 C 
ATOM     16  C   UNL     1      -3.248  13.815  21.752  0.00  0.00    +0.000 C 
ATOM     17  C   UNL     1      -3.852  12.707  22.880  0.00  0.00    +0.000 C 
ATOM     18  O   UNL     1      -5.008  12.312  23.002  0.00  0.00    +0.000 OA
ATOM     19  O   UNL     1      -2.846  11.982  23.463  0.00  0.00    +0.000 OA
ENDROOT
BRANCH   9  20
ATOM     20  O   UNL     1       2.134  17.112  17.276  0.00  0.00    +0.000 OA
ATOM     21  H   UNL     1       1.459  17.645  16.830  0.00  0.00    +0.000 HD
ENDBRANCH   9  20
BRANCH  10  22
ATOM     22  O   UNL     1      -0.066  18.192  19.637  0.00  0.00    +0.000 OA
ATOM     23  H   UNL     1      -1.032  18.207  19.628  0.00  0.00    +0.000 HD
ENDBRANCH  10  22
BRANCH   8  24
ATOM     24  C   UNL     1       2.842  14.638  18.563  0.00  0.00    +0.000 C 
BRANCH  24  25
ATOM     25  O   UNL     1       3.725  14.743  17.455  0.00  0.00    +0.000 OA
ATOM     26  H   UNL     1       3.967  13.854  17.158  0.00  0.00    +0.000 HD
ENDBRANCH  24  25
ENDBRANCH   8  24
BRANCH  16  27
ATOM     27  C   UNL     1      -4.407  14.779  21.656  0.00  0.00    +0.000 C 
BRANCH  27  28
ATOM     28  O   UNL     1      -5.031  14.704  20.383  0.00  0.00    +0.000 OA
BRANCH  28  29
ATOM     29  C   UNL     1      -6.303  14.252  20.390  0.00  0.00    +0.000 C 
ATOM     30  O   UNL     1      -7.277  14.902  20.749  0.00  0.00    +0.000 OA
BRANCH  29  31
ATOM     31  C   UNL     1      -6.356  12.886  19.865  0.00  0.00    +0.000 A 
ATOM     32  C   UNL     1      -7.241  12.014  20.477  0.00  0.00    +0.000 A 
ATOM     33  C   UNL     1      -7.366  10.715  20.027  0.00  0.00    +0.000 A 
ATOM     34  C   UNL     1      -6.579  10.267  18.950  0.00  0.00    +0.000 A 
ATOM     35  C   UNL     1      -5.669  11.125  18.352  0.00  0.00    +0.000 A 
ATOM     36  C   UNL     1      -5.550  12.442  18.796  0.00  0.00    +0.000 A 
ENDBRANCH  29  31
ENDBRANCH  28  29
ENDBRANCH  27  28
ENDBRANCH  16  27
TORSDOF 8
ENDMDL
