MODEL 1
REMARK VINA RESULT:      -6.3      0.000      0.000
REMARK  Name = 
REMARK  4 active torsions:
REMARK  status: ('A' for Active; 'I' for Inactive)
REMARK    1  A    between atoms: N_1  and  C_2
REMARK    2  A    between atoms: C_6  and  C_8
REMARK    3  A    between atoms: N_11  and  C_12
REMARK    4  A    between atoms: C_19  and  C_20
REMARK                            x       y       z     vdW  Elec       q    Type
REMARK                         _______ _______ _______ _____ _____    ______ ____
ROOT
ATOM      1  C   UNL     1       6.318   5.129  17.658  0.00  0.00    +0.000 A 
ATOM      2  C   UNL     1       6.871   4.741  18.890  0.00  0.00    +0.000 A 
ATOM      3  N   UNL     1       5.987   4.317  19.750  0.00  0.00    +0.000 NA
ATOM      4  N   UNL     1       4.788   4.413  19.105  0.00  0.00    +0.000 N 
ATOM      5  C   UNL     1       4.952   4.950  17.846  0.00  0.00    +0.000 A 
ENDROOT
BRANCH   1  10
ATOM      6  C   UNL     1       6.151   3.598  13.569  0.00  0.00    +0.000 C 
ATOM      7  C   UNL     1       7.431   4.300  13.109  0.00  0.00    +0.000 C 
ATOM      8  C   UNL     1       7.622   5.418  14.130  0.00  0.00    +0.000 C 
ATOM      9  N   UNL     1       6.996   4.921  15.344  0.00  0.00    +0.000 N 
ATOM     10  C   UNL     1       6.979   5.682  16.483  0.00  0.00    +0.000 C 
ATOM     11  O   UNL     1       7.520   6.787  16.514  0.00  0.00    +0.000 OA
ATOM     12  C   UNL     1       6.294   3.667  15.087  0.00  0.00    +0.000 C 
BRANCH   6  13
ATOM     13  N   UNL     1       4.947   4.300  13.114  0.00  0.00    +0.000 NA
ATOM     14  H   UNL     1       5.092   4.654  12.169  0.00  0.00    +0.000 HD
ATOM     15  H   UNL     1       4.772   5.118  13.700  0.00  0.00    +0.000 HD
ENDBRANCH   6  13
ENDBRANCH   1  10
BRANCH   4  16
ATOM     16  C   UNL     1       3.595   3.955  19.741  0.00  0.00    +0.000 A 
ATOM     17  N   UNL     1       3.037   4.752  20.696  0.00  0.00    +0.000 NA
ATOM     18  C   UNL     1       1.884   4.336  21.267  0.00  0.00    +0.000 A 
ATOM     19  C   UNL     1       1.236   3.165  20.914  0.00  0.00    +0.000 A 
ATOM     20  C   UNL     1       1.830   2.347  19.961  0.00  0.00    +0.000 A 
ATOM     21  C   UNL     1       3.043   2.721  19.381  0.00  0.00    +0.000 A 
ATOM     22 CL   UNL     1       3.863   1.510  18.451  0.00  0.00    +0.000 Cl
ENDBRANCH   4  16
BRANCH   5  23
ATOM     23  C   UNL     1       3.802   5.338  17.005  0.00  0.00    +0.000 C 
ATOM     24  F   UNL     1       2.806   5.948  17.692  0.00  0.00    +0.000 F 
ATOM     25  F   UNL     1       4.135   6.225  16.039  0.00  0.00    +0.000 F 
ATOM     26  F   UNL     1       3.220   4.268  16.414  0.00  0.00    +0.000 F 
ENDBRANCH   5  23
TORSDOF 4
ENDMDL
MODEL 2
REMARK VINA RESULT:      -6.2      5.686      7.262
REMARK  Name = 
REMARK  4 active torsions:
REMARK  status: ('A' for Active; 'I' for Inactive)
REMARK    1  A    between atoms: N_1  and  C_2
REMARK    2  A    between atoms: C_6  and  C_8
REMARK    3  A    between atoms: N_11  and  C_12
REMARK    4  A    between atoms: C_19  and  C_20
REMARK                            x       y       z     vdW  Elec       q    Type
REMARK                         _______ _______ _______ _____ _____    ______ ____
ROOT
ATOM      1  C   UNL     1       2.096   7.555  19.191  0.00  0.00    +0.000 A 
ATOM      2  C   UNL     1       2.337   7.945  17.862  0.00  0.00    +0.000 A 
ATOM      3  N   UNL     1       1.978   9.173  17.604  0.00  0.00    +0.000 NA
ATOM      4  N   UNL     1       1.472   9.650  18.778  0.00  0.00    +0.000 N 
ATOM      5  C   UNL     1       1.486   8.672  19.750  0.00  0.00    +0.000 A 
ENDROOT
BRANCH   1  10
ATOM      6  C   UNL     1       5.502   4.886  18.592  0.00  0.00    +0.000 C 
ATOM      7  C   UNL     1       4.785   3.635  19.105  0.00  0.00    +0.000 C 
ATOM      8  C   UNL     1       3.627   4.188  19.930  0.00  0.00    +0.000 C 
ATOM      9  N   UNL     1       3.329   5.478  19.329  0.00  0.00    +0.000 N 
ATOM     10  C   UNL     1       2.326   6.266  19.829  0.00  0.00    +0.000 C 
ATOM     11  O   UNL     1       1.636   5.888  20.775  0.00  0.00    +0.000 OA
ATOM     12  C   UNL     1       4.326   5.820  18.320  0.00  0.00    +0.000 C 
BRANCH   6  13
ATOM     13  N   UNL     1       6.409   5.448  19.597  0.00  0.00    +0.000 NA
ATOM     14  H   UNL     1       6.701   4.716  20.244  0.00  0.00    +0.000 HD
ATOM     15  H   UNL     1       5.922   6.148  20.160  0.00  0.00    +0.000 HD
ENDBRANCH   6  13
ENDBRANCH   1  10
BRANCH   4  16
ATOM     16  C   UNL     1       1.048  11.010  18.873  0.00  0.00    +0.000 A 
ATOM     17  N   UNL     1       1.957  11.930  19.305  0.00  0.00    +0.000 NA
ATOM     18  C   UNL     1       1.566  13.225  19.353  0.00  0.00    +0.000 A 
ATOM     19  C   UNL     1       0.311  13.659  18.965  0.00  0.00    +0.000 A 
ATOM     20  C   UNL     1      -0.615  12.708  18.554  0.00  0.00    +0.000 A 
ATOM     21  C   UNL     1      -0.263  11.357  18.533  0.00  0.00    +0.000 A 
ATOM     22 CL   UNL     1      -1.557  10.224  18.318  0.00  0.00    +0.000 Cl
ENDBRANCH   4  16
BRANCH   5  23
ATOM     23  C   UNL     1       0.825   8.860  21.057  0.00  0.00    +0.000 C 
ATOM     24  F   UNL     1       0.387  10.123  21.270  0.00  0.00    +0.000 F 
ATOM     25  F   UNL     1      -0.279   8.092  21.200  0.00  0.00    +0.000 F 
ATOM     26  F   UNL     1       1.660   8.596  22.091  0.00  0.00    +0.000 F 
ENDBRANCH   5  23
TORSDOF 4
ENDMDL
MODEL 3
REMARK VINA RESULT:      -6.2      4.095      5.356
REMARK  Name = 
REMARK  4 active torsions:
REMARK  status: ('A' for Active; 'I' for Inactive)
REMARK    1  A    between atoms: N_1  and  C_2
REMARK    2  A    between atoms: C_6  and  C_8
REMARK    3  A    between atoms: N_11  and  C_12
REMARK    4  A    between atoms: C_19  and  C_20
REMARK                            x       y       z     vdW  Elec       q    Type
REMARK                         _______ _______ _______ _____ _____    ______ ____
ROOT
ATOM      1  C   UNL     1       3.157   6.670  18.125  0.00  0.00    +0.000 A 
ATOM      2  C   UNL     1       3.142   7.952  17.548  0.00  0.00    +0.000 A 
ATOM      3  N   UNL     1       2.455   8.825  18.230  0.00  0.00    +0.000 NA
ATOM      4  N   UNL     1       1.975   8.138  19.308  0.00  0.00    +0.000 N 
ATOM      5  C   UNL     1       2.346   6.811  19.246  0.00  0.00    +0.000 A 
ENDROOT
BRANCH   1  10
ATOM      6  C   UNL     1       7.419   5.713  18.083  0.00  0.00    +0.000 C 
ATOM      7  C   UNL     1       7.305   4.635  17.002  0.00  0.00    +0.000 C 
ATOM      8  C   UNL     1       5.830   4.246  17.027  0.00  0.00    +0.000 C 
ATOM      9  N   UNL     1       5.141   5.439  17.491  0.00  0.00    +0.000 N 
ATOM     10  C   UNL     1       3.779   5.447  17.638  0.00  0.00    +0.000 C 
ATOM     11  O   UNL     1       3.106   4.457  17.350  0.00  0.00    +0.000 OA
ATOM     12  C   UNL     1       6.098   6.458  17.911  0.00  0.00    +0.000 C 
BRANCH   6  13
ATOM     13  N   UNL     1       7.534   5.133  19.425  0.00  0.00    +0.000 NA
ATOM     14  H   UNL     1       6.813   4.424  19.555  0.00  0.00    +0.000 HD
ATOM     15  H   UNL     1       7.362   5.848  20.134  0.00  0.00    +0.000 HD
ENDBRANCH   6  13
ENDBRANCH   1  10
BRANCH   4  16
ATOM     16  C   UNL     1       1.230   8.819  20.316  0.00  0.00    +0.000 A 
ATOM     17  N   UNL     1       1.570   8.597  21.618  0.00  0.00    +0.000 NA
ATOM     18  C   UNL     1       0.891   9.277  22.570  0.00  0.00    +0.000 A 
ATOM     19  C   UNL     1      -0.104  10.197  22.289  0.00  0.00    +0.000 A 
ATOM     20  C   UNL     1      -0.462  10.393  20.961  0.00  0.00    +0.000 A 
ATOM     21  C   UNL     1       0.186   9.677  19.952  0.00  0.00    +0.000 A 
ATOM     22 CL   UNL     1      -0.528   9.744  18.375  0.00  0.00    +0.000 Cl
ENDBRANCH   4  16
BRANCH   5  23
ATOM     23  C   UNL     1       1.807   5.804  20.181  0.00  0.00    +0.000 C 
ATOM     24  F   UNL     1       0.761   6.249  20.917  0.00  0.00    +0.000 F 
ATOM     25  F   UNL     1       1.330   4.706  19.550  0.00  0.00    +0.000 F 
ATOM     26  F   UNL     1       2.731   5.403  21.086  0.00  0.00    +0.000 F 
ENDBRANCH   5  23
TORSDOF 4
ENDMDL
MODEL 4
REMARK VINA RESULT:      -6.0      5.344      7.245
REMARK  Name = 
REMARK  4 active torsions:
REMARK  status: ('A' for Active; 'I' for Inactive)
REMARK    1  A    between atoms: N_1  and  C_2
REMARK    2  A    between atoms: C_6  and  C_8
REMARK    3  A    between atoms: N_11  and  C_12
REMARK    4  A    between atoms: C_19  and  C_20
REMARK                            x       y       z     vdW  Elec       q    Type
REMARK                         _______ _______ _______ _____ _____    ______ ____
ROOT
ATOM      1  C   UNL     1       1.372   9.125  18.926  0.00  0.00    +0.000 A 
ATOM      2  C   UNL     1       2.151   9.134  17.756  0.00  0.00    +0.000 A 
ATOM      3  N   UNL     1       2.890   8.068  17.612  0.00  0.00    +0.000 NA
ATOM      4  N   UNL     1       2.622   7.299  18.708  0.00  0.00    +0.000 N 
ATOM      5  C   UNL     1       1.738   7.938  19.550  0.00  0.00    +0.000 A 
ENDROOT
BRANCH   1  10
ATOM      6  C   UNL     1      -2.490  10.301  17.255  0.00  0.00    +0.000 C 
ATOM      7  C   UNL     1      -2.522  11.669  17.939  0.00  0.00    +0.000 C 
ATOM      8  C   UNL     1      -1.533  11.527  19.091  0.00  0.00    +0.000 C 
ATOM      9  N   UNL     1      -0.579  10.528  18.637  0.00  0.00    +0.000 N 
ATOM     10  C   UNL     1       0.465  10.145  19.437  0.00  0.00    +0.000 C 
ATOM     11  O   UNL     1       0.638  10.659  20.542  0.00  0.00    +0.000 OA
ATOM     12  C   UNL     1      -1.013   9.934  17.377  0.00  0.00    +0.000 C 
BRANCH   6  13
ATOM     13  N   UNL     1      -3.340   9.324  17.943  0.00  0.00    +0.000 NA
ATOM     14  H   UNL     1      -3.375   9.540  18.938  0.00  0.00    +0.000 HD
ATOM     15  H   UNL     1      -2.936   8.389  17.868  0.00  0.00    +0.000 HD
ENDBRANCH   6  13
ENDBRANCH   1  10
BRANCH   4  16
ATOM     16  C   UNL     1       3.215   6.006  18.835  0.00  0.00    +0.000 A 
ATOM     17  N   UNL     1       4.468   5.931  19.366  0.00  0.00    +0.000 NA
ATOM     18  C   UNL     1       5.010   4.702  19.526  0.00  0.00    +0.000 A 
ATOM     19  C   UNL     1       4.351   3.528  19.204  0.00  0.00    +0.000 A 
ATOM     20  C   UNL     1       3.087   3.620  18.637  0.00  0.00    +0.000 A 
ATOM     21  C   UNL     1       2.511   4.872  18.416  0.00  0.00    +0.000 A 
ATOM     22 CL   UNL     1       1.089   4.907  17.425  0.00  0.00    +0.000 Cl
ENDBRANCH   4  16
BRANCH   5  23
ATOM     23  C   UNL     1       1.423   7.417  20.895  0.00  0.00    +0.000 C 
ATOM     24  F   UNL     1       0.100   7.423  21.187  0.00  0.00    +0.000 F 
ATOM     25  F   UNL     1       1.796   6.126  21.057  0.00  0.00    +0.000 F 
ATOM     26  F   UNL     1       2.005   8.150  21.874  0.00  0.00    +0.000 F 
ENDBRANCH   5  23
TORSDOF 4
ENDMDL
MODEL 5
REMARK VINA RESULT:      -6.0      5.212      6.767
REMARK  Name = 
REMARK  4 active torsions:
REMARK  status: ('A' for Active; 'I' for Inactive)
REMARK    1  A    between atoms: N_1  and  C_2
REMARK    2  A    between atoms: C_6  and  C_8
REMARK    3  A    between atoms: N_11  and  C_12
REMARK    4  A    between atoms: C_19  and  C_20
REMARK                            x       y       z     vdW  Elec       q    Type
REMARK                         _______ _______ _______ _____ _____    ______ ____
ROOT
ATOM      1  C   UNL     1       2.765   7.342  18.868  0.00  0.00    +0.000 A 
ATOM      2  C   UNL     1       2.768   7.964  17.607  0.00  0.00    +0.000 A 
ATOM      3  N   UNL     1       2.032   9.039  17.553  0.00  0.00    +0.000 NA
ATOM      4  N   UNL     1       1.500   9.171  18.804  0.00  0.00    +0.000 N 
ATOM      5  C   UNL     1       1.891   8.125  19.613  0.00  0.00    +0.000 A 
ENDROOT
BRANCH   1  10
ATOM      6  C   UNL     1       1.426   3.240  18.181  0.00  0.00    +0.000 C 
ATOM      7  C   UNL     1       2.256   2.635  19.315  0.00  0.00    +0.000 C 
ATOM      8  C   UNL     1       3.335   3.681  19.578  0.00  0.00    +0.000 C 
ATOM      9  N   UNL     1       2.728   4.943  19.190  0.00  0.00    +0.000 N 
ATOM     10  C   UNL     1       3.429   6.116  19.293  0.00  0.00    +0.000 C 
ATOM     11  O   UNL     1       4.573   6.132  19.745  0.00  0.00    +0.000 OA
ATOM     12  C   UNL     1       1.433   4.720  18.554  0.00  0.00    +0.000 C 
BRANCH   6  13
ATOM     13  N   UNL     1       2.044   3.017  16.870  0.00  0.00    +0.000 NA
ATOM     14  H   UNL     1       2.211   2.021  16.734  0.00  0.00    +0.000 HD
ATOM     15  H   UNL     1       2.960   3.468  16.831  0.00  0.00    +0.000 HD
ENDBRANCH   6  13
ENDBRANCH   1  10
BRANCH   4  16
ATOM     16  C   UNL     1       0.691  10.303  19.121  0.00  0.00    +0.000 A 
ATOM     17  N   UNL     1       1.101  11.113  20.138  0.00  0.00    +0.000 NA
ATOM     18  C   UNL     1       0.356  12.209  20.408  0.00  0.00    +0.000 A 
ATOM     19  C   UNL     1      -0.777  12.558  19.694  0.00  0.00    +0.000 A 
ATOM     20  C   UNL     1      -1.201  11.709  18.679  0.00  0.00    +0.000 A 
ATOM     21  C   UNL     1      -0.482  10.545  18.398  0.00  0.00    +0.000 A 
ATOM     22 CL   UNL     1      -1.247   9.397  17.349  0.00  0.00    +0.000 Cl
ENDBRANCH   4  16
BRANCH   5  23
ATOM     23  C   UNL     1       1.312   7.916  20.955  0.00  0.00    +0.000 C 
ATOM     24  F   UNL     1      -0.003   8.232  21.037  0.00  0.00    +0.000 F 
ATOM     25  F   UNL     1       1.372   6.626  21.357  0.00  0.00    +0.000 F 
ATOM     26  F   UNL     1       1.918   8.680  21.895  0.00  0.00    +0.000 F 
ENDBRANCH   5  23
TORSDOF 4
ENDMDL
MODEL 6
REMARK VINA RESULT:      -6.0      2.646      5.951
REMARK  Name = 
REMARK  4 active torsions:
REMARK  status: ('A' for Active; 'I' for Inactive)
REMARK    1  A    between atoms: N_1  and  C_2
REMARK    2  A    between atoms: C_6  and  C_8
REMARK    3  A    between atoms: N_11  and  C_12
REMARK    4  A    between atoms: C_19  and  C_20
REMARK                            x       y       z     vdW  Elec       q    Type
REMARK                         _______ _______ _______ _____ _____    ______ ____
ROOT
ATOM      1  C   UNL     1       4.386   4.084  17.114  0.00  0.00    +0.000 A 
ATOM      2  C   UNL     1       5.517   3.697  16.374  0.00  0.00    +0.000 A 
ATOM      3  N   UNL     1       6.504   4.548  16.445  0.00  0.00    +0.000 NA
ATOM      4  N   UNL     1       6.050   5.553  17.249  0.00  0.00    +0.000 N 
ATOM      5  C   UNL     1       4.747   5.322  17.633  0.00  0.00    +0.000 A 
ENDROOT
BRANCH   1  10
ATOM      6  C   UNL     1       2.343   2.984  20.816  0.00  0.00    +0.000 C 
ATOM      7  C   UNL     1       1.449   1.924  20.167  0.00  0.00    +0.000 C 
ATOM      8  C   UNL     1       1.465   2.288  18.686  0.00  0.00    +0.000 C 
ATOM      9  N   UNL     1       2.744   2.947  18.481  0.00  0.00    +0.000 N 
ATOM     10  C   UNL     1       3.097   3.417  17.243  0.00  0.00    +0.000 C 
ATOM     11  O   UNL     1       2.356   3.264  16.273  0.00  0.00    +0.000 OA
ATOM     12  C   UNL     1       3.425   3.162  19.754  0.00  0.00    +0.000 C 
BRANCH   6  13
ATOM     13  N   UNL     1       1.620   4.237  21.056  0.00  0.00    +0.000 NA
ATOM     14  H   UNL     1       2.272   4.954  21.373  0.00  0.00    +0.000 HD
ATOM     15  H   UNL     1       0.943   4.115  21.810  0.00  0.00    +0.000 HD
ENDBRANCH   6  13
ENDBRANCH   1  10
BRANCH   4  16
ATOM     16  C   UNL     1       6.917   6.631  17.603  0.00  0.00    +0.000 A 
ATOM     17  N   UNL     1       6.876   7.758  16.836  0.00  0.00    +0.000 NA
ATOM     18  C   UNL     1       7.667   8.794  17.199  0.00  0.00    +0.000 A 
ATOM     19  C   UNL     1       8.486   8.776  18.314  0.00  0.00    +0.000 A 
ATOM     20  C   UNL     1       8.541   7.612  19.070  0.00  0.00    +0.000 A 
ATOM     21  C   UNL     1       7.772   6.506  18.703  0.00  0.00    +0.000 A 
ATOM     22 CL   UNL     1       8.136   5.011  19.501  0.00  0.00    +0.000 Cl
ENDBRANCH   4  16
BRANCH   5  23
ATOM     23  C   UNL     1       3.950   6.339  18.348  0.00  0.00    +0.000 C 
ATOM     24  F   UNL     1       2.618   6.093  18.340  0.00  0.00    +0.000 F 
ATOM     25  F   UNL     1       4.267   6.425  19.661  0.00  0.00    +0.000 F 
ATOM     26  F   UNL     1       4.086   7.570  17.800  0.00  0.00    +0.000 F 
ENDBRANCH   5  23
TORSDOF 4
ENDMDL
MODEL 7
REMARK VINA RESULT:      -5.8      2.240      6.316
REMARK  Name = 
REMARK  4 active torsions:
REMARK  status: ('A' for Active; 'I' for Inactive)
REMARK    1  A    between atoms: N_1  and  C_2
REMARK    2  A    between atoms: C_6  and  C_8
REMARK    3  A    between atoms: N_11  and  C_12
REMARK    4  A    between atoms: C_19  and  C_20
REMARK                            x       y       z     vdW  Elec       q    Type
REMARK                         _______ _______ _______ _____ _____    ______ ____
ROOT
ATOM      1  C   UNL     1       4.915   4.445  17.630  0.00  0.00    +0.000 A 
ATOM      2  C   UNL     1       5.160   3.129  17.201  0.00  0.00    +0.000 A 
ATOM      3  N   UNL     1       5.727   3.059  16.028  0.00  0.00    +0.000 NA
ATOM      4  N   UNL     1       5.878   4.355  15.627  0.00  0.00    +0.000 N 
ATOM      5  C   UNL     1       5.349   5.220  16.562  0.00  0.00    +0.000 A 
ENDROOT
BRANCH   1  10
ATOM      6  C   UNL     1       1.077   3.134  19.256  0.00  0.00    +0.000 C 
ATOM      7  C   UNL     1       0.867   4.377  20.125  0.00  0.00    +0.000 C 
ATOM      8  C   UNL     1       2.266   4.967  20.265  0.00  0.00    +0.000 C 
ATOM      9  N   UNL     1       2.965   4.553  19.060  0.00  0.00    +0.000 N 
ATOM     10  C   UNL     1       4.271   4.911  18.851  0.00  0.00    +0.000 C 
ATOM     11  O   UNL     1       4.871   5.615  19.662  0.00  0.00    +0.000 OA
ATOM     12  C   UNL     1       2.152   3.618  18.287  0.00  0.00    +0.000 C 
BRANCH   6  13
ATOM     13  N   UNL     1       1.544   1.989  20.043  0.00  0.00    +0.000 NA
ATOM     14  H   UNL     1       2.417   1.636  19.652  0.00  0.00    +0.000 HD
ATOM     15  H   UNL     1       0.873   1.221  19.982  0.00  0.00    +0.000 HD
ENDBRANCH   6  13
ENDBRANCH   1  10
BRANCH   4  16
ATOM     16  C   UNL     1       6.544   4.651  14.400  0.00  0.00    +0.000 A 
ATOM     17  N   UNL     1       7.631   5.473  14.448  0.00  0.00    +0.000 NA
ATOM     18  C   UNL     1       8.285   5.717  13.290  0.00  0.00    +0.000 A 
ATOM     19  C   UNL     1       7.925   5.158  12.076  0.00  0.00    +0.000 A 
ATOM     20  C   UNL     1       6.799   4.346  12.035  0.00  0.00    +0.000 A 
ATOM     21  C   UNL     1       6.071   4.105  13.201  0.00  0.00    +0.000 A 
ATOM     22 CL   UNL     1       4.522   3.354  13.006  0.00  0.00    +0.000 Cl
ENDBRANCH   4  16
BRANCH   5  23
ATOM     23  C   UNL     1       5.208   6.666  16.297  0.00  0.00    +0.000 C 
ATOM     24  F   UNL     1       4.963   6.961  14.998  0.00  0.00    +0.000 F 
ATOM     25  F   UNL     1       4.175   7.224  16.969  0.00  0.00    +0.000 F 
ATOM     26  F   UNL     1       6.334   7.352  16.609  0.00  0.00    +0.000 F 
ENDBRANCH   5  23
TORSDOF 4
ENDMDL
MODEL 8
REMARK VINA RESULT:      -5.8      8.909     11.566
REMARK  Name = 
REMARK  4 active torsions:
REMARK  status: ('A' for Active; 'I' for Inactive)
REMARK    1  A    between atoms: N_1  and  C_2
REMARK    2  A    between atoms: C_6  and  C_8
REMARK    3  A    between atoms: N_11  and  C_12
REMARK    4  A    between atoms: C_19  and  C_20
REMARK                            x       y       z     vdW  Elec       q    Type
REMARK                         _______ _______ _______ _____ _____    ______ ____
ROOT
ATOM      1  C   UNL     1      -1.217  13.078  21.052  0.00  0.00    +0.000 A 
ATOM      2  C   UNL     1      -0.125  12.905  21.920  0.00  0.00    +0.000 A 
ATOM      3  N   UNL     1       0.682  11.946  21.560  0.00  0.00    +0.000 NA
ATOM      4  N   UNL     1       0.141  11.435  20.415  0.00  0.00    +0.000 N 
ATOM      5  C   UNL     1      -1.042  12.073  20.108  0.00  0.00    +0.000 A 
ENDROOT
BRANCH   1  10
ATOM      6  C   UNL     1      -4.562  12.916  23.858  0.00  0.00    +0.000 C 
ATOM      7  C   UNL     1      -5.487  13.799  23.016  0.00  0.00    +0.000 C 
ATOM      8  C   UNL     1      -4.536  14.544  22.086  0.00  0.00    +0.000 C 
ATOM      9  N   UNL     1      -3.398  13.653  21.930  0.00  0.00    +0.000 N 
ATOM     10  C   UNL     1      -2.332  14.011  21.147  0.00  0.00    +0.000 C 
ATOM     11  O   UNL     1      -2.328  15.078  20.534  0.00  0.00    +0.000 OA
ATOM     12  C   UNL     1      -3.511  12.508  22.828  0.00  0.00    +0.000 C 
BRANCH   6  13
ATOM     13  N   UNL     1      -3.960  13.657  24.970  0.00  0.00    +0.000 NA
ATOM     14  H   UNL     1      -2.998  13.901  24.739  0.00  0.00    +0.000 HD
ATOM     15  H   UNL     1      -3.913  13.067  25.802  0.00  0.00    +0.000 HD
ENDBRANCH   6  13
ENDBRANCH   1  10
BRANCH   4  16
ATOM     16  C   UNL     1       0.820  10.402  19.702  0.00  0.00    +0.000 A 
ATOM     17  N   UNL     1       1.368  10.719  18.494  0.00  0.00    +0.000 NA
ATOM     18  C   UNL     1       2.049   9.750  17.840  0.00  0.00    +0.000 A 
ATOM     19  C   UNL     1       2.237   8.475  18.344  0.00  0.00    +0.000 A 
ATOM     20  C   UNL     1       1.649   8.156  19.561  0.00  0.00    +0.000 A 
ATOM     21  C   UNL     1       0.902   9.116  20.246  0.00  0.00    +0.000 A 
ATOM     22 CL   UNL     1      -0.050   8.550  21.580  0.00  0.00    +0.000 Cl
ENDBRANCH   4  16
BRANCH   5  23
ATOM     23  C   UNL     1      -1.931  11.594  19.030  0.00  0.00    +0.000 C 
ATOM     24  F   UNL     1      -3.237  11.893  19.228  0.00  0.00    +0.000 F 
ATOM     25  F   UNL     1      -1.640  12.143  17.828  0.00  0.00    +0.000 F 
ATOM     26  F   UNL     1      -1.892  10.247  18.899  0.00  0.00    +0.000 F 
ENDBRANCH   5  23
TORSDOF 4
ENDMDL
MODEL 9
REMARK VINA RESULT:      -5.7      4.824      6.831
REMARK  Name = 
REMARK  4 active torsions:
REMARK  status: ('A' for Active; 'I' for Inactive)
REMARK    1  A    between atoms: N_1  and  C_2
REMARK    2  A    between atoms: C_6  and  C_8
REMARK    3  A    between atoms: N_11  and  C_12
REMARK    4  A    between atoms: C_19  and  C_20
REMARK                            x       y       z     vdW  Elec       q    Type
REMARK                         _______ _______ _______ _____ _____    ______ ____
ROOT
ATOM      1  C   UNL     1       1.872   8.223  19.126  0.00  0.00    +0.000 A 
ATOM      2  C   UNL     1       2.696   8.363  17.995  0.00  0.00    +0.000 A 
ATOM      3  N   UNL     1       3.212   7.239  17.582  0.00  0.00    +0.000 NA
ATOM      4  N   UNL     1       2.740   6.292  18.445  0.00  0.00    +0.000 N 
ATOM      5  C   UNL     1       1.960   6.869  19.425  0.00  0.00    +0.000 A 
ENDROOT
BRANCH   1  10
ATOM      6  C   UNL     1      -1.516  10.630  17.778  0.00  0.00    +0.000 C 
ATOM      7  C   UNL     1      -1.312  11.741  18.812  0.00  0.00    +0.000 C 
ATOM      8  C   UNL     1      -0.466  11.082  19.896  0.00  0.00    +0.000 C 
ATOM      9  N   UNL     1       0.288  10.052  19.201  0.00  0.00    +0.000 N 
ATOM     10  C   UNL     1       1.164   9.247  19.882  0.00  0.00    +0.000 C 
ATOM     11  O   UNL     1       1.355   9.399  21.088  0.00  0.00    +0.000 OA
ATOM     12  C   UNL     1      -0.163   9.925  17.819  0.00  0.00    +0.000 C 
BRANCH   6  13
ATOM     13  N   UNL     1      -2.603   9.722  18.157  0.00  0.00    +0.000 NA
ATOM     14  H   UNL     1      -2.550   9.521  19.155  0.00  0.00    +0.000 HD
ATOM     15  H   UNL     1      -2.497   8.826  17.679  0.00  0.00    +0.000 HD
ENDBRANCH   6  13
ENDBRANCH   1  10
BRANCH   4  16
ATOM     16  C   UNL     1       3.054   4.915  18.237  0.00  0.00    +0.000 A 
ATOM     17  N   UNL     1       2.067   4.103  17.762  0.00  0.00    +0.000 NA
ATOM     18  C   UNL     1       2.379   2.808  17.524  0.00  0.00    +0.000 A 
ATOM     19  C   UNL     1       3.644   2.280  17.713  0.00  0.00    +0.000 A 
ATOM     20  C   UNL     1       4.633   3.110  18.225  0.00  0.00    +0.000 A 
ATOM     21  C   UNL     1       4.339   4.441  18.524  0.00  0.00    +0.000 A 
ATOM     22 CL   UNL     1       5.524   5.308  19.444  0.00  0.00    +0.000 Cl
ENDBRANCH   4  16
BRANCH   5  23
ATOM     23  C   UNL     1       1.479   6.104  20.592  0.00  0.00    +0.000 C 
ATOM     24  F   UNL     1       0.701   5.044  20.267  0.00  0.00    +0.000 F 
ATOM     25  F   UNL     1       2.487   5.570  21.320  0.00  0.00    +0.000 F 
ATOM     26  F   UNL     1       0.718   6.861  21.418  0.00  0.00    +0.000 F 
ENDBRANCH   5  23
TORSDOF 4
ENDMDL
