MODEL 1
REMARK VINA RESULT:      -7.2      0.000      0.000
REMARK  Name = 
REMARK  9 active torsions:
REMARK  status: ('A' for Active; 'I' for Inactive)
REMARK    1  A    between atoms: C_1  and  C_2
REMARK    2  A    between atoms: C_2  and  O_3
REMARK    3  A    between atoms: O_3  and  C_4
REMARK    4  A    between atoms: C_4  and  C_6
REMARK    5  A    between atoms: C_9  and  N_10
REMARK    6  A    between atoms: C_11  and  S_12
REMARK    7  A    between atoms: N_13  and  C_14
REMARK    8  A    between atoms: C_14  and  C_15
REMARK    9  A    between atoms: C_15  and  C_16
REMARK                            x       y       z     vdW  Elec       q    Type
REMARK                         _______ _______ _______ _____ _____    ______ ____
ROOT
ATOM      1  N   UNL     1       5.908   7.415  17.042  0.00  0.00    +0.000 N 
ATOM      2  C   UNL     1       7.133   7.705  17.590  0.00  0.00    +0.000 C 
ATOM      3  N   UNL     1       7.667   8.860  17.315  0.00  0.00    +0.000 NA
ATOM      4  H   UNL     1       5.499   8.213  16.573  0.00  0.00    +0.000 HD
ENDROOT
BRANCH   1   8
ATOM      5  C   UNL     1       3.601   3.902  17.533  0.00  0.00    +0.000 A 
ATOM      6  C   UNL     1       3.312   5.061  18.258  0.00  0.00    +0.000 A 
ATOM      7  C   UNL     1       4.053   6.230  18.041  0.00  0.00    +0.000 A 
ATOM      8  C   UNL     1       5.085   6.271  17.090  0.00  0.00    +0.000 A 
ATOM      9  C   UNL     1       5.296   5.121  16.317  0.00  0.00    +0.000 A 
ATOM     10  C   UNL     1       4.581   3.941  16.543  0.00  0.00    +0.000 A 
BRANCH   5  11
ATOM     11  C   UNL     1       2.848   2.642  17.736  0.00  0.00    +0.000 C 
ATOM     12  O   UNL     1       3.370   1.546  17.841  0.00  0.00    +0.000 OA
BRANCH  11  13
ATOM     13  O   UNL     1       1.519   2.912  17.724  0.00  0.00    +0.000 OA
BRANCH  13  15
ATOM     14  C   UNL     1       0.820   3.213  19.976  0.00  0.00    +0.000 C 
ATOM     15  C   UNL     1       0.759   2.295  18.769  0.00  0.00    +0.000 C 
ENDBRANCH  13  15
ENDBRANCH  11  13
ENDBRANCH   5  11
ENDBRANCH   1   8
BRANCH   2  16
ATOM     16  S   UNL     1       7.902   6.560  18.701  0.00  0.00    +0.000 S 
ATOM     17  H   UNL     1       7.279   5.470  18.241  0.00  0.00    +0.000 HD
ENDBRANCH   2  16
BRANCH   3  18
ATOM     18  C   UNL     1       8.959   9.169  17.944  0.00  0.00    +0.000 C 
BRANCH  18  19
ATOM     19  C   UNL     1       8.834  10.166  19.092  0.00  0.00    +0.000 C 
BRANCH  19  20
ATOM     20  C   UNL     1       9.964  11.167  18.972  0.00  0.00    +0.000 A 
ATOM     21  C   UNL     1      10.522  11.464  17.720  0.00  0.00    +0.000 A 
ATOM     22  C   UNL     1      11.667  12.261  17.624  0.00  0.00    +0.000 A 
ATOM     23  C   UNL     1      12.266  12.772  18.777  0.00  0.00    +0.000 A 
ATOM     24  C   UNL     1      11.714  12.494  20.025  0.00  0.00    +0.000 A 
ATOM     25  C   UNL     1      10.573  11.699  20.115  0.00  0.00    +0.000 A 
ATOM     26  F   UNL     1      10.087  11.405  21.329  0.00  0.00    +0.000 F 
ENDBRANCH  19  20
ENDBRANCH  18  19
ENDBRANCH   3  18
TORSDOF 8
ENDMDL
MODEL 2
REMARK VINA RESULT:      -7.2      5.534      8.062
REMARK  Name = 
REMARK  9 active torsions:
REMARK  status: ('A' for Active; 'I' for Inactive)
REMARK    1  A    between atoms: C_1  and  C_2
REMARK    2  A    between atoms: C_2  and  O_3
REMARK    3  A    between atoms: O_3  and  C_4
REMARK    4  A    between atoms: C_4  and  C_6
REMARK    5  A    between atoms: C_9  and  N_10
REMARK    6  A    between atoms: C_11  and  S_12
REMARK    7  A    between atoms: N_13  and  C_14
REMARK    8  A    between atoms: C_14  and  C_15
REMARK    9  A    between atoms: C_15  and  C_16
REMARK                            x       y       z     vdW  Elec       q    Type
REMARK                         _______ _______ _______ _____ _____    ______ ____
ROOT
ATOM      1  N   UNL     1       3.289   6.001  18.995  0.00  0.00    +0.000 N 
ATOM      2  C   UNL     1       2.387   6.974  19.346  0.00  0.00    +0.000 C 
ATOM      3  N   UNL     1       1.820   6.890  20.516  0.00  0.00    +0.000 NA
ATOM      4  H   UNL     1       3.503   5.381  19.766  0.00  0.00    +0.000 HD
ENDROOT
BRANCH   1   8
ATOM      5  C   UNL     1       5.748   5.051  15.686  0.00  0.00    +0.000 A 
ATOM      6  C   UNL     1       4.813   4.135  16.175  0.00  0.00    +0.000 A 
ATOM      7  C   UNL     1       3.970   4.489  17.237  0.00  0.00    +0.000 A 
ATOM      8  C   UNL     1       4.033   5.763  17.821  0.00  0.00    +0.000 A 
ATOM      9  C   UNL     1       4.919   6.690  17.256  0.00  0.00    +0.000 A 
ATOM     10  C   UNL     1       5.783   6.340  16.213  0.00  0.00    +0.000 A 
BRANCH   5  11
ATOM     11  C   UNL     1       6.663   4.716  14.570  0.00  0.00    +0.000 C 
ATOM     12  O   UNL     1       7.662   5.357  14.293  0.00  0.00    +0.000 OA
BRANCH  11  13
ATOM     13  O   UNL     1       6.175   3.643  13.901  0.00  0.00    +0.000 OA
BRANCH  13  15
ATOM     14  C   UNL     1       5.196   3.063  11.814  0.00  0.00    +0.000 C 
ATOM     15  C   UNL     1       6.430   3.630  12.492  0.00  0.00    +0.000 C 
ENDBRANCH  13  15
ENDBRANCH  11  13
ENDBRANCH   5  11
ENDBRANCH   1   8
BRANCH   2  16
ATOM     16  S   UNL     1       2.085   8.338  18.257  0.00  0.00    +0.000 S 
ATOM     17  H   UNL     1       3.148   8.137  17.472  0.00  0.00    +0.000 HD
ENDBRANCH   2  16
BRANCH   3  18
ATOM     18  C   UNL     1       0.888   7.963  20.889  0.00  0.00    +0.000 C 
BRANCH  18  19
ATOM     19  C   UNL     1       1.451   8.887  21.965  0.00  0.00    +0.000 C 
BRANCH  19  20
ATOM     20  C   UNL     1       0.491  10.044  22.142  0.00  0.00    +0.000 A 
ATOM     21  C   UNL     1      -0.510   9.996  23.123  0.00  0.00    +0.000 A 
ATOM     22  C   UNL     1      -1.494  10.987  23.182  0.00  0.00    +0.000 A 
ATOM     23  C   UNL     1      -1.489  12.038  22.263  0.00  0.00    +0.000 A 
ATOM     24  C   UNL     1      -0.493  12.103  21.291  0.00  0.00    +0.000 A 
ATOM     25  C   UNL     1       0.486  11.113  21.238  0.00  0.00    +0.000 A 
ATOM     26  F   UNL     1       1.406  11.170  20.265  0.00  0.00    +0.000 F 
ENDBRANCH  19  20
ENDBRANCH  18  19
ENDBRANCH   3  18
TORSDOF 8
ENDMDL
MODEL 3
REMARK VINA RESULT:      -7.2      5.569      8.162
REMARK  Name = 
REMARK  9 active torsions:
REMARK  status: ('A' for Active; 'I' for Inactive)
REMARK    1  A    between atoms: C_1  and  C_2
REMARK    2  A    between atoms: C_2  and  O_3
REMARK    3  A    between atoms: O_3  and  C_4
REMARK    4  A    between atoms: C_4  and  C_6
REMARK    5  A    between atoms: C_9  and  N_10
REMARK    6  A    between atoms: C_11  and  S_12
REMARK    7  A    between atoms: N_13  and  C_14
REMARK    8  A    between atoms: C_14  and  C_15
REMARK    9  A    between atoms: C_15  and  C_16
REMARK                            x       y       z     vdW  Elec       q    Type
REMARK                         _______ _______ _______ _____ _____    ______ ____
ROOT
ATOM      1  N   UNL     1       3.642   5.997  18.909  0.00  0.00    +0.000 N 
ATOM      2  C   UNL     1       2.782   7.061  19.026  0.00  0.00    +0.000 C 
ATOM      3  N   UNL     1       2.095   7.173  20.126  0.00  0.00    +0.000 NA
ATOM      4  H   UNL     1       3.732   5.480  19.774  0.00  0.00    +0.000 HD
ENDROOT
BRANCH   1   8
ATOM      5  C   UNL     1       6.054   4.992  15.581  0.00  0.00    +0.000 A 
ATOM      6  C   UNL     1       6.426   6.016  16.457  0.00  0.00    +0.000 A 
ATOM      7  C   UNL     1       5.642   6.296  17.584  0.00  0.00    +0.000 A 
ATOM      8  C   UNL     1       4.483   5.556  17.866  0.00  0.00    +0.000 A 
ATOM      9  C   UNL     1       4.181   4.482  17.019  0.00  0.00    +0.000 A 
ATOM     10  C   UNL     1       4.942   4.208  15.878  0.00  0.00    +0.000 A 
BRANCH   5  11
ATOM     11  C   UNL     1       6.850   4.666  14.374  0.00  0.00    +0.000 C 
ATOM     12  O   UNL     1       7.766   5.354  13.957  0.00  0.00    +0.000 OA
BRANCH  11  13
ATOM     13  O   UNL     1       6.356   3.539  13.807  0.00  0.00    +0.000 OA
BRANCH  13  15
ATOM     14  C   UNL     1       4.846   3.435  11.974  0.00  0.00    +0.000 C 
ATOM     15  C   UNL     1       6.305   3.544  12.375  0.00  0.00    +0.000 C 
ENDBRANCH  13  15
ENDBRANCH  11  13
ENDBRANCH   5  11
ENDBRANCH   1   8
BRANCH   2  16
ATOM     16  S   UNL     1       2.693   8.275  17.740  0.00  0.00    +0.000 S 
ATOM     17  H   UNL     1       1.782   9.052  18.335  0.00  0.00    +0.000 HD
ENDBRANCH   2  16
BRANCH   3  18
ATOM     18  C   UNL     1       1.210   8.340  20.248  0.00  0.00    +0.000 C 
BRANCH  18  19
ATOM     19  C   UNL     1       0.663   8.521  21.662  0.00  0.00    +0.000 C 
BRANCH  19  20
ATOM     20  C   UNL     1      -0.199   9.766  21.677  0.00  0.00    +0.000 A 
ATOM     21  C   UNL     1      -0.439  10.480  20.494  0.00  0.00    +0.000 A 
ATOM     22  C   UNL     1      -1.097  11.714  20.532  0.00  0.00    +0.000 A 
ATOM     23  C   UNL     1      -1.525  12.246  21.749  0.00  0.00    +0.000 A 
ATOM     24  C   UNL     1      -1.302  11.540  22.929  0.00  0.00    +0.000 A 
ATOM     25  C   UNL     1      -0.646  10.311  22.886  0.00  0.00    +0.000 A 
ATOM     26  F   UNL     1      -0.400   9.672  24.039  0.00  0.00    +0.000 F 
ENDBRANCH  19  20
ENDBRANCH  18  19
ENDBRANCH   3  18
TORSDOF 8
ENDMDL
MODEL 4
REMARK VINA RESULT:      -6.7      6.682      9.257
REMARK  Name = 
REMARK  9 active torsions:
REMARK  status: ('A' for Active; 'I' for Inactive)
REMARK    1  A    between atoms: C_1  and  C_2
REMARK    2  A    between atoms: C_2  and  O_3
REMARK    3  A    between atoms: O_3  and  C_4
REMARK    4  A    between atoms: C_4  and  C_6
REMARK    5  A    between atoms: C_9  and  N_10
REMARK    6  A    between atoms: C_11  and  S_12
REMARK    7  A    between atoms: N_13  and  C_14
REMARK    8  A    between atoms: C_14  and  C_15
REMARK    9  A    between atoms: C_15  and  C_16
REMARK                            x       y       z     vdW  Elec       q    Type
REMARK                         _______ _______ _______ _____ _____    ______ ____
ROOT
ATOM      1  N   UNL     1       2.403   6.459  17.784  0.00  0.00    +0.000 N 
ATOM      2  C   UNL     1       3.315   5.460  18.022  0.00  0.00    +0.000 C 
ATOM      3  N   UNL     1       3.297   4.417  17.243  0.00  0.00    +0.000 NA
ATOM      4  H   UNL     1       1.891   6.312  16.924  0.00  0.00    +0.000 HD
ENDROOT
BRANCH   1   8
ATOM      5  C   UNL     1       1.181   9.983  19.782  0.00  0.00    +0.000 A 
ATOM      6  C   UNL     1       1.317   8.774  20.471  0.00  0.00    +0.000 A 
ATOM      7  C   UNL     1       1.776   7.631  19.802  0.00  0.00    +0.000 A 
ATOM      8  C   UNL     1       2.120   7.673  18.442  0.00  0.00    +0.000 A 
ATOM      9  C   UNL     1       2.056   8.916  17.798  0.00  0.00    +0.000 A 
ATOM     10  C   UNL     1       1.575  10.057  18.448  0.00  0.00    +0.000 A 
BRANCH   5  11
ATOM     11  C   UNL     1       0.693  11.213  20.447  0.00  0.00    +0.000 C 
ATOM     12  O   UNL     1       1.394  11.943  21.127  0.00  0.00    +0.000 OA
BRANCH  11  13
ATOM     13  O   UNL     1      -0.638  11.344  20.221  0.00  0.00    +0.000 OA
BRANCH  13  15
ATOM     14  C   UNL     1      -1.674  11.954  18.171  0.00  0.00    +0.000 C 
ATOM     15  C   UNL     1      -1.018  12.479  19.435  0.00  0.00    +0.000 C 
ENDBRANCH  13  15
ENDBRANCH  11  13
ENDBRANCH   5  11
ENDBRANCH   1   8
BRANCH   2  16
ATOM     16  S   UNL     1       4.523   5.649  19.304  0.00  0.00    +0.000 S 
ATOM     17  H   UNL     1       5.050   4.426  19.189  0.00  0.00    +0.000 HD
ENDBRANCH   2  16
BRANCH   3  18
ATOM     18  C   UNL     1       4.307   3.378  17.489  0.00  0.00    +0.000 C 
BRANCH  18  19
ATOM     19  C   UNL     1       3.691   2.035  17.871  0.00  0.00    +0.000 C 
BRANCH  19  20
ATOM     20  C   UNL     1       2.823   2.245  19.093  0.00  0.00    +0.000 A 
ATOM     21  C   UNL     1       1.447   2.477  18.958  0.00  0.00    +0.000 A 
ATOM     22  C   UNL     1       0.674   2.831  20.069  0.00  0.00    +0.000 A 
ATOM     23  C   UNL     1       1.267   2.955  21.326  0.00  0.00    +0.000 A 
ATOM     24  C   UNL     1       2.631   2.716  21.476  0.00  0.00    +0.000 A 
ATOM     25  C   UNL     1       3.396   2.363  20.365  0.00  0.00    +0.000 A 
ATOM     26  F   UNL     1       4.715   2.184  20.523  0.00  0.00    +0.000 F 
ENDBRANCH  19  20
ENDBRANCH  18  19
ENDBRANCH   3  18
TORSDOF 8
ENDMDL
MODEL 5
REMARK VINA RESULT:      -6.7      1.245      1.467
REMARK  Name = 
REMARK  9 active torsions:
REMARK  status: ('A' for Active; 'I' for Inactive)
REMARK    1  A    between atoms: C_1  and  C_2
REMARK    2  A    between atoms: C_2  and  O_3
REMARK    3  A    between atoms: O_3  and  C_4
REMARK    4  A    between atoms: C_4  and  C_6
REMARK    5  A    between atoms: C_9  and  N_10
REMARK    6  A    between atoms: C_11  and  S_12
REMARK    7  A    between atoms: N_13  and  C_14
REMARK    8  A    between atoms: C_14  and  C_15
REMARK    9  A    between atoms: C_15  and  C_16
REMARK                            x       y       z     vdW  Elec       q    Type
REMARK                         _______ _______ _______ _____ _____    ______ ____
ROOT
ATOM      1  N   UNL     1       5.833   7.160  17.326  0.00  0.00    +0.000 N 
ATOM      2  C   UNL     1       7.089   7.499  17.766  0.00  0.00    +0.000 C 
ATOM      3  N   UNL     1       7.550   8.675  17.454  0.00  0.00    +0.000 NA
ATOM      4  H   UNL     1       5.353   7.943  16.900  0.00  0.00    +0.000 HD
ENDROOT
BRANCH   1   8
ATOM      5  C   UNL     1       3.815   3.483  17.880  0.00  0.00    +0.000 A 
ATOM      6  C   UNL     1       3.901   4.421  18.912  0.00  0.00    +0.000 A 
ATOM      7  C   UNL     1       4.525   5.655  18.692  0.00  0.00    +0.000 A 
ATOM      8  C   UNL     1       5.064   5.984  17.438  0.00  0.00    +0.000 A 
ATOM      9  C   UNL     1       4.889   5.061  16.398  0.00  0.00    +0.000 A 
ATOM     10  C   UNL     1       4.290   3.816  16.613  0.00  0.00    +0.000 A 
BRANCH   5  11
ATOM     11  C   UNL     1       3.170   2.163  18.071  0.00  0.00    +0.000 C 
ATOM     12  O   UNL     1       3.750   1.175  18.488  0.00  0.00    +0.000 OA
BRANCH  11  13
ATOM     13  O   UNL     1       1.880   2.235  17.658  0.00  0.00    +0.000 OA
BRANCH  13  15
ATOM     14  C   UNL     1       0.983   2.424  19.851  0.00  0.00    +0.000 C 
ATOM     15  C   UNL     1       1.021   3.047  18.467  0.00  0.00    +0.000 C 
ENDBRANCH  13  15
ENDBRANCH  11  13
ENDBRANCH   5  11
ENDBRANCH   1   8
BRANCH   2  16
ATOM     16  S   UNL     1       7.997   6.382  18.798  0.00  0.00    +0.000 S 
ATOM     17  H   UNL     1       6.937   5.710  19.256  0.00  0.00    +0.000 HD
ENDBRANCH   2  16
BRANCH   3  18
ATOM     18  C   UNL     1       8.879   9.034  17.969  0.00  0.00    +0.000 C 
BRANCH  18  19
ATOM     19  C   UNL     1       8.828  10.150  19.009  0.00  0.00    +0.000 C 
BRANCH  19  20
ATOM     20  C   UNL     1       9.774  11.247  18.569  0.00  0.00    +0.000 A 
ATOM     21  C   UNL     1      11.056  11.350  19.128  0.00  0.00    +0.000 A 
ATOM     22  C   UNL     1      11.868  12.452  18.844  0.00  0.00    +0.000 A 
ATOM     23  C   UNL     1      11.410  13.463  17.997  0.00  0.00    +0.000 A 
ATOM     24  C   UNL     1      10.143  13.367  17.427  0.00  0.00    +0.000 A 
ATOM     25  C   UNL     1       9.338  12.266  17.713  0.00  0.00    +0.000 A 
ATOM     26  F   UNL     1       8.104  12.217  17.191  0.00  0.00    +0.000 F 
ENDBRANCH  19  20
ENDBRANCH  18  19
ENDBRANCH   3  18
TORSDOF 8
ENDMDL
MODEL 6
REMARK VINA RESULT:      -6.6      6.716      9.233
REMARK  Name = 
REMARK  9 active torsions:
REMARK  status: ('A' for Active; 'I' for Inactive)
REMARK    1  A    between atoms: C_1  and  C_2
REMARK    2  A    between atoms: C_2  and  O_3
REMARK    3  A    between atoms: O_3  and  C_4
REMARK    4  A    between atoms: C_4  and  C_6
REMARK    5  A    between atoms: C_9  and  N_10
REMARK    6  A    between atoms: C_11  and  S_12
REMARK    7  A    between atoms: N_13  and  C_14
REMARK    8  A    between atoms: C_14  and  C_15
REMARK    9  A    between atoms: C_15  and  C_16
REMARK                            x       y       z     vdW  Elec       q    Type
REMARK                         _______ _______ _______ _____ _____    ______ ____
ROOT
ATOM      1  N   UNL     1       2.384   6.455  17.837  0.00  0.00    +0.000 N 
ATOM      2  C   UNL     1       3.309   5.462  18.043  0.00  0.00    +0.000 C 
ATOM      3  N   UNL     1       3.301   4.441  17.235  0.00  0.00    +0.000 NA
ATOM      4  H   UNL     1       1.870   6.326  16.974  0.00  0.00    +0.000 HD
ENDROOT
BRANCH   1   8
ATOM      5  C   UNL     1       1.131   9.889  19.967  0.00  0.00    +0.000 A 
ATOM      6  C   UNL     1       1.386   8.684  20.628  0.00  0.00    +0.000 A 
ATOM      7  C   UNL     1       1.853   7.574  19.912  0.00  0.00    +0.000 A 
ATOM      8  C   UNL     1       2.087   7.646  18.530  0.00  0.00    +0.000 A 
ATOM      9  C   UNL     1       1.905   8.889  17.909  0.00  0.00    +0.000 A 
ATOM     10  C   UNL     1       1.416   9.997  18.607  0.00  0.00    +0.000 A 
BRANCH   5  11
ATOM     11  C   UNL     1       0.631  11.085  20.684  0.00  0.00    +0.000 C 
ATOM     12  O   UNL     1       0.362  12.143  20.139  0.00  0.00    +0.000 OA
BRANCH  11  13
ATOM     13  O   UNL     1       0.583  10.820  22.013  0.00  0.00    +0.000 OA
BRANCH  13  15
ATOM     14  C   UNL     1      -1.227  12.034  22.962  0.00  0.00    +0.000 C 
ATOM     15  C   UNL     1      -0.731  10.657  22.559  0.00  0.00    +0.000 C 
ENDBRANCH  13  15
ENDBRANCH  11  13
ENDBRANCH   5  11
ENDBRANCH   1   8
BRANCH   2  16
ATOM     16  S   UNL     1       4.519   5.630  19.326  0.00  0.00    +0.000 S 
ATOM     17  H   UNL     1       3.688   5.386  20.344  0.00  0.00    +0.000 HD
ENDBRANCH   2  16
BRANCH   3  18
ATOM     18  C   UNL     1       4.325   3.409  17.448  0.00  0.00    +0.000 C 
BRANCH  18  19
ATOM     19  C   UNL     1       3.729   2.053  17.816  0.00  0.00    +0.000 C 
BRANCH  19  20
ATOM     20  C   UNL     1       2.844   2.242  19.030  0.00  0.00    +0.000 A 
ATOM     21  C   UNL     1       1.464   2.440  18.880  0.00  0.00    +0.000 A 
ATOM     22  C   UNL     1       0.671   2.775  19.983  0.00  0.00    +0.000 A 
ATOM     23  C   UNL     1       1.248   2.914  21.246  0.00  0.00    +0.000 A 
ATOM     24  C   UNL     1       2.616   2.708  21.410  0.00  0.00    +0.000 A 
ATOM     25  C   UNL     1       3.401   2.375  20.307  0.00  0.00    +0.000 A 
ATOM     26  F   UNL     1       4.722   2.228  20.479  0.00  0.00    +0.000 F 
ENDBRANCH  19  20
ENDBRANCH  18  19
ENDBRANCH   3  18
TORSDOF 8
ENDMDL
MODEL 7
REMARK VINA RESULT:      -6.6      5.783      8.063
REMARK  Name = 
REMARK  9 active torsions:
REMARK  status: ('A' for Active; 'I' for Inactive)
REMARK    1  A    between atoms: C_1  and  C_2
REMARK    2  A    between atoms: C_2  and  O_3
REMARK    3  A    between atoms: O_3  and  C_4
REMARK    4  A    between atoms: C_4  and  C_6
REMARK    5  A    between atoms: C_9  and  N_10
REMARK    6  A    between atoms: C_11  and  S_12
REMARK    7  A    between atoms: N_13  and  C_14
REMARK    8  A    between atoms: C_14  and  C_15
REMARK    9  A    between atoms: C_15  and  C_16
REMARK                            x       y       z     vdW  Elec       q    Type
REMARK                         _______ _______ _______ _____ _____    ______ ____
ROOT
ATOM      1  N   UNL     1       3.419   6.113  19.049  0.00  0.00    +0.000 N 
ATOM      2  C   UNL     1       2.466   7.064  19.318  0.00  0.00    +0.000 C 
ATOM      3  N   UNL     1       1.908   7.056  20.494  0.00  0.00    +0.000 NA
ATOM      4  H   UNL     1       3.668   5.578  19.872  0.00  0.00    +0.000 HD
ENDROOT
BRANCH   1   8
ATOM      5  C   UNL     1       5.973   5.110  15.829  0.00  0.00    +0.000 A 
ATOM      6  C   UNL     1       5.383   4.117  16.617  0.00  0.00    +0.000 A 
ATOM      7  C   UNL     1       4.497   4.469  17.644  0.00  0.00    +0.000 A 
ATOM      8  C   UNL     1       4.171   5.810  17.896  0.00  0.00    +0.000 A 
ATOM      9  C   UNL     1       4.709   6.777  17.037  0.00  0.00    +0.000 A 
ATOM     10  C   UNL     1       5.614   6.442  16.025  0.00  0.00    +0.000 A 
BRANCH   5  11
ATOM     11  C   UNL     1       6.920   4.783  14.737  0.00  0.00    +0.000 C 
ATOM     12  O   UNL     1       7.877   5.476  14.437  0.00  0.00    +0.000 OA
BRANCH  11  13
ATOM     13  O   UNL     1       6.511   3.649  14.118  0.00  0.00    +0.000 OA
BRANCH  13  15
ATOM     14  C   UNL     1       5.766   3.003  11.955  0.00  0.00    +0.000 C 
ATOM     15  C   UNL     1       5.428   3.811  13.195  0.00  0.00    +0.000 C 
ENDBRANCH  13  15
ENDBRANCH  11  13
ENDBRANCH   5  11
ENDBRANCH   1   8
BRANCH   2  16
ATOM     16  S   UNL     1       2.089   8.306  18.113  0.00  0.00    +0.000 S 
ATOM     17  H   UNL     1       2.659   7.683  17.077  0.00  0.00    +0.000 HD
ENDBRANCH   2  16
BRANCH   3  18
ATOM     18  C   UNL     1       0.920   8.107  20.776  0.00  0.00    +0.000 C 
BRANCH  18  19
ATOM     19  C   UNL     1       1.432   9.148  21.768  0.00  0.00    +0.000 C 
BRANCH  19  20
ATOM     20  C   UNL     1       0.393  10.243  21.879  0.00  0.00    +0.000 A 
ATOM     21  C   UNL     1       0.405  11.330  20.992  0.00  0.00    +0.000 A 
ATOM     22  C   UNL     1      -0.449  12.419  21.192  0.00  0.00    +0.000 A 
ATOM     23  C   UNL     1      -1.325  12.435  22.277  0.00  0.00    +0.000 A 
ATOM     24  C   UNL     1      -1.355  11.357  23.159  0.00  0.00    +0.000 A 
ATOM     25  C   UNL     1      -0.502  10.274  22.955  0.00  0.00    +0.000 A 
ATOM     26  F   UNL     1      -0.515   9.269  23.843  0.00  0.00    +0.000 F 
ENDBRANCH  19  20
ENDBRANCH  18  19
ENDBRANCH   3  18
TORSDOF 8
ENDMDL
MODEL 8
REMARK VINA RESULT:      -6.6      1.441      1.874
REMARK  Name = 
REMARK  9 active torsions:
REMARK  status: ('A' for Active; 'I' for Inactive)
REMARK    1  A    between atoms: C_1  and  C_2
REMARK    2  A    between atoms: C_2  and  O_3
REMARK    3  A    between atoms: O_3  and  C_4
REMARK    4  A    between atoms: C_4  and  C_6
REMARK    5  A    between atoms: C_9  and  N_10
REMARK    6  A    between atoms: C_11  and  S_12
REMARK    7  A    between atoms: N_13  and  C_14
REMARK    8  A    between atoms: C_14  and  C_15
REMARK    9  A    between atoms: C_15  and  C_16
REMARK                            x       y       z     vdW  Elec       q    Type
REMARK                         _______ _______ _______ _____ _____    ______ ____
ROOT
ATOM      1  N   UNL     1       5.946   7.453  17.053  0.00  0.00    +0.000 N 
ATOM      2  C   UNL     1       7.130   7.729  17.691  0.00  0.00    +0.000 C 
ATOM      3  N   UNL     1       7.697   8.878  17.459  0.00  0.00    +0.000 NA
ATOM      4  H   UNL     1       5.582   8.257  16.557  0.00  0.00    +0.000 HD
ENDROOT
BRANCH   1   8
ATOM      5  C   UNL     1       3.499   4.019  17.393  0.00  0.00    +0.000 A 
ATOM      6  C   UNL     1       3.064   5.263  17.858  0.00  0.00    +0.000 A 
ATOM      7  C   UNL     1       3.866   6.398  17.686  0.00  0.00    +0.000 A 
ATOM      8  C   UNL     1       5.109   6.320  17.038  0.00  0.00    +0.000 A 
ATOM      9  C   UNL     1       5.482   5.078  16.506  0.00  0.00    +0.000 A 
ATOM     10  C   UNL     1       4.701   3.933  16.693  0.00  0.00    +0.000 A 
BRANCH   5  11
ATOM     11  C   UNL     1       2.686   2.791  17.559  0.00  0.00    +0.000 C 
ATOM     12  O   UNL     1       3.131   1.661  17.457  0.00  0.00    +0.000 OA
BRANCH  11  13
ATOM     13  O   UNL     1       1.394   3.140  17.778  0.00  0.00    +0.000 OA
BRANCH  13  15
ATOM     14  C   UNL     1       0.925   3.334  20.099  0.00  0.00    +0.000 C 
ATOM     15  C   UNL     1       0.753   2.466  18.867  0.00  0.00    +0.000 C 
ENDBRANCH  13  15
ENDBRANCH  11  13
ENDBRANCH   5  11
ENDBRANCH   1   8
BRANCH   2  16
ATOM     16  S   UNL     1       7.801   6.574  18.854  0.00  0.00    +0.000 S 
ATOM     17  H   UNL     1       8.786   6.130  18.068  0.00  0.00    +0.000 HD
ENDBRANCH   2  16
BRANCH   3  18
ATOM     18  C   UNL     1       8.942   9.172  18.183  0.00  0.00    +0.000 C 
BRANCH  18  19
ATOM     19  C   UNL     1       9.501  10.554  17.861  0.00  0.00    +0.000 C 
BRANCH  19  20
ATOM     20  C   UNL     1       9.383  11.411  19.103  0.00  0.00    +0.000 A 
ATOM     21  C   UNL     1       9.360  10.822  20.376  0.00  0.00    +0.000 A 
ATOM     22  C   UNL     1       9.089  11.593  21.510  0.00  0.00    +0.000 A 
ATOM     23  C   UNL     1       8.841  12.960  21.388  0.00  0.00    +0.000 A 
ATOM     24  C   UNL     1       8.873  13.560  20.131  0.00  0.00    +0.000 A 
ATOM     25  C   UNL     1       9.143  12.787  19.003  0.00  0.00    +0.000 A 
ATOM     26  F   UNL     1       9.122  13.375  17.799  0.00  0.00    +0.000 F 
ENDBRANCH  19  20
ENDBRANCH  18  19
ENDBRANCH   3  18
TORSDOF 8
ENDMDL
MODEL 9
REMARK VINA RESULT:      -6.6      1.256      1.789
REMARK  Name = 
REMARK  9 active torsions:
REMARK  status: ('A' for Active; 'I' for Inactive)
REMARK    1  A    between atoms: C_1  and  C_2
REMARK    2  A    between atoms: C_2  and  O_3
REMARK    3  A    between atoms: O_3  and  C_4
REMARK    4  A    between atoms: C_4  and  C_6
REMARK    5  A    between atoms: C_9  and  N_10
REMARK    6  A    between atoms: C_11  and  S_12
REMARK    7  A    between atoms: N_13  and  C_14
REMARK    8  A    between atoms: C_14  and  C_15
REMARK    9  A    between atoms: C_15  and  C_16
REMARK                            x       y       z     vdW  Elec       q    Type
REMARK                         _______ _______ _______ _____ _____    ______ ____
ROOT
ATOM      1  N   UNL     1       5.968   6.964  17.341  0.00  0.00    +0.000 N 
ATOM      2  C   UNL     1       7.140   7.546  17.758  0.00  0.00    +0.000 C 
ATOM      3  N   UNL     1       7.416   8.742  17.325  0.00  0.00    +0.000 NA
ATOM      4  H   UNL     1       5.382   7.609  16.827  0.00  0.00    +0.000 HD
ENDROOT
BRANCH   1   8
ATOM      5  C   UNL     1       3.902   3.317  17.919  0.00  0.00    +0.000 A 
ATOM      6  C   UNL     1       4.213   3.774  16.635  0.00  0.00    +0.000 A 
ATOM      7  C   UNL     1       4.946   4.956  16.467  0.00  0.00    +0.000 A 
ATOM      8  C   UNL     1       5.394   5.697  17.571  0.00  0.00    +0.000 A 
ATOM      9  C   UNL     1       5.142   5.172  18.846  0.00  0.00    +0.000 A 
ATOM     10  C   UNL     1       4.390   4.007  19.026  0.00  0.00    +0.000 A 
BRANCH   5  11
ATOM     11  C   UNL     1       3.124   2.077  18.142  0.00  0.00    +0.000 C 
ATOM     12  O   UNL     1       3.626   0.976  18.293  0.00  0.00    +0.000 OA
BRANCH  11  13
ATOM     13  O   UNL     1       1.801   2.366  18.091  0.00  0.00    +0.000 OA
BRANCH  13  15
ATOM     14  C   UNL     1       0.830   3.496  19.943  0.00  0.00    +0.000 C 
ATOM     15  C   UNL     1       1.077   2.141  19.306  0.00  0.00    +0.000 C 
ENDBRANCH  13  15
ENDBRANCH  11  13
ENDBRANCH   5  11
ENDBRANCH   1   8
BRANCH   2  16
ATOM     16  S   UNL     1       8.184   6.707  18.916  0.00  0.00    +0.000 S 
ATOM     17  H   UNL     1       7.421   6.931  19.990  0.00  0.00    +0.000 HD
ENDBRANCH   2  16
BRANCH   3  18
ATOM     18  C   UNL     1       8.655   9.364  17.814  0.00  0.00    +0.000 C 
BRANCH  18  19
ATOM     19  C   UNL     1       8.552  10.883  17.919  0.00  0.00    +0.000 C 
BRANCH  19  20
ATOM     20  C   UNL     1       9.791  11.391  18.626  0.00  0.00    +0.000 A 
ATOM     21  C   UNL     1       9.893  11.319  20.023  0.00  0.00    +0.000 A 
ATOM     22  C   UNL     1      10.960  11.931  20.689  0.00  0.00    +0.000 A 
ATOM     23  C   UNL     1      11.936  12.620  19.968  0.00  0.00    +0.000 A 
ATOM     24  C   UNL     1      11.851  12.689  18.579  0.00  0.00    +0.000 A 
ATOM     25  C   UNL     1      10.786  12.077  17.921  0.00  0.00    +0.000 A 
ATOM     26  F   UNL     1      10.699  12.196  16.588  0.00  0.00    +0.000 F 
ENDBRANCH  19  20
ENDBRANCH  18  19
ENDBRANCH   3  18
TORSDOF 8
ENDMDL
