MODEL 1
REMARK VINA RESULT:      -6.6      0.000      0.000
REMARK  Name = 
REMARK  15 active torsions:
REMARK  status: ('A' for Active; 'I' for Inactive)
REMARK    1  A    between atoms: C_1  and  C_2
REMARK    2  A    between atoms: C_2  and  C_3
REMARK    3  A    between atoms: C_3  and  C_4
REMARK    4  A    between atoms: C_4  and  C_5
REMARK    5  A    between atoms: C_5  and  C_6
REMARK    6  A    between atoms: C_6  and  C_7
REMARK    7  A    between atoms: C_7  and  C_8
REMARK    8  A    between atoms: C_8  and  C_9
REMARK    9  A    between atoms: C_9  and  C_10
REMARK   10  A    between atoms: C_10  and  O_11
REMARK   11  A    between atoms: O_11  and  C_12
REMARK   12  A    between atoms: C_15  and  N_16
REMARK   13  A    between atoms: C_17  and  O_19
REMARK   14  A    between atoms: O_19  and  N_20
REMARK   15  A    between atoms: C_21  and  C_22
REMARK                            x       y       z     vdW  Elec       q    Type
REMARK                         _______ _______ _______ _____ _____    ______ ____
ROOT
ATOM      1  C   UNL     1       3.098   7.542  17.958  0.00  0.00    +0.000 A 
ATOM      2  C   UNL     1       2.385   8.730  17.975  0.00  0.00    +0.000 A 
ATOM      3  C   UNL     1       1.543   9.060  19.017  0.00  0.00    +0.000 A 
ATOM      4  C   UNL     1       1.348   8.206  20.100  0.00  0.00    +0.000 A 
ATOM      5  C   UNL     1       2.089   7.007  20.112  0.00  0.00    +0.000 A 
ATOM      6  C   UNL     1       2.961   6.676  19.050  0.00  0.00    +0.000 A 
ENDROOT
BRANCH   4   7
ATOM      7  N   UNL     1       0.436   8.526  21.146  0.00  0.00    +0.000 N 
ATOM      8  C   UNL     1       0.796   9.157  22.355  0.00  0.00    +0.000 C 
ATOM      9  O   UNL     1       1.901   9.521  22.677  0.00  0.00    +0.000 OA
ATOM     10  H   UNL     1      -0.533   8.258  21.039  0.00  0.00    +0.000 HD
BRANCH   8  11
ATOM     11  O   UNL     1      -0.308   9.294  23.193  0.00  0.00    +0.000 OA
BRANCH  11  12
ATOM     12  N   UNL     1      -0.430  10.680  23.477  0.00  0.00    +0.000 NA
ATOM     13  C   UNL     1      -1.256  11.283  22.676  0.00  0.00    +0.000 C 
BRANCH  13  14
ATOM     14  C   UNL     1      -1.588  12.706  22.910  0.00  0.00    +0.000 A 
ATOM     15  C   UNL     1      -2.787  13.100  23.506  0.00  0.00    +0.000 A 
ATOM     16  C   UNL     1      -3.061  14.456  23.677  0.00  0.00    +0.000 A 
ATOM     17  C   UNL     1      -2.126  15.378  23.239  0.00  0.00    +0.000 A 
ATOM     18  N   UNL     1      -0.955  15.035  22.654  0.00  0.00    +0.000 NA
ATOM     19  C   UNL     1      -0.712  13.708  22.500  0.00  0.00    +0.000 A 
ENDBRANCH  13  14
ENDBRANCH  11  12
ENDBRANCH   8  11
ENDBRANCH   4   7
BRANCH   1  20
ATOM     20  O   UNL     1       3.930   7.237  16.905  0.00  0.00    +0.000 OA
BRANCH  20  21
ATOM     21  C   UNL     1       5.007   6.343  17.267  0.00  0.00    +0.000 C 
BRANCH  21  22
ATOM     22  C   UNL     1       5.355   5.454  16.088  0.00  0.00    +0.000 C 
BRANCH  22  23
ATOM     23  C   UNL     1       5.254   3.979  16.467  0.00  0.00    +0.000 C 
BRANCH  23  24
ATOM     24  C   UNL     1       4.264   3.776  17.608  0.00  0.00    +0.000 C 
BRANCH  24  25
ATOM     25  C   UNL     1       2.873   3.451  17.073  0.00  0.00    +0.000 C 
BRANCH  25  26
ATOM     26  C   UNL     1       2.390   2.106  17.605  0.00  0.00    +0.000 C 
BRANCH  26  27
ATOM     27  C   UNL     1       2.378   2.097  19.130  0.00  0.00    +0.000 C 
BRANCH  27  28
ATOM     28  C   UNL     1       1.171   2.862  19.665  0.00  0.00    +0.000 C 
BRANCH  28  30
ATOM     29  C   UNL     1       2.391   3.635  21.716  0.00  0.00    +0.000 C 
ATOM     30  C   UNL     1       1.174   2.894  21.189  0.00  0.00    +0.000 C 
ENDBRANCH  28  30
ENDBRANCH  27  28
ENDBRANCH  26  27
ENDBRANCH  25  26
ENDBRANCH  24  25
ENDBRANCH  23  24
ENDBRANCH  22  23
ENDBRANCH  21  22
ENDBRANCH  20  21
ENDBRANCH   1  20
TORSDOF 14
ENDMDL
MODEL 2
REMARK VINA RESULT:      -6.6      5.488      7.920
REMARK  Name = 
REMARK  15 active torsions:
REMARK  status: ('A' for Active; 'I' for Inactive)
REMARK    1  A    between atoms: C_1  and  C_2
REMARK    2  A    between atoms: C_2  and  C_3
REMARK    3  A    between atoms: C_3  and  C_4
REMARK    4  A    between atoms: C_4  and  C_5
REMARK    5  A    between atoms: C_5  and  C_6
REMARK    6  A    between atoms: C_6  and  C_7
REMARK    7  A    between atoms: C_7  and  C_8
REMARK    8  A    between atoms: C_8  and  C_9
REMARK    9  A    between atoms: C_9  and  C_10
REMARK   10  A    between atoms: C_10  and  O_11
REMARK   11  A    between atoms: O_11  and  C_12
REMARK   12  A    between atoms: C_15  and  N_16
REMARK   13  A    between atoms: C_17  and  O_19
REMARK   14  A    between atoms: O_19  and  N_20
REMARK   15  A    between atoms: C_21  and  C_22
REMARK                            x       y       z     vdW  Elec       q    Type
REMARK                         _______ _______ _______ _____ _____    ______ ____
ROOT
ATOM      1  C   UNL     1       5.230   3.943  17.769  0.00  0.00    +0.000 A 
ATOM      2  C   UNL     1       5.430   4.440  19.047  0.00  0.00    +0.000 A 
ATOM      3  C   UNL     1       6.338   5.446  19.304  0.00  0.00    +0.000 A 
ATOM      4  C   UNL     1       7.120   6.002  18.294  0.00  0.00    +0.000 A 
ATOM      5  C   UNL     1       6.907   5.528  16.984  0.00  0.00    +0.000 A 
ATOM      6  C   UNL     1       5.967   4.506  16.721  0.00  0.00    +0.000 A 
ENDROOT
BRANCH   4   7
ATOM      7  N   UNL     1       8.096   7.002  18.572  0.00  0.00    +0.000 N 
ATOM      8  C   UNL     1       8.069   8.312  18.052  0.00  0.00    +0.000 C 
ATOM      9  O   UNL     1       7.232   8.779  17.318  0.00  0.00    +0.000 OA
ATOM     10  H   UNL     1       8.884   6.756  19.156  0.00  0.00    +0.000 HD
BRANCH   8  11
ATOM     11  O   UNL     1       9.181   9.038  18.472  0.00  0.00    +0.000 OA
BRANCH  11  12
ATOM     12  N   UNL     1       8.743  10.374  18.664  0.00  0.00    +0.000 NA
ATOM     13  C   UNL     1       9.448  11.233  17.992  0.00  0.00    +0.000 C 
BRANCH  13  14
ATOM     14  C   UNL     1       9.049  12.658  17.988  0.00  0.00    +0.000 A 
ATOM     15  C   UNL     1       7.768  13.069  17.616  0.00  0.00    +0.000 A 
ATOM     16  C   UNL     1       7.454  14.427  17.604  0.00  0.00    +0.000 A 
ATOM     17  C   UNL     1       8.439  15.334  17.959  0.00  0.00    +0.000 A 
ATOM     18  N   UNL     1       9.692  14.975  18.321  0.00  0.00    +0.000 NA
ATOM     19  C   UNL     1       9.970  13.646  18.326  0.00  0.00    +0.000 A 
ENDBRANCH  13  14
ENDBRANCH  11  12
ENDBRANCH   8  11
ENDBRANCH   4   7
BRANCH   1  20
ATOM     20  O   UNL     1       4.318   2.938  17.542  0.00  0.00    +0.000 OA
BRANCH  20  21
ATOM     21  C   UNL     1       2.956   3.413  17.445  0.00  0.00    +0.000 C 
BRANCH  21  22
ATOM     22  C   UNL     1       2.025   2.458  18.170  0.00  0.00    +0.000 C 
BRANCH  22  23
ATOM     23  C   UNL     1       2.425   2.310  19.635  0.00  0.00    +0.000 C 
BRANCH  23  24
ATOM     24  C   UNL     1       1.547   3.177  20.530  0.00  0.00    +0.000 C 
BRANCH  24  25
ATOM     25  C   UNL     1       2.286   4.439  20.963  0.00  0.00    +0.000 C 
BRANCH  25  26
ATOM     26  C   UNL     1       1.582   5.685  20.437  0.00  0.00    +0.000 C 
BRANCH  26  27
ATOM     27  C   UNL     1       2.589   6.679  19.868  0.00  0.00    +0.000 C 
BRANCH  27  28
ATOM     28  C   UNL     1       1.873   7.872  19.239  0.00  0.00    +0.000 C 
BRANCH  28  30
ATOM     29  C   UNL     1       3.618   7.312  17.526  0.00  0.00    +0.000 C 
ATOM     30  C   UNL     1       2.585   8.333  17.972  0.00  0.00    +0.000 C 
ENDBRANCH  28  30
ENDBRANCH  27  28
ENDBRANCH  26  27
ENDBRANCH  25  26
ENDBRANCH  24  25
ENDBRANCH  23  24
ENDBRANCH  22  23
ENDBRANCH  21  22
ENDBRANCH  20  21
ENDBRANCH   1  20
TORSDOF 14
ENDMDL
MODEL 3
REMARK VINA RESULT:      -6.4      6.217      8.292
REMARK  Name = 
REMARK  15 active torsions:
REMARK  status: ('A' for Active; 'I' for Inactive)
REMARK    1  A    between atoms: C_1  and  C_2
REMARK    2  A    between atoms: C_2  and  C_3
REMARK    3  A    between atoms: C_3  and  C_4
REMARK    4  A    between atoms: C_4  and  C_5
REMARK    5  A    between atoms: C_5  and  C_6
REMARK    6  A    between atoms: C_6  and  C_7
REMARK    7  A    between atoms: C_7  and  C_8
REMARK    8  A    between atoms: C_8  and  C_9
REMARK    9  A    between atoms: C_9  and  C_10
REMARK   10  A    between atoms: C_10  and  O_11
REMARK   11  A    between atoms: O_11  and  C_12
REMARK   12  A    between atoms: C_15  and  N_16
REMARK   13  A    between atoms: C_17  and  O_19
REMARK   14  A    between atoms: O_19  and  N_20
REMARK   15  A    between atoms: C_21  and  C_22
REMARK                            x       y       z     vdW  Elec       q    Type
REMARK                         _______ _______ _______ _____ _____    ______ ____
ROOT
ATOM      1  C   UNL     1       6.911   4.972  17.011  0.00  0.00    +0.000 A 
ATOM      2  C   UNL     1       7.505   4.777  18.248  0.00  0.00    +0.000 A 
ATOM      3  C   UNL     1       8.070   5.818  18.956  0.00  0.00    +0.000 A 
ATOM      4  C   UNL     1       8.092   7.118  18.456  0.00  0.00    +0.000 A 
ATOM      5  C   UNL     1       7.465   7.337  17.213  0.00  0.00    +0.000 A 
ATOM      6  C   UNL     1       6.876   6.272  16.494  0.00  0.00    +0.000 A 
ENDROOT
BRANCH   4   7
ATOM      7  N   UNL     1       8.725   8.178  19.166  0.00  0.00    +0.000 N 
ATOM      8  C   UNL     1       8.742   9.524  18.744  0.00  0.00    +0.000 C 
ATOM      9  O   UNL     1       8.229   9.974  17.748  0.00  0.00    +0.000 OA
ATOM     10  H   UNL     1       9.227   7.958  20.015  0.00  0.00    +0.000 HD
BRANCH   8  11
ATOM     11  O   UNL     1       9.476  10.314  19.626  0.00  0.00    +0.000 OA
BRANCH  11  12
ATOM     12  N   UNL     1       9.869  11.470  18.903  0.00  0.00    +0.000 NA
ATOM     13  C   UNL     1       9.708  12.564  19.584  0.00  0.00    +0.000 C 
BRANCH  13  14
ATOM     14  C   UNL     1      10.179  13.849  19.020  0.00  0.00    +0.000 A 
ATOM     15  C   UNL     1       9.333  14.948  18.872  0.00  0.00    +0.000 A 
ATOM     16  C   UNL     1       9.822  16.126  18.309  0.00  0.00    +0.000 A 
ATOM     17  C   UNL     1      11.146  16.163  17.906  0.00  0.00    +0.000 A 
ATOM     18  N   UNL     1      11.996  15.117  18.031  0.00  0.00    +0.000 NA
ATOM     19  C   UNL     1      11.494  13.983  18.583  0.00  0.00    +0.000 A 
ENDBRANCH  13  14
ENDBRANCH  11  12
ENDBRANCH   8  11
ENDBRANCH   4   7
BRANCH   1  20
ATOM     20  O   UNL     1       6.356   3.915  16.325  0.00  0.00    +0.000 OA
BRANCH  20  21
ATOM     21  C   UNL     1       4.977   4.137  15.952  0.00  0.00    +0.000 C 
BRANCH  21  22
ATOM     22  C   UNL     1       4.075   3.897  17.148  0.00  0.00    +0.000 C 
BRANCH  22  23
ATOM     23  C   UNL     1       3.291   5.157  17.504  0.00  0.00    +0.000 C 
BRANCH  23  24
ATOM     24  C   UNL     1       3.679   5.669  18.886  0.00  0.00    +0.000 C 
BRANCH  24  25
ATOM     25  C   UNL     1       2.610   6.604  19.442  0.00  0.00    +0.000 C 
BRANCH  25  26
ATOM     26  C   UNL     1       1.858   5.941  20.591  0.00  0.00    +0.000 C 
BRANCH  26  27
ATOM     27  C   UNL     1       2.188   4.454  20.671  0.00  0.00    +0.000 C 
BRANCH  27  28
ATOM     28  C   UNL     1       0.916   3.615  20.596  0.00  0.00    +0.000 C 
BRANCH  28  30
ATOM     29  C   UNL     1       2.071   1.886  19.193  0.00  0.00    +0.000 C 
ATOM     30  C   UNL     1       0.868   2.807  19.304  0.00  0.00    +0.000 C 
ENDBRANCH  28  30
ENDBRANCH  27  28
ENDBRANCH  26  27
ENDBRANCH  25  26
ENDBRANCH  24  25
ENDBRANCH  23  24
ENDBRANCH  22  23
ENDBRANCH  21  22
ENDBRANCH  20  21
ENDBRANCH   1  20
TORSDOF 14
ENDMDL
MODEL 4
REMARK VINA RESULT:      -6.3      2.330      2.792
REMARK  Name = 
REMARK  15 active torsions:
REMARK  status: ('A' for Active; 'I' for Inactive)
REMARK    1  A    between atoms: C_1  and  C_2
REMARK    2  A    between atoms: C_2  and  C_3
REMARK    3  A    between atoms: C_3  and  C_4
REMARK    4  A    between atoms: C_4  and  C_5
REMARK    5  A    between atoms: C_5  and  C_6
REMARK    6  A    between atoms: C_6  and  C_7
REMARK    7  A    between atoms: C_7  and  C_8
REMARK    8  A    between atoms: C_8  and  C_9
REMARK    9  A    between atoms: C_9  and  C_10
REMARK   10  A    between atoms: C_10  and  O_11
REMARK   11  A    between atoms: O_11  and  C_12
REMARK   12  A    between atoms: C_15  and  N_16
REMARK   13  A    between atoms: C_17  and  O_19
REMARK   14  A    between atoms: O_19  and  N_20
REMARK   15  A    between atoms: C_21  and  C_22
REMARK                            x       y       z     vdW  Elec       q    Type
REMARK                         _______ _______ _______ _____ _____    ______ ____
ROOT
ATOM      1  C   UNL     1       2.329   7.602  19.156  0.00  0.00    +0.000 A 
ATOM      2  C   UNL     1       2.001   8.392  18.065  0.00  0.00    +0.000 A 
ATOM      3  C   UNL     1       1.150   9.472  18.179  0.00  0.00    +0.000 A 
ATOM      4  C   UNL     1       0.556   9.813  19.392  0.00  0.00    +0.000 A 
ATOM      5  C   UNL     1       0.903   9.037  20.516  0.00  0.00    +0.000 A 
ATOM      6  C   UNL     1       1.786   7.939  20.401  0.00  0.00    +0.000 A 
ENDROOT
BRANCH   4   7
ATOM      7  N   UNL     1      -0.365  10.895  19.492  0.00  0.00    +0.000 N 
ATOM      8  C   UNL     1      -0.031  12.191  19.935  0.00  0.00    +0.000 C 
ATOM      9  O   UNL     1       1.060  12.576  20.279  0.00  0.00    +0.000 OA
ATOM     10  H   UNL     1      -1.335  10.724  19.263  0.00  0.00    +0.000 HD
BRANCH   8  11
ATOM     11  O   UNL     1      -1.155  13.013  19.963  0.00  0.00    +0.000 OA
BRANCH  11  12
ATOM     12  N   UNL     1      -1.896  12.645  21.116  0.00  0.00    +0.000 NA
ATOM     13  C   UNL     1      -2.959  13.372  21.280  0.00  0.00    +0.000 C 
BRANCH  13  14
ATOM     14  C   UNL     1      -3.907  13.042  22.368  0.00  0.00    +0.000 A 
ATOM     15  C   UNL     1      -3.480  12.792  23.673  0.00  0.00    +0.000 A 
ATOM     16  C   UNL     1      -4.412  12.458  24.654  0.00  0.00    +0.000 A 
ATOM     17  C   UNL     1      -5.747  12.379  24.294  0.00  0.00    +0.000 A 
ATOM     18  N   UNL     1      -6.199  12.611  23.040  0.00  0.00    +0.000 NA
ATOM     19  C   UNL     1      -5.270  12.935  22.104  0.00  0.00    +0.000 A 
ENDBRANCH  13  14
ENDBRANCH  11  12
ENDBRANCH   8  11
ENDBRANCH   4   7
BRANCH   1  20
ATOM     20  O   UNL     1       3.180   6.530  19.014  0.00  0.00    +0.000 OA
BRANCH  20  21
ATOM     21  C   UNL     1       2.960   5.781  17.797  0.00  0.00    +0.000 C 
BRANCH  21  22
ATOM     22  C   UNL     1       4.291   5.345  17.213  0.00  0.00    +0.000 C 
BRANCH  22  23
ATOM     23  C   UNL     1       4.549   3.866  17.487  0.00  0.00    +0.000 C 
BRANCH  23  24
ATOM     24  C   UNL     1       4.972   3.644  18.934  0.00  0.00    +0.000 C 
BRANCH  24  25
ATOM     25  C   UNL     1       4.280   2.419  19.524  0.00  0.00    +0.000 C 
BRANCH  25  26
ATOM     26  C   UNL     1       3.231   1.875  18.560  0.00  0.00    +0.000 C 
BRANCH  26  27
ATOM     27  C   UNL     1       1.848   1.878  19.203  0.00  0.00    +0.000 C 
BRANCH  27  28
ATOM     28  C   UNL     1       1.170   3.233  19.020  0.00  0.00    +0.000 C 
BRANCH  28  30
ATOM     29  C   UNL     1       1.564   3.185  21.496  0.00  0.00    +0.000 C 
ATOM     30  C   UNL     1       0.792   3.843  20.365  0.00  0.00    +0.000 C 
ENDBRANCH  28  30
ENDBRANCH  27  28
ENDBRANCH  26  27
ENDBRANCH  25  26
ENDBRANCH  24  25
ENDBRANCH  23  24
ENDBRANCH  22  23
ENDBRANCH  21  22
ENDBRANCH  20  21
ENDBRANCH   1  20
TORSDOF 14
ENDMDL
MODEL 5
REMARK VINA RESULT:      -6.2      5.949      8.087
REMARK  Name = 
REMARK  15 active torsions:
REMARK  status: ('A' for Active; 'I' for Inactive)
REMARK    1  A    between atoms: C_1  and  C_2
REMARK    2  A    between atoms: C_2  and  C_3
REMARK    3  A    between atoms: C_3  and  C_4
REMARK    4  A    between atoms: C_4  and  C_5
REMARK    5  A    between atoms: C_5  and  C_6
REMARK    6  A    between atoms: C_6  and  C_7
REMARK    7  A    between atoms: C_7  and  C_8
REMARK    8  A    between atoms: C_8  and  C_9
REMARK    9  A    between atoms: C_9  and  C_10
REMARK   10  A    between atoms: C_10  and  O_11
REMARK   11  A    between atoms: O_11  and  C_12
REMARK   12  A    between atoms: C_15  and  N_16
REMARK   13  A    between atoms: C_17  and  O_19
REMARK   14  A    between atoms: O_19  and  N_20
REMARK   15  A    between atoms: C_21  and  C_22
REMARK                            x       y       z     vdW  Elec       q    Type
REMARK                         _______ _______ _______ _____ _____    ______ ____
ROOT
ATOM      1  C   UNL     1       5.959   4.626  17.536  0.00  0.00    +0.000 A 
ATOM      2  C   UNL     1       6.373   4.744  18.854  0.00  0.00    +0.000 A 
ATOM      3  C   UNL     1       7.200   5.767  19.268  0.00  0.00    +0.000 A 
ATOM      4  C   UNL     1       7.682   6.726  18.380  0.00  0.00    +0.000 A 
ATOM      5  C   UNL     1       7.246   6.637  17.043  0.00  0.00    +0.000 A 
ATOM      6  C   UNL     1       6.388   5.595  16.622  0.00  0.00    +0.000 A 
ENDROOT
BRANCH   4   7
ATOM      7  N   UNL     1       8.580   7.748  18.801  0.00  0.00    +0.000 N 
ATOM      8  C   UNL     1       8.468   9.108  18.445  0.00  0.00    +0.000 C 
ATOM      9  O   UNL     1       7.611   9.603  17.754  0.00  0.00    +0.000 OA
ATOM     10  H   UNL     1       9.374   7.487  19.370  0.00  0.00    +0.000 HD
BRANCH   8  11
ATOM     11  O   UNL     1       9.520   9.851  18.976  0.00  0.00    +0.000 OA
BRANCH  11  12
ATOM     12  N   UNL     1       9.543  11.082  18.270  0.00  0.00    +0.000 NA
ATOM     13  C   UNL     1       9.652  12.108  19.058  0.00  0.00    +0.000 C 
BRANCH  13  14
ATOM     14  C   UNL     1       9.810  13.460  18.475  0.00  0.00    +0.000 A 
ATOM     15  C   UNL     1       8.772  14.393  18.476  0.00  0.00    +0.000 A 
ATOM     16  C   UNL     1       8.966  15.642  17.889  0.00  0.00    +0.000 A 
ATOM     17  C   UNL     1      10.195  15.916  17.313  0.00  0.00    +0.000 A 
ATOM     18  N   UNL     1      11.224  15.037  17.290  0.00  0.00    +0.000 NA
ATOM     19  C   UNL     1      11.008  13.828  17.870  0.00  0.00    +0.000 A 
ENDBRANCH  13  14
ENDBRANCH  11  12
ENDBRANCH   8  11
ENDBRANCH   4   7
BRANCH   1  20
ATOM     20  O   UNL     1       5.134   3.595  17.150  0.00  0.00    +0.000 OA
BRANCH  20  21
ATOM     21  C   UNL     1       4.549   2.882  18.263  0.00  0.00    +0.000 C 
BRANCH  21  22
ATOM     22  C   UNL     1       3.174   2.367  17.879  0.00  0.00    +0.000 C 
BRANCH  22  23
ATOM     23  C   UNL     1       2.450   3.363  16.978  0.00  0.00    +0.000 C 
BRANCH  23  24
ATOM     24  C   UNL     1       1.503   4.242  17.787  0.00  0.00    +0.000 C 
BRANCH  24  25
ATOM     25  C   UNL     1       2.015   5.678  17.853  0.00  0.00    +0.000 C 
BRANCH  25  26
ATOM     26  C   UNL     1       2.938   5.868  19.052  0.00  0.00    +0.000 C 
BRANCH  26  27
ATOM     27  C   UNL     1       2.137   6.203  20.306  0.00  0.00    +0.000 C 
BRANCH  27  28
ATOM     28  C   UNL     1       1.297   5.008  20.745  0.00  0.00    +0.000 C 
BRANCH  28  30
ATOM     29  C   UNL     1       1.611   2.562  21.204  0.00  0.00    +0.000 C 
ATOM     30  C   UNL     1       2.157   3.959  21.443  0.00  0.00    +0.000 C 
ENDBRANCH  28  30
ENDBRANCH  27  28
ENDBRANCH  26  27
ENDBRANCH  25  26
ENDBRANCH  24  25
ENDBRANCH  23  24
ENDBRANCH  22  23
ENDBRANCH  21  22
ENDBRANCH  20  21
ENDBRANCH   1  20
TORSDOF 14
ENDMDL
MODEL 6
REMARK VINA RESULT:      -6.2      2.150      3.886
REMARK  Name = 
REMARK  15 active torsions:
REMARK  status: ('A' for Active; 'I' for Inactive)
REMARK    1  A    between atoms: C_1  and  C_2
REMARK    2  A    between atoms: C_2  and  C_3
REMARK    3  A    between atoms: C_3  and  C_4
REMARK    4  A    between atoms: C_4  and  C_5
REMARK    5  A    between atoms: C_5  and  C_6
REMARK    6  A    between atoms: C_6  and  C_7
REMARK    7  A    between atoms: C_7  and  C_8
REMARK    8  A    between atoms: C_8  and  C_9
REMARK    9  A    between atoms: C_9  and  C_10
REMARK   10  A    between atoms: C_10  and  O_11
REMARK   11  A    between atoms: O_11  and  C_12
REMARK   12  A    between atoms: C_15  and  N_16
REMARK   13  A    between atoms: C_17  and  O_19
REMARK   14  A    between atoms: O_19  and  N_20
REMARK   15  A    between atoms: C_21  and  C_22
REMARK                            x       y       z     vdW  Elec       q    Type
REMARK                         _______ _______ _______ _____ _____    ______ ____
ROOT
ATOM      1  C   UNL     1       2.208   7.026  19.757  0.00  0.00    +0.000 A 
ATOM      2  C   UNL     1       2.297   7.786  18.601  0.00  0.00    +0.000 A 
ATOM      3  C   UNL     1       1.697   9.024  18.497  0.00  0.00    +0.000 A 
ATOM      4  C   UNL     1       0.953   9.568  19.542  0.00  0.00    +0.000 A 
ATOM      5  C   UNL     1       0.879   8.820  20.733  0.00  0.00    +0.000 A 
ATOM      6  C   UNL     1       1.504   7.557  20.843  0.00  0.00    +0.000 A 
ENDROOT
BRANCH   4   7
ATOM      7  N   UNL     1       0.290  10.821  19.409  0.00  0.00    +0.000 N 
ATOM      8  C   UNL     1       0.520  11.939  20.238  0.00  0.00    +0.000 C 
ATOM      9  O   UNL     1       1.300  12.006  21.157  0.00  0.00    +0.000 OA
ATOM     10  H   UNL     1      -0.420  10.919  18.696  0.00  0.00    +0.000 HD
BRANCH   8  11
ATOM     11  O   UNL     1      -0.311  13.000  19.887  0.00  0.00    +0.000 OA
BRANCH  11  12
ATOM     12  N   UNL     1      -1.148  13.247  21.007  0.00  0.00    +0.000 NA
ATOM     13  C   UNL     1      -2.331  12.730  20.870  0.00  0.00    +0.000 C 
BRANCH  13  14
ATOM     14  C   UNL     1      -3.289  12.793  21.997  0.00  0.00    +0.000 A 
ATOM     15  C   UNL     1      -2.963  12.332  23.273  0.00  0.00    +0.000 A 
ATOM     16  C   UNL     1      -3.913  12.390  24.292  0.00  0.00    +0.000 A 
ATOM     17  C   UNL     1      -5.164  12.905  23.998  0.00  0.00    +0.000 A 
ATOM     18  N   UNL     1      -5.517  13.359  22.772  0.00  0.00    +0.000 NA
ATOM     19  C   UNL     1      -4.573  13.292  21.799  0.00  0.00    +0.000 A 
ENDBRANCH  13  14
ENDBRANCH  11  12
ENDBRANCH   8  11
ENDBRANCH   4   7
BRANCH   1  20
ATOM     20  O   UNL     1       2.815   5.792  19.833  0.00  0.00    +0.000 OA
BRANCH  20  21
ATOM     21  C   UNL     1       2.303   4.968  20.904  0.00  0.00    +0.000 C 
BRANCH  21  22
ATOM     22  C   UNL     1       1.962   3.588  20.374  0.00  0.00    +0.000 C 
BRANCH  22  23
ATOM     23  C   UNL     1       1.353   3.674  18.977  0.00  0.00    +0.000 C 
BRANCH  23  24
ATOM     24  C   UNL     1       1.933   2.601  18.062  0.00  0.00    +0.000 C 
BRANCH  24  25
ATOM     25  C   UNL     1       3.454   2.703  17.996  0.00  0.00    +0.000 C 
BRANCH  25  26
ATOM     26  C   UNL     1       3.881   3.728  16.950  0.00  0.00    +0.000 C 
BRANCH  26  27
ATOM     27  C   UNL     1       4.980   4.635  17.495  0.00  0.00    +0.000 C 
BRANCH  27  28
ATOM     28  C   UNL     1       5.131   5.881  16.626  0.00  0.00    +0.000 C 
BRANCH  28  30
ATOM     29  C   UNL     1       6.932   4.894  15.186  0.00  0.00    +0.000 C 
ATOM     30  C   UNL     1       5.544   5.512  15.206  0.00  0.00    +0.000 C 
ENDBRANCH  28  30
ENDBRANCH  27  28
ENDBRANCH  26  27
ENDBRANCH  25  26
ENDBRANCH  24  25
ENDBRANCH  23  24
ENDBRANCH  22  23
ENDBRANCH  21  22
ENDBRANCH  20  21
ENDBRANCH   1  20
TORSDOF 14
ENDMDL
MODEL 7
REMARK VINA RESULT:      -6.2      0.960      1.317
REMARK  Name = 
REMARK  15 active torsions:
REMARK  status: ('A' for Active; 'I' for Inactive)
REMARK    1  A    between atoms: C_1  and  C_2
REMARK    2  A    between atoms: C_2  and  C_3
REMARK    3  A    between atoms: C_3  and  C_4
REMARK    4  A    between atoms: C_4  and  C_5
REMARK    5  A    between atoms: C_5  and  C_6
REMARK    6  A    between atoms: C_6  and  C_7
REMARK    7  A    between atoms: C_7  and  C_8
REMARK    8  A    between atoms: C_8  and  C_9
REMARK    9  A    between atoms: C_9  and  C_10
REMARK   10  A    between atoms: C_10  and  O_11
REMARK   11  A    between atoms: O_11  and  C_12
REMARK   12  A    between atoms: C_15  and  N_16
REMARK   13  A    between atoms: C_17  and  O_19
REMARK   14  A    between atoms: O_19  and  N_20
REMARK   15  A    between atoms: C_21  and  C_22
REMARK                            x       y       z     vdW  Elec       q    Type
REMARK                         _______ _______ _______ _____ _____    ______ ____
ROOT
ATOM      1  C   UNL     1       2.644   7.290  18.267  0.00  0.00    +0.000 A 
ATOM      2  C   UNL     1       2.088   8.531  18.000  0.00  0.00    +0.000 A 
ATOM      3  C   UNL     1       1.374   9.229  18.952  0.00  0.00    +0.000 A 
ATOM      4  C   UNL     1       1.156   8.714  20.227  0.00  0.00    +0.000 A 
ATOM      5  C   UNL     1       1.741   7.467  20.524  0.00  0.00    +0.000 A 
ATOM      6  C   UNL     1       2.482   6.758  19.552  0.00  0.00    +0.000 A 
ENDROOT
BRANCH   4   7
ATOM      7  N   UNL     1       0.371   9.413  21.189  0.00  0.00    +0.000 N 
ATOM      8  C   UNL     1       0.775   9.672  22.515  0.00  0.00    +0.000 C 
ATOM      9  O   UNL     1       1.823   9.356  23.024  0.00  0.00    +0.000 OA
ATOM     10  H   UNL     1      -0.553   9.723  20.923  0.00  0.00    +0.000 HD
BRANCH   8  11
ATOM     11  O   UNL     1      -0.226  10.336  23.221  0.00  0.00    +0.000 OA
BRANCH  11  12
ATOM     12  N   UNL     1      -0.285  11.653  22.695  0.00  0.00    +0.000 NA
ATOM     13  C   UNL     1      -1.332  12.306  23.098  0.00  0.00    +0.000 C 
BRANCH  13  14
ATOM     14  C   UNL     1      -1.485  13.733  22.738  0.00  0.00    +0.000 A 
ATOM     15  C   UNL     1      -0.388  14.548  22.457  0.00  0.00    +0.000 A 
ATOM     16  C   UNL     1      -0.586  15.893  22.149  0.00  0.00    +0.000 A 
ATOM     17  C   UNL     1      -1.882  16.382  22.139  0.00  0.00    +0.000 A 
ATOM     18  N   UNL     1      -2.970  15.624  22.409  0.00  0.00    +0.000 NA
ATOM     19  C   UNL     1      -2.748  14.317  22.704  0.00  0.00    +0.000 A 
ENDBRANCH  13  14
ENDBRANCH  11  12
ENDBRANCH   8  11
ENDBRANCH   4   7
BRANCH   1  20
ATOM     20  O   UNL     1       3.351   6.615  17.298  0.00  0.00    +0.000 OA
BRANCH  20  21
ATOM     21  C   UNL     1       4.774   6.867  17.348  0.00  0.00    +0.000 C 
BRANCH  21  22
ATOM     22  C   UNL     1       5.503   5.614  17.798  0.00  0.00    +0.000 C 
BRANCH  22  23
ATOM     23  C   UNL     1       4.916   4.372  17.135  0.00  0.00    +0.000 C 
BRANCH  23  24
ATOM     24  C   UNL     1       4.328   3.425  18.175  0.00  0.00    +0.000 C 
BRANCH  24  25
ATOM     25  C   UNL     1       3.429   2.382  17.518  0.00  0.00    +0.000 C 
BRANCH  25  26
ATOM     26  C   UNL     1       2.128   2.223  18.298  0.00  0.00    +0.000 C 
BRANCH  26  27
ATOM     27  C   UNL     1       1.547   3.583  18.669  0.00  0.00    +0.000 C 
BRANCH  27  28
ATOM     28  C   UNL     1       0.612   3.460  19.869  0.00  0.00    +0.000 C 
BRANCH  28  30
ATOM     29  C   UNL     1       2.331   3.740  21.674  0.00  0.00    +0.000 C 
ATOM     30  C   UNL     1       1.316   2.798  21.048  0.00  0.00    +0.000 C 
ENDBRANCH  28  30
ENDBRANCH  27  28
ENDBRANCH  26  27
ENDBRANCH  25  26
ENDBRANCH  24  25
ENDBRANCH  23  24
ENDBRANCH  22  23
ENDBRANCH  21  22
ENDBRANCH  20  21
ENDBRANCH   1  20
TORSDOF 14
ENDMDL
MODEL 8
REMARK VINA RESULT:      -6.2      5.869      8.087
REMARK  Name = 
REMARK  15 active torsions:
REMARK  status: ('A' for Active; 'I' for Inactive)
REMARK    1  A    between atoms: C_1  and  C_2
REMARK    2  A    between atoms: C_2  and  C_3
REMARK    3  A    between atoms: C_3  and  C_4
REMARK    4  A    between atoms: C_4  and  C_5
REMARK    5  A    between atoms: C_5  and  C_6
REMARK    6  A    between atoms: C_6  and  C_7
REMARK    7  A    between atoms: C_7  and  C_8
REMARK    8  A    between atoms: C_8  and  C_9
REMARK    9  A    between atoms: C_9  and  C_10
REMARK   10  A    between atoms: C_10  and  O_11
REMARK   11  A    between atoms: O_11  and  C_12
REMARK   12  A    between atoms: C_15  and  N_16
REMARK   13  A    between atoms: C_17  and  O_19
REMARK   14  A    between atoms: O_19  and  N_20
REMARK   15  A    between atoms: C_21  and  C_22
REMARK                            x       y       z     vdW  Elec       q    Type
REMARK                         _______ _______ _______ _____ _____    ______ ____
ROOT
ATOM      1  C   UNL     1       5.725   5.028  18.221  0.00  0.00    +0.000 A 
ATOM      2  C   UNL     1       7.003   5.249  18.710  0.00  0.00    +0.000 A 
ATOM      3  C   UNL     1       7.698   6.408  18.431  0.00  0.00    +0.000 A 
ATOM      4  C   UNL     1       7.160   7.409  17.625  0.00  0.00    +0.000 A 
ATOM      5  C   UNL     1       5.850   7.212  17.146  0.00  0.00    +0.000 A 
ATOM      6  C   UNL     1       5.134   6.029  17.442  0.00  0.00    +0.000 A 
ENDROOT
BRANCH   4   7
ATOM      7  N   UNL     1       7.903   8.579  17.295  0.00  0.00    +0.000 N 
ATOM      8  C   UNL     1       8.651   9.338  18.219  0.00  0.00    +0.000 C 
ATOM      9  O   UNL     1       8.780   9.115  19.398  0.00  0.00    +0.000 OA
ATOM     10  H   UNL     1       7.874   8.915  16.342  0.00  0.00    +0.000 HD
BRANCH   8  11
ATOM     11  O   UNL     1       9.228  10.446  17.602  0.00  0.00    +0.000 OA
BRANCH  11  12
ATOM     12  N   UNL     1       9.083  11.532  18.504  0.00  0.00    +0.000 NA
ATOM     13  C   UNL     1      10.202  12.156  18.719  0.00  0.00    +0.000 C 
BRANCH  13  14
ATOM     14  C   UNL     1      10.203  13.386  19.542  0.00  0.00    +0.000 A 
ATOM     15  C   UNL     1      10.184  13.344  20.937  0.00  0.00    +0.000 A 
ATOM     16  C   UNL     1      10.158  14.533  21.664  0.00  0.00    +0.000 A 
ATOM     17  C   UNL     1      10.146  15.731  20.968  0.00  0.00    +0.000 A 
ATOM     18  N   UNL     1      10.161  15.811  19.617  0.00  0.00    +0.000 NA
ATOM     19  C   UNL     1      10.187  14.638  18.934  0.00  0.00    +0.000 A 
ENDBRANCH  13  14
ENDBRANCH  11  12
ENDBRANCH   8  11
ENDBRANCH   4   7
BRANCH   1  20
ATOM     20  O   UNL     1       5.055   3.861  18.514  0.00  0.00    +0.000 OA
BRANCH  20  21
ATOM     21  C   UNL     1       3.927   3.616  17.643  0.00  0.00    +0.000 C 
BRANCH  21  22
ATOM     22  C   UNL     1       3.361   2.234  17.911  0.00  0.00    +0.000 C 
BRANCH  22  23
ATOM     23  C   UNL     1       2.088   2.319  18.749  0.00  0.00    +0.000 C 
BRANCH  23  24
ATOM     24  C   UNL     1       1.471   3.710  18.665  0.00  0.00    +0.000 C 
BRANCH  24  25
ATOM     25  C   UNL     1       1.041   4.202  20.043  0.00  0.00    +0.000 C 
BRANCH  25  26
ATOM     26  C   UNL     1       2.120   5.085  20.662  0.00  0.00    +0.000 C 
BRANCH  26  27
ATOM     27  C   UNL     1       2.422   6.283  19.768  0.00  0.00    +0.000 C 
BRANCH  27  28
ATOM     28  C   UNL     1       1.785   7.550  20.332  0.00  0.00    +0.000 C 
BRANCH  28  30
ATOM     29  C   UNL     1       2.137   8.114  17.913  0.00  0.00    +0.000 C 
ATOM     30  C   UNL     1       1.708   8.643  19.271  0.00  0.00    +0.000 C 
ENDBRANCH  28  30
ENDBRANCH  27  28
ENDBRANCH  26  27
ENDBRANCH  25  26
ENDBRANCH  24  25
ENDBRANCH  23  24
ENDBRANCH  22  23
ENDBRANCH  21  22
ENDBRANCH  20  21
ENDBRANCH   1  20
TORSDOF 14
ENDMDL
MODEL 9
REMARK VINA RESULT:      -6.2      2.302      3.833
REMARK  Name = 
REMARK  15 active torsions:
REMARK  status: ('A' for Active; 'I' for Inactive)
REMARK    1  A    between atoms: C_1  and  C_2
REMARK    2  A    between atoms: C_2  and  C_3
REMARK    3  A    between atoms: C_3  and  C_4
REMARK    4  A    between atoms: C_4  and  C_5
REMARK    5  A    between atoms: C_5  and  C_6
REMARK    6  A    between atoms: C_6  and  C_7
REMARK    7  A    between atoms: C_7  and  C_8
REMARK    8  A    between atoms: C_8  and  C_9
REMARK    9  A    between atoms: C_9  and  C_10
REMARK   10  A    between atoms: C_10  and  O_11
REMARK   11  A    between atoms: O_11  and  C_12
REMARK   12  A    between atoms: C_15  and  N_16
REMARK   13  A    between atoms: C_17  and  O_19
REMARK   14  A    between atoms: O_19  and  N_20
REMARK   15  A    between atoms: C_21  and  C_22
REMARK                            x       y       z     vdW  Elec       q    Type
REMARK                         _______ _______ _______ _____ _____    ______ ____
ROOT
ATOM      1  C   UNL     1       2.051   7.853  19.632  0.00  0.00    +0.000 A 
ATOM      2  C   UNL     1       1.941   8.623  18.485  0.00  0.00    +0.000 A 
ATOM      3  C   UNL     1       1.167   9.764  18.446  0.00  0.00    +0.000 A 
ATOM      4  C   UNL     1       0.437  10.192  19.552  0.00  0.00    +0.000 A 
ATOM      5  C   UNL     1       0.563   9.437  20.735  0.00  0.00    +0.000 A 
ATOM      6  C   UNL     1       1.366   8.274  20.778  0.00  0.00    +0.000 A 
ENDROOT
BRANCH   4   7
ATOM      7  N   UNL     1      -0.405  11.340  19.491  0.00  0.00    +0.000 N 
ATOM      8  C   UNL     1      -0.166  12.545  20.184  0.00  0.00    +0.000 C 
ATOM      9  O   UNL     1       0.768  12.785  20.910  0.00  0.00    +0.000 OA
ATOM     10  H   UNL     1      -1.251  11.288  18.939  0.00  0.00    +0.000 HD
BRANCH   8  11
ATOM     11  O   UNL     1      -1.188  13.462  19.955  0.00  0.00    +0.000 OA
BRANCH  11  12
ATOM     12  N   UNL     1      -1.979  13.489  21.134  0.00  0.00    +0.000 NA
ATOM     13  C   UNL     1      -3.156  12.970  20.958  0.00  0.00    +0.000 C 
BRANCH  13  14
ATOM     14  C   UNL     1      -4.063  12.812  22.117  0.00  0.00    +0.000 A 
ATOM     15  C   UNL     1      -5.430  13.076  22.030  0.00  0.00    +0.000 A 
ATOM     16  C   UNL     1      -6.235  12.938  23.160  0.00  0.00    +0.000 A 
ATOM     17  C   UNL     1      -5.640  12.544  24.347  0.00  0.00    +0.000 A 
ATOM     18  N   UNL     1      -4.318  12.282  24.471  0.00  0.00    +0.000 NA
ATOM     19  C   UNL     1      -3.559  12.423  23.355  0.00  0.00    +0.000 A 
ENDBRANCH  13  14
ENDBRANCH  11  12
ENDBRANCH   8  11
ENDBRANCH   4   7
BRANCH   1  20
ATOM     20  O   UNL     1       2.830   6.718  19.643  0.00  0.00    +0.000 OA
BRANCH  20  21
ATOM     21  C   UNL     1       2.059   5.495  19.647  0.00  0.00    +0.000 C 
BRANCH  21  22
ATOM     22  C   UNL     1       2.426   4.659  20.859  0.00  0.00    +0.000 C 
BRANCH  22  23
ATOM     23  C   UNL     1       1.502   3.451  20.991  0.00  0.00    +0.000 C 
BRANCH  23  24
ATOM     24  C   UNL     1       1.012   2.989  19.624  0.00  0.00    +0.000 C 
BRANCH  24  25
ATOM     25  C   UNL     1       1.929   1.913  19.050  0.00  0.00    +0.000 C 
BRANCH  25  26
ATOM     26  C   UNL     1       2.488   2.345  17.699  0.00  0.00    +0.000 C 
BRANCH  26  27
ATOM     27  C   UNL     1       3.902   2.896  17.847  0.00  0.00    +0.000 C 
BRANCH  27  28
ATOM     28  C   UNL     1       4.265   3.778  16.656  0.00  0.00    +0.000 C 
BRANCH  28  30
ATOM     29  C   UNL     1       5.261   5.969  15.949  0.00  0.00    +0.000 C 
ATOM     30  C   UNL     1       4.719   5.160  17.114  0.00  0.00    +0.000 C 
ENDBRANCH  28  30
ENDBRANCH  27  28
ENDBRANCH  26  27
ENDBRANCH  25  26
ENDBRANCH  24  25
ENDBRANCH  23  24
ENDBRANCH  22  23
ENDBRANCH  21  22
ENDBRANCH  20  21
ENDBRANCH   1  20
TORSDOF 14
ENDMDL
