MODEL 1
REMARK VINA RESULT:      -6.3      0.000      0.000
REMARK  Name = 
REMARK  6 active torsions:
REMARK  status: ('A' for Active; 'I' for Inactive)
REMARK    1  A    between atoms: C_1  and  O_2
REMARK    2  A    between atoms: O_2  and  C_3
REMARK    3  A    between atoms: C_3  and  C_5
REMARK    4  A    between atoms: C_7  and  O_8
REMARK    5  A    between atoms: C_11  and  O_12
REMARK    6  A    between atoms: C_14  and  C_15
REMARK                            x       y       z     vdW  Elec       q    Type
REMARK                         _______ _______ _______ _____ _____    ______ ____
ROOT
ATOM      1  C   UNL     1       5.877   4.596  17.899  0.00  0.00    +0.000 A 
ATOM      2  C   UNL     1       5.246   4.711  19.212  0.00  0.00    +0.000 A 
ATOM      3  C   UNL     1       4.111   5.436  19.238  0.00  0.00    +0.000 A 
ATOM      4  C   UNL     1       3.008   4.433  19.233  0.00  0.00    +0.000 A 
ATOM      5  O   UNL     1       2.355   4.159  20.232  0.00  0.00    +0.000 OA
ATOM      6  C   UNL     1       2.773   3.809  17.873  0.00  0.00    +0.000 A 
ATOM      7  C   UNL     1       3.714   3.723  16.906  0.00  0.00    +0.000 A 
ATOM      8  C   UNL     1       5.098   4.251  16.832  0.00  0.00    +0.000 A 
ATOM      9  C   UNL     1       5.526   4.532  15.412  0.00  0.00    +0.000 C 
ENDROOT
BRANCH   1  10
ATOM     10  C   UNL     1       7.339   4.922  17.750  0.00  0.00    +0.000 C 
ATOM     11  O   UNL     1       8.177   4.189  17.251  0.00  0.00    +0.000 OA
BRANCH  10  13
ATOM     12  C   UNL     1       7.404   7.244  17.456  0.00  0.00    +0.000 C 
ATOM     13  O   UNL     1       7.614   6.126  18.326  0.00  0.00    +0.000 OA
ENDBRANCH  10  13
ENDBRANCH   1  10
BRANCH   3  14
ATOM     14  O   UNL     1       3.973   6.552  18.406  0.00  0.00    +0.000 OA
ATOM     15  H   UNL     1       4.863   6.825  18.118  0.00  0.00    +0.000 HD
ENDBRANCH   3  14
BRANCH   6  16
ATOM     16  O   UNL     1       1.490   3.330  17.640  0.00  0.00    +0.000 OA
ATOM     17  H   UNL     1       1.232   3.549  16.729  0.00  0.00    +0.000 HD
ENDBRANCH   6  16
TORSDOF 4
ENDMDL
MODEL 2
REMARK VINA RESULT:      -6.2      1.996      4.900
REMARK  Name = 
REMARK  6 active torsions:
REMARK  status: ('A' for Active; 'I' for Inactive)
REMARK    1  A    between atoms: C_1  and  O_2
REMARK    2  A    between atoms: O_2  and  C_3
REMARK    3  A    between atoms: C_3  and  C_5
REMARK    4  A    between atoms: C_7  and  O_8
REMARK    5  A    between atoms: C_11  and  O_12
REMARK    6  A    between atoms: C_14  and  C_15
REMARK                            x       y       z     vdW  Elec       q    Type
REMARK                         _______ _______ _______ _____ _____    ______ ____
ROOT
ATOM      1  C   UNL     1       2.132   3.736  18.412  0.00  0.00    +0.000 A 
ATOM      2  C   UNL     1       2.120   5.195  18.321  0.00  0.00    +0.000 A 
ATOM      3  C   UNL     1       3.230   5.804  18.783  0.00  0.00    +0.000 A 
ATOM      4  C   UNL     1       4.030   6.129  17.568  0.00  0.00    +0.000 A 
ATOM      5  O   UNL     1       4.111   7.261  17.110  0.00  0.00    +0.000 OA
ATOM      6  C   UNL     1       4.736   4.927  16.977  0.00  0.00    +0.000 A 
ATOM      7  C   UNL     1       4.326   3.648  17.145  0.00  0.00    +0.000 A 
ATOM      8  C   UNL     1       3.234   3.066  17.961  0.00  0.00    +0.000 A 
ATOM      9  C   UNL     1       3.539   1.655  18.400  0.00  0.00    +0.000 C 
ENDROOT
BRANCH   1  10
ATOM     10  C   UNL     1       0.970   3.026  19.052  0.00  0.00    +0.000 C 
ATOM     11  O   UNL     1       0.263   2.196  18.504  0.00  0.00    +0.000 OA
BRANCH  10  13
ATOM     12  C   UNL     1       1.481   2.779  21.324  0.00  0.00    +0.000 C 
ATOM     13  O   UNL     1       0.765   3.498  20.314  0.00  0.00    +0.000 OA
ENDBRANCH  10  13
ENDBRANCH   1  10
BRANCH   3  14
ATOM     14  O   UNL     1       3.912   5.276  19.884  0.00  0.00    +0.000 OA
ATOM     15  H   UNL     1       4.599   4.669  19.551  0.00  0.00    +0.000 HD
ENDBRANCH   3  14
BRANCH   6  16
ATOM     16  O   UNL     1       5.886   5.198  16.247  0.00  0.00    +0.000 OA
ATOM     17  H   UNL     1       5.656   5.770  15.495  0.00  0.00    +0.000 HD
ENDBRANCH   6  16
TORSDOF 4
ENDMDL
MODEL 3
REMARK VINA RESULT:      -6.2      1.390      5.019
REMARK  Name = 
REMARK  6 active torsions:
REMARK  status: ('A' for Active; 'I' for Inactive)
REMARK    1  A    between atoms: C_1  and  O_2
REMARK    2  A    between atoms: O_2  and  C_3
REMARK    3  A    between atoms: C_3  and  C_5
REMARK    4  A    between atoms: C_7  and  O_8
REMARK    5  A    between atoms: C_11  and  O_12
REMARK    6  A    between atoms: C_14  and  C_15
REMARK                            x       y       z     vdW  Elec       q    Type
REMARK                         _______ _______ _______ _____ _____    ______ ____
ROOT
ATOM      1  C   UNL     1       3.834   4.019  17.791  0.00  0.00    +0.000 A 
ATOM      2  C   UNL     1       4.821   3.783  16.739  0.00  0.00    +0.000 A 
ATOM      3  C   UNL     1       5.482   4.881  16.322  0.00  0.00    +0.000 A 
ATOM      4  C   UNL     1       6.798   4.831  17.020  0.00  0.00    +0.000 A 
ATOM      5  O   UNL     1       7.837   4.509  16.458  0.00  0.00    +0.000 OA
ATOM      6  C   UNL     1       6.717   5.233  18.478  0.00  0.00    +0.000 A 
ATOM      7  C   UNL     1       5.595   5.142  19.229  0.00  0.00    +0.000 A 
ATOM      8  C   UNL     1       4.206   4.760  18.877  0.00  0.00    +0.000 A 
ATOM      9  C   UNL     1       3.189   5.424  19.771  0.00  0.00    +0.000 C 
ENDROOT
BRANCH   1  10
ATOM     10  C   UNL     1       2.432   3.499  17.620  0.00  0.00    +0.000 C 
ATOM     11  O   UNL     1       1.481   4.153  17.224  0.00  0.00    +0.000 OA
BRANCH  10  13
ATOM     12  C   UNL     1       1.601   2.041  19.253  0.00  0.00    +0.000 C 
ATOM     13  O   UNL     1       2.354   2.207  18.046  0.00  0.00    +0.000 OA
ENDBRANCH  10  13
ENDBRANCH   1  10
BRANCH   3  14
ATOM     14  O   UNL     1       4.827   6.114  16.265  0.00  0.00    +0.000 OA
ATOM     15  H   UNL     1       4.893   6.532  17.143  0.00  0.00    +0.000 HD
ENDBRANCH   3  14
BRANCH   6  16
ATOM     16  O   UNL     1       7.884   5.746  19.031  0.00  0.00    +0.000 OA
ATOM     17  H   UNL     1       8.225   6.450  18.454  0.00  0.00    +0.000 HD
ENDBRANCH   6  16
TORSDOF 4
ENDMDL
MODEL 4
REMARK VINA RESULT:      -6.1      2.018      3.441
REMARK  Name = 
REMARK  6 active torsions:
REMARK  status: ('A' for Active; 'I' for Inactive)
REMARK    1  A    between atoms: C_1  and  O_2
REMARK    2  A    between atoms: O_2  and  C_3
REMARK    3  A    between atoms: C_3  and  C_5
REMARK    4  A    between atoms: C_7  and  O_8
REMARK    5  A    between atoms: C_11  and  O_12
REMARK    6  A    between atoms: C_14  and  C_15
REMARK                            x       y       z     vdW  Elec       q    Type
REMARK                         _______ _______ _______ _____ _____    ______ ____
ROOT
ATOM      1  C   UNL     1       3.895   4.253  17.480  0.00  0.00    +0.000 A 
ATOM      2  C   UNL     1       2.779   3.393  17.090  0.00  0.00    +0.000 A 
ATOM      3  C   UNL     1       2.644   2.269  17.820  0.00  0.00    +0.000 A 
ATOM      4  C   UNL     1       1.557   2.568  18.797  0.00  0.00    +0.000 A 
ATOM      5  O   UNL     1       0.422   2.125  18.683  0.00  0.00    +0.000 OA
ATOM      6  C   UNL     1       2.008   3.453  19.941  0.00  0.00    +0.000 A 
ATOM      7  C   UNL     1       3.053   4.309  19.870  0.00  0.00    +0.000 A 
ATOM      8  C   UNL     1       4.052   4.554  18.803  0.00  0.00    +0.000 A 
ATOM      9  C   UNL     1       5.370   5.037  19.356  0.00  0.00    +0.000 C 
ENDROOT
BRANCH   1  10
ATOM     10  C   UNL     1       4.867   4.724  16.431  0.00  0.00    +0.000 C 
ATOM     11  O   UNL     1       4.942   5.864  16.002  0.00  0.00    +0.000 OA
BRANCH  10  13
ATOM     12  C   UNL     1       6.196   3.909  14.684  0.00  0.00    +0.000 C 
ATOM     13  O   UNL     1       5.604   3.676  15.966  0.00  0.00    +0.000 OA
ENDBRANCH  10  13
ENDBRANCH   1  10
BRANCH   3  14
ATOM     14  O   UNL     1       3.777   1.603  18.298  0.00  0.00    +0.000 OA
ATOM     15  H   UNL     1       3.603   1.333  19.218  0.00  0.00    +0.000 HD
ENDBRANCH   3  14
BRANCH   6  16
ATOM     16  O   UNL     1       1.291   3.326  21.123  0.00  0.00    +0.000 OA
ATOM     17  H   UNL     1       1.211   4.200  21.541  0.00  0.00    +0.000 HD
ENDBRANCH   6  16
TORSDOF 4
ENDMDL
MODEL 5
REMARK VINA RESULT:      -6.1      1.426      2.761
REMARK  Name = 
REMARK  6 active torsions:
REMARK  status: ('A' for Active; 'I' for Inactive)
REMARK    1  A    between atoms: C_1  and  O_2
REMARK    2  A    between atoms: O_2  and  C_3
REMARK    3  A    between atoms: C_3  and  C_5
REMARK    4  A    between atoms: C_7  and  O_8
REMARK    5  A    between atoms: C_11  and  O_12
REMARK    6  A    between atoms: C_14  and  C_15
REMARK                            x       y       z     vdW  Elec       q    Type
REMARK                         _______ _______ _______ _____ _____    ______ ____
ROOT
ATOM      1  C   UNL     1       5.648   4.769  17.234  0.00  0.00    +0.000 A 
ATOM      2  C   UNL     1       4.484   4.148  16.606  0.00  0.00    +0.000 A 
ATOM      3  C   UNL     1       3.822   3.264  17.379  0.00  0.00    +0.000 A 
ATOM      4  C   UNL     1       2.645   4.013  17.905  0.00  0.00    +0.000 A 
ATOM      5  O   UNL     1       1.509   3.848  17.480  0.00  0.00    +0.000 OA
ATOM      6  C   UNL     1       2.997   4.975  19.020  0.00  0.00    +0.000 A 
ATOM      7  C   UNL     1       4.224   5.517  19.194  0.00  0.00    +0.000 A 
ATOM      8  C   UNL     1       5.509   5.287  18.491  0.00  0.00    +0.000 A 
ATOM      9  C   UNL     1       6.700   5.535  19.382  0.00  0.00    +0.000 C 
ENDROOT
BRANCH   1  10
ATOM     10  C   UNL     1       6.969   4.764  16.512  0.00  0.00    +0.000 C 
ATOM     11  O   UNL     1       7.972   4.176  16.883  0.00  0.00    +0.000 OA
BRANCH  10  13
ATOM     12  C   UNL     1       7.060   4.882  14.175  0.00  0.00    +0.000 C 
ATOM     13  O   UNL     1       6.912   5.576  15.419  0.00  0.00    +0.000 OA
ENDBRANCH  10  13
ENDBRANCH   1  10
BRANCH   3  14
ATOM     14  O   UNL     1       4.526   2.454  18.275  0.00  0.00    +0.000 OA
ATOM     15  H   UNL     1       5.478   2.622  18.151  0.00  0.00    +0.000 HD
ENDBRANCH   3  14
BRANCH   6  16
ATOM     16  O   UNL     1       1.973   5.272  19.910  0.00  0.00    +0.000 OA
ATOM     17  H   UNL     1       1.121   5.045  19.500  0.00  0.00    +0.000 HD
ENDBRANCH   6  16
TORSDOF 4
ENDMDL
MODEL 6
REMARK VINA RESULT:      -6.1      1.615      4.481
REMARK  Name = 
REMARK  6 active torsions:
REMARK  status: ('A' for Active; 'I' for Inactive)
REMARK    1  A    between atoms: C_1  and  O_2
REMARK    2  A    between atoms: O_2  and  C_3
REMARK    3  A    between atoms: C_3  and  C_5
REMARK    4  A    between atoms: C_7  and  O_8
REMARK    5  A    between atoms: C_11  and  O_12
REMARK    6  A    between atoms: C_14  and  C_15
REMARK                            x       y       z     vdW  Elec       q    Type
REMARK                         _______ _______ _______ _____ _____    ______ ____
ROOT
ATOM      1  C   UNL     1       3.801   5.304  18.693  0.00  0.00    +0.000 A 
ATOM      2  C   UNL     1       5.227   5.500  18.949  0.00  0.00    +0.000 A 
ATOM      3  C   UNL     1       5.985   4.392  18.833  0.00  0.00    +0.000 A 
ATOM      4  C   UNL     1       6.617   4.493  17.486  0.00  0.00    +0.000 A 
ATOM      5  O   UNL     1       7.791   4.800  17.324  0.00  0.00    +0.000 OA
ATOM      6  C   UNL     1       5.667   4.162  16.353  0.00  0.00    +0.000 A 
ATOM      7  C   UNL     1       4.321   4.276  16.434  0.00  0.00    +0.000 A 
ATOM      8  C   UNL     1       3.431   4.622  17.569  0.00  0.00    +0.000 A 
ATOM      9  C   UNL     1       2.067   3.991  17.437  0.00  0.00    +0.000 C 
ENDROOT
BRANCH   1  10
ATOM     10  C   UNL     1       2.795   5.798  19.697  0.00  0.00    +0.000 C 
ATOM     11  O   UNL     1       2.196   6.860  19.630  0.00  0.00    +0.000 OA
BRANCH  10  13
ATOM     12  C   UNL     1       1.441   4.253  20.820  0.00  0.00    +0.000 C 
ATOM     13  O   UNL     1       2.702   4.926  20.740  0.00  0.00    +0.000 OA
ENDBRANCH  10  13
ENDBRANCH   1  10
BRANCH   3  14
ATOM     14  O   UNL     1       5.471   3.149  19.214  0.00  0.00    +0.000 OA
ATOM     15  H   UNL     1       4.742   3.303  19.842  0.00  0.00    +0.000 HD
ENDBRANCH   3  14
BRANCH   6  16
ATOM     16  O   UNL     1       6.256   3.692  15.187  0.00  0.00    +0.000 OA
ATOM     17  H   UNL     1       6.562   4.449  14.659  0.00  0.00    +0.000 HD
ENDBRANCH   6  16
TORSDOF 4
ENDMDL
MODEL 7
REMARK VINA RESULT:      -6.1      1.680      4.475
REMARK  Name = 
REMARK  6 active torsions:
REMARK  status: ('A' for Active; 'I' for Inactive)
REMARK    1  A    between atoms: C_1  and  O_2
REMARK    2  A    between atoms: O_2  and  C_3
REMARK    3  A    between atoms: C_3  and  C_5
REMARK    4  A    between atoms: C_7  and  O_8
REMARK    5  A    between atoms: C_11  and  O_12
REMARK    6  A    between atoms: C_14  and  C_15
REMARK                            x       y       z     vdW  Elec       q    Type
REMARK                         _______ _______ _______ _____ _____    ______ ____
ROOT
ATOM      1  C   UNL     1       4.083   5.265  17.931  0.00  0.00    +0.000 A 
ATOM      2  C   UNL     1       5.330   6.003  17.736  0.00  0.00    +0.000 A 
ATOM      3  C   UNL     1       6.442   5.243  17.698  0.00  0.00    +0.000 A 
ATOM      4  C   UNL     1       6.764   5.096  16.249  0.00  0.00    +0.000 A 
ATOM      5  O   UNL     1       7.674   5.707  15.706  0.00  0.00    +0.000 OA
ATOM      6  C   UNL     1       5.866   4.107  15.535  0.00  0.00    +0.000 A 
ATOM      7  C   UNL     1       4.618   3.782  15.946  0.00  0.00    +0.000 A 
ATOM      8  C   UNL     1       3.851   4.165  17.155  0.00  0.00    +0.000 A 
ATOM      9  C   UNL     1       2.855   3.106  17.558  0.00  0.00    +0.000 C 
ENDROOT
BRANCH   1  10
ATOM     10  C   UNL     1       3.131   5.696  19.015  0.00  0.00    +0.000 C 
ATOM     11  O   UNL     1       2.292   6.575  18.905  0.00  0.00    +0.000 OA
BRANCH  10  13
ATOM     12  C   UNL     1       2.220   4.689  20.922  0.00  0.00    +0.000 C 
ATOM     13  O   UNL     1       3.392   5.018  20.168  0.00  0.00    +0.000 OA
ENDBRANCH  10  13
ENDBRANCH   1  10
BRANCH   3  14
ATOM     14  O   UNL     1       6.539   4.102  18.501  0.00  0.00    +0.000 OA
ATOM     15  H   UNL     1       7.066   4.331  19.288  0.00  0.00    +0.000 HD
ENDBRANCH   3  14
BRANCH   6  16
ATOM     16  O   UNL     1       6.406   3.503  14.408  0.00  0.00    +0.000 OA
ATOM     17  H   UNL     1       5.878   3.752  13.630  0.00  0.00    +0.000 HD
ENDBRANCH   6  16
TORSDOF 4
ENDMDL
MODEL 8
REMARK VINA RESULT:      -6.1      1.522      4.680
REMARK  Name = 
REMARK  6 active torsions:
REMARK  status: ('A' for Active; 'I' for Inactive)
REMARK    1  A    between atoms: C_1  and  O_2
REMARK    2  A    between atoms: O_2  and  C_3
REMARK    3  A    between atoms: C_3  and  C_5
REMARK    4  A    between atoms: C_7  and  O_8
REMARK    5  A    between atoms: C_11  and  O_12
REMARK    6  A    between atoms: C_14  and  C_15
REMARK                            x       y       z     vdW  Elec       q    Type
REMARK                         _______ _______ _______ _____ _____    ______ ____
ROOT
ATOM      1  C   UNL     1       3.353   4.704  17.560  0.00  0.00    +0.000 A 
ATOM      2  C   UNL     1       3.950   6.038  17.532  0.00  0.00    +0.000 A 
ATOM      3  C   UNL     1       5.128   6.148  18.176  0.00  0.00    +0.000 A 
ATOM      4  C   UNL     1       6.163   6.094  17.104  0.00  0.00    +0.000 A 
ATOM      5  O   UNL     1       6.767   7.084  16.712  0.00  0.00    +0.000 OA
ATOM      6  C   UNL     1       6.399   4.696  16.570  0.00  0.00    +0.000 A 
ATOM      7  C   UNL     1       5.484   3.701  16.621  0.00  0.00    +0.000 A 
ATOM      8  C   UNL     1       4.140   3.633  17.244  0.00  0.00    +0.000 A 
ATOM      9  C   UNL     1       3.775   2.229  17.660  0.00  0.00    +0.000 C 
ENDROOT
BRANCH   1  10
ATOM     10  C   UNL     1       1.920   4.544  17.993  0.00  0.00    +0.000 C 
ATOM     11  O   UNL     1       0.992   4.245  17.260  0.00  0.00    +0.000 OA
BRANCH  10  13
ATOM     12  C   UNL     1       1.107   3.860  20.080  0.00  0.00    +0.000 C 
ATOM     13  O   UNL     1       1.789   4.858  19.313  0.00  0.00    +0.000 OA
ENDBRANCH  10  13
ENDBRANCH   1  10
BRANCH   3  14
ATOM     14  O   UNL     1       5.363   5.409  19.339  0.00  0.00    +0.000 OA
ATOM     15  H   UNL     1       4.751   4.650  19.343  0.00  0.00    +0.000 HD
ENDBRANCH   3  14
BRANCH   6  16
ATOM     16  O   UNL     1       7.654   4.459  16.026  0.00  0.00    +0.000 OA
ATOM     17  H   UNL     1       7.741   4.960  15.198  0.00  0.00    +0.000 HD
ENDBRANCH   6  16
TORSDOF 4
ENDMDL
MODEL 9
REMARK VINA RESULT:      -6.1      1.763      4.315
REMARK  Name = 
REMARK  6 active torsions:
REMARK  status: ('A' for Active; 'I' for Inactive)
REMARK    1  A    between atoms: C_1  and  O_2
REMARK    2  A    between atoms: O_2  and  C_3
REMARK    3  A    between atoms: C_3  and  C_5
REMARK    4  A    between atoms: C_7  and  O_8
REMARK    5  A    between atoms: C_11  and  O_12
REMARK    6  A    between atoms: C_14  and  C_15
REMARK                            x       y       z     vdW  Elec       q    Type
REMARK                         _______ _______ _______ _____ _____    ______ ____
ROOT
ATOM      1  C   UNL     1       3.765   5.323  18.607  0.00  0.00    +0.000 A 
ATOM      2  C   UNL     1       5.192   5.585  18.785  0.00  0.00    +0.000 A 
ATOM      3  C   UNL     1       5.981   4.493  18.754  0.00  0.00    +0.000 A 
ATOM      4  C   UNL     1       6.560   4.470  17.380  0.00  0.00    +0.000 A 
ATOM      5  O   UNL     1       7.716   4.791  17.142  0.00  0.00    +0.000 OA
ATOM      6  C   UNL     1       5.581   3.995  16.327  0.00  0.00    +0.000 A 
ATOM      7  C   UNL     1       4.236   4.079  16.448  0.00  0.00    +0.000 A 
ATOM      8  C   UNL     1       3.377   4.516  17.575  0.00  0.00    +0.000 A 
ATOM      9  C   UNL     1       2.030   3.836  17.563  0.00  0.00    +0.000 C 
ENDROOT
BRANCH   1  10
ATOM     10  C   UNL     1       2.780   5.891  19.594  0.00  0.00    +0.000 C 
ATOM     11  O   UNL     1       2.383   5.322  20.598  0.00  0.00    +0.000 OA
BRANCH  10  13
ATOM     12  C   UNL     1       1.810   7.929  20.213  0.00  0.00    +0.000 C 
ATOM     13  O   UNL     1       2.331   7.104  19.166  0.00  0.00    +0.000 OA
ENDBRANCH  10  13
ENDBRANCH   1  10
BRANCH   3  14
ATOM     14  O   UNL     1       5.521   3.282  19.283  0.00  0.00    +0.000 OA
ATOM     15  H   UNL     1       6.045   2.562  18.887  0.00  0.00    +0.000 HD
ENDBRANCH   3  14
BRANCH   6  16
ATOM     16  O   UNL     1       6.142   3.422  15.193  0.00  0.00    +0.000 OA
ATOM     17  H   UNL     1       6.349   2.490  15.378  0.00  0.00    +0.000 HD
ENDBRANCH   6  16
TORSDOF 4
ENDMDL
