MODEL 1
REMARK VINA RESULT:      -9.2      0.000      0.000
REMARK  Name = 
REMARK  6 active torsions:
REMARK  status: ('A' for Active; 'I' for Inactive)
REMARK    1  A    between atoms: C_1  and  C_2
REMARK    2  A    between atoms: C_11  and  C_12
REMARK    3  A    between atoms: C_16  and  N_17
REMARK    4  A    between atoms: C_18  and  C_20
REMARK    5  A    between atoms: C_22  and  C_23
REMARK    6  A    between atoms: C_29  and  C_30
REMARK                            x       y       z     vdW  Elec       q    Type
REMARK                         _______ _______ _______ _____ _____    ______ ____
ROOT
ATOM      1  N   UNL     1       0.648   9.744  18.914  0.00  0.00    +0.000 N 
ATOM      2  C   UNL     1       1.681   9.049  18.358  0.00  0.00    +0.000 C 
ATOM      3  O   UNL     1       2.291   9.470  17.381  0.00  0.00    +0.000 OA
ATOM      4  H   UNL     1       0.169   9.371  19.723  0.00  0.00    +0.000 HD
ENDROOT
BRANCH   1  20
ATOM      5  C   UNL     1       2.141  15.103  22.053  0.00  0.00    +0.000 C 
ATOM      6  C   UNL     1       1.641  14.084  21.074  0.00  0.00    +0.000 A 
ATOM      7  C   UNL     1       2.542  13.313  20.333  0.00  0.00    +0.000 A 
ATOM      8  C   UNL     1       2.079  12.361  19.427  0.00  0.00    +0.000 A 
ATOM      9  C   UNL     1       0.702  12.132  19.271  0.00  0.00    +0.000 A 
ATOM     10  C   UNL     1      -0.201  12.926  19.981  0.00  0.00    +0.000 A 
ATOM     11  C   UNL     1       0.265  13.899  20.872  0.00  0.00    +0.000 A 
ATOM     12  O   UNL     1      -1.563  12.817  19.854  0.00  0.00    +0.000 OA
ATOM     13  C   UNL     1      -2.077  11.908  18.959  0.00  0.00    +0.000 A 
ATOM     14  C   UNL     1      -3.468  11.909  18.817  0.00  0.00    +0.000 A 
ATOM     15  C   UNL     1      -4.100  11.017  17.938  0.00  0.00    +0.000 A 
ATOM     16  C   UNL     1      -5.590  11.009  17.783  0.00  0.00    +0.000 C 
ATOM     17  C   UNL     1      -3.313  10.121  17.205  0.00  0.00    +0.000 A 
ATOM     18  C   UNL     1      -1.925  10.125  17.344  0.00  0.00    +0.000 A 
ATOM     19  C   UNL     1      -1.291  11.019  18.227  0.00  0.00    +0.000 A 
ATOM     20  C   UNL     1       0.204  11.026  18.377  0.00  0.00    +0.000 C 
ENDBRANCH   1  20
BRANCH   2  21
ATOM     21  C   UNL     1       2.047   7.754  19.007  0.00  0.00    +0.000 A 
ATOM     22  C   UNL     1       2.892   6.991  18.306  0.00  0.00    +0.000 A 
ATOM     23  C   UNL     1       3.350   5.671  18.685  0.00  0.00    +0.000 A 
ATOM     24  C   UNL     1       2.962   5.205  19.896  0.00  0.00    +0.000 A 
ATOM     25  N   UNL     1       2.126   6.000  20.682  0.00  0.00    +0.000 N 
ATOM     26  C   UNL     1       1.604   7.224  20.310  0.00  0.00    +0.000 A 
ATOM     27  O   UNL     1       0.827   7.845  21.038  0.00  0.00    +0.000 OA
ATOM     28  H   UNL     1       1.838   5.655  21.595  0.00  0.00    +0.000 HD
BRANCH  23  29
ATOM     29  C   UNL     1       4.215   4.900  17.679  0.00  0.00    +0.000 C 
ATOM     30  C   UNL     1       4.427   5.649  16.347  0.00  0.00    +0.000 C 
ATOM     31  C   UNL     1       5.404   6.818  16.438  0.00  0.00    +0.000 C 
ATOM     32  C   UNL     1       6.709   6.460  17.163  0.00  0.00    +0.000 C 
ATOM     33  C   UNL     1       6.596   5.557  18.400  0.00  0.00    +0.000 C 
ATOM     34  C   UNL     1       5.571   4.439  18.242  0.00  0.00    +0.000 C 
ENDBRANCH  23  29
BRANCH  24  35
ATOM     35  C   UNL     1       3.362   3.845  20.439  0.00  0.00    +0.000 C 
ATOM     36  F   UNL     1       2.798   3.606  21.654  0.00  0.00    +0.000 F 
ATOM     37  F   UNL     1       2.972   2.833  19.623  0.00  0.00    +0.000 F 
ATOM     38  F   UNL     1       4.705   3.735  20.603  0.00  0.00    +0.000 F 
ENDBRANCH  24  35
ENDBRANCH   2  21
TORSDOF 4
ENDMDL
MODEL 2
REMARK VINA RESULT:      -9.0      1.837      4.945
REMARK  Name = 
REMARK  6 active torsions:
REMARK  status: ('A' for Active; 'I' for Inactive)
REMARK    1  A    between atoms: C_1  and  C_2
REMARK    2  A    between atoms: C_11  and  C_12
REMARK    3  A    between atoms: C_16  and  N_17
REMARK    4  A    between atoms: C_18  and  C_20
REMARK    5  A    between atoms: C_22  and  C_23
REMARK    6  A    between atoms: C_29  and  C_30
REMARK                            x       y       z     vdW  Elec       q    Type
REMARK                         _______ _______ _______ _____ _____    ______ ____
ROOT
ATOM      1  N   UNL     1       1.035   9.717  18.940  0.00  0.00    +0.000 N 
ATOM      2  C   UNL     1       1.406   8.583  19.599  0.00  0.00    +0.000 C 
ATOM      3  O   UNL     1       0.955   8.302  20.705  0.00  0.00    +0.000 OA
ATOM      4  H   UNL     1       1.422   9.916  18.026  0.00  0.00    +0.000 HD
ENDROOT
BRANCH   1  20
ATOM      5  C   UNL     1      -4.492  10.768  15.914  0.00  0.00    +0.000 C 
ATOM      6  C   UNL     1      -3.340  10.755  16.873  0.00  0.00    +0.000 A 
ATOM      7  C   UNL     1      -3.027   9.594  17.588  0.00  0.00    +0.000 A 
ATOM      8  C   UNL     1      -1.952   9.579  18.475  0.00  0.00    +0.000 A 
ATOM      9  C   UNL     1      -1.144  10.716  18.639  0.00  0.00    +0.000 A 
ATOM     10  C   UNL     1      -1.477  11.887  17.957  0.00  0.00    +0.000 A 
ATOM     11  C   UNL     1      -2.571  11.908  17.084  0.00  0.00    +0.000 A 
ATOM     12  O   UNL     1      -0.782  13.063  18.093  0.00  0.00    +0.000 OA
ATOM     13  C   UNL     1       0.275  13.113  18.971  0.00  0.00    +0.000 A 
ATOM     14  C   UNL     1       0.884  14.362  19.126  0.00  0.00    +0.000 A 
ATOM     15  C   UNL     1       1.976  14.526  19.990  0.00  0.00    +0.000 A 
ATOM     16  C   UNL     1       2.636  15.860  20.159  0.00  0.00    +0.000 C 
ATOM     17  C   UNL     1       2.453  13.413  20.693  0.00  0.00    +0.000 A 
ATOM     18  C   UNL     1       1.841  12.169  20.542  0.00  0.00    +0.000 A 
ATOM     19  C   UNL     1       0.746  12.004  19.675  0.00  0.00    +0.000 A 
ATOM     20  C   UNL     1       0.085  10.665  19.510  0.00  0.00    +0.000 C 
ENDBRANCH   1  20
BRANCH   2  21
ATOM     21  C   UNL     1       2.379   7.687  18.903  0.00  0.00    +0.000 A 
ATOM     22  C   UNL     1       2.467   6.452  19.406  0.00  0.00    +0.000 A 
ATOM     23  C   UNL     1       3.375   5.419  18.952  0.00  0.00    +0.000 A 
ATOM     24  C   UNL     1       4.135   5.697  17.867  0.00  0.00    +0.000 A 
ATOM     25  N   UNL     1       4.027   6.958  17.279  0.00  0.00    +0.000 N 
ATOM     26  C   UNL     1       3.234   7.991  17.741  0.00  0.00    +0.000 A 
ATOM     27  O   UNL     1       3.231   9.097  17.199  0.00  0.00    +0.000 OA
ATOM     28  H   UNL     1       4.592   7.166  16.459  0.00  0.00    +0.000 HD
BRANCH  23  29
ATOM     29  C   UNL     1       3.419   4.108  19.749  0.00  0.00    +0.000 C 
ATOM     30  C   UNL     1       2.513   4.114  20.998  0.00  0.00    +0.000 C 
ATOM     31  C   UNL     1       1.024   3.990  20.689  0.00  0.00    +0.000 C 
ATOM     32  C   UNL     1       0.705   2.862  19.698  0.00  0.00    +0.000 C 
ATOM     33  C   UNL     1       1.672   2.673  18.521  0.00  0.00    +0.000 C 
ATOM     34  C   UNL     1       3.137   2.853  18.905  0.00  0.00    +0.000 C 
ENDBRANCH  23  29
BRANCH  24  35
ATOM     35  C   UNL     1       5.130   4.718  17.267  0.00  0.00    +0.000 C 
ATOM     36  F   UNL     1       5.952   5.328  16.370  0.00  0.00    +0.000 F 
ATOM     37  F   UNL     1       5.929   4.158  18.210  0.00  0.00    +0.000 F 
ATOM     38  F   UNL     1       4.514   3.704  16.608  0.00  0.00    +0.000 F 
ENDBRANCH  24  35
ENDBRANCH   2  21
TORSDOF 4
ENDMDL
MODEL 3
REMARK VINA RESULT:      -8.6      5.992      8.718
REMARK  Name = 
REMARK  6 active torsions:
REMARK  status: ('A' for Active; 'I' for Inactive)
REMARK    1  A    between atoms: C_1  and  C_2
REMARK    2  A    between atoms: C_11  and  C_12
REMARK    3  A    between atoms: C_16  and  N_17
REMARK    4  A    between atoms: C_18  and  C_20
REMARK    5  A    between atoms: C_22  and  C_23
REMARK    6  A    between atoms: C_29  and  C_30
REMARK                            x       y       z     vdW  Elec       q    Type
REMARK                         _______ _______ _______ _____ _____    ______ ____
ROOT
ATOM      1  N   UNL     1      -1.101  12.517  19.003  0.00  0.00    +0.000 N 
ATOM      2  C   UNL     1       0.176  12.118  19.265  0.00  0.00    +0.000 C 
ATOM      3  O   UNL     1       0.426  11.004  19.713  0.00  0.00    +0.000 OA
ATOM      4  H   UNL     1      -1.271  13.442  18.629  0.00  0.00    +0.000 HD
ENDROOT
BRANCH   1  20
ATOM      5  C   UNL     1      -4.099   9.895  14.010  0.00  0.00    +0.000 C 
ATOM      6  C   UNL     1      -3.640  10.309  15.375  0.00  0.00    +0.000 A 
ATOM      7  C   UNL     1      -2.382   9.922  15.846  0.00  0.00    +0.000 A 
ATOM      8  C   UNL     1      -1.952  10.312  17.113  0.00  0.00    +0.000 A 
ATOM      9  C   UNL     1      -2.757  11.130  17.922  0.00  0.00    +0.000 A 
ATOM     10  C   UNL     1      -4.029  11.487  17.470  0.00  0.00    +0.000 A 
ATOM     11  C   UNL     1      -4.470  11.074  16.208  0.00  0.00    +0.000 A 
ATOM     12  O   UNL     1      -4.909  12.236  18.209  0.00  0.00    +0.000 OA
ATOM     13  C   UNL     1      -4.547  12.631  19.476  0.00  0.00    +0.000 A 
ATOM     14  C   UNL     1      -5.523  13.317  20.206  0.00  0.00    +0.000 A 
ATOM     15  C   UNL     1      -5.257  13.773  21.506  0.00  0.00    +0.000 A 
ATOM     16  C   UNL     1      -6.296  14.511  22.293  0.00  0.00    +0.000 C 
ATOM     17  C   UNL     1      -3.994  13.535  22.060  0.00  0.00    +0.000 A 
ATOM     18  C   UNL     1      -3.023  12.846  21.331  0.00  0.00    +0.000 A 
ATOM     19  C   UNL     1      -3.289  12.389  20.028  0.00  0.00    +0.000 A 
ATOM     20  C   UNL     1      -2.246  11.646  19.243  0.00  0.00    +0.000 C 
ENDBRANCH   1  20
BRANCH   2  21
ATOM     21  C   UNL     1       1.263  13.100  18.967  0.00  0.00    +0.000 A 
ATOM     22  C   UNL     1       1.046  14.337  19.426  0.00  0.00    +0.000 A 
ATOM     23  C   UNL     1       1.913  15.478  19.217  0.00  0.00    +0.000 A 
ATOM     24  C   UNL     1       3.087  15.255  18.581  0.00  0.00    +0.000 A 
ATOM     25  N   UNL     1       3.374  13.963  18.139  0.00  0.00    +0.000 N 
ATOM     26  C   UNL     1       2.530  12.874  18.247  0.00  0.00    +0.000 A 
ATOM     27  O   UNL     1       2.830  11.773  17.784  0.00  0.00    +0.000 OA
ATOM     28  H   UNL     1       4.259  13.791  17.667  0.00  0.00    +0.000 HD
BRANCH  23  29
ATOM     29  C   UNL     1       1.422  16.847  19.710  0.00  0.00    +0.000 C 
ATOM     30  C   UNL     1       0.726  17.683  18.615  0.00  0.00    +0.000 C 
ATOM     31  C   UNL     1      -0.677  17.199  18.259  0.00  0.00    +0.000 C 
ATOM     32  C   UNL     1      -1.556  16.934  19.489  0.00  0.00    +0.000 C 
ATOM     33  C   UNL     1      -0.883  16.267  20.698  0.00  0.00    +0.000 C 
ATOM     34  C   UNL     1       0.531  16.778  20.962  0.00  0.00    +0.000 C 
ENDBRANCH  23  29
BRANCH  24  35
ATOM     35  C   UNL     1       4.104  16.345  18.291  0.00  0.00    +0.000 C 
ATOM     36  F   UNL     1       3.684  17.168  17.292  0.00  0.00    +0.000 F 
ATOM     37  F   UNL     1       4.334  17.131  19.373  0.00  0.00    +0.000 F 
ATOM     38  F   UNL     1       5.301  15.837  17.901  0.00  0.00    +0.000 F 
ENDBRANCH  24  35
ENDBRANCH   2  21
TORSDOF 4
ENDMDL
MODEL 4
REMARK VINA RESULT:      -8.0      5.962      8.717
REMARK  Name = 
REMARK  6 active torsions:
REMARK  status: ('A' for Active; 'I' for Inactive)
REMARK    1  A    between atoms: C_1  and  C_2
REMARK    2  A    between atoms: C_11  and  C_12
REMARK    3  A    between atoms: C_16  and  N_17
REMARK    4  A    between atoms: C_18  and  C_20
REMARK    5  A    between atoms: C_22  and  C_23
REMARK    6  A    between atoms: C_29  and  C_30
REMARK                            x       y       z     vdW  Elec       q    Type
REMARK                         _______ _______ _______ _____ _____    ______ ____
ROOT
ATOM      1  N   UNL     1      -1.251  12.283  18.517  0.00  0.00    +0.000 N 
ATOM      2  C   UNL     1      -0.072  12.097  19.177  0.00  0.00    +0.000 C 
ATOM      3  O   UNL     1       0.075  11.195  19.995  0.00  0.00    +0.000 OA
ATOM      4  H   UNL     1      -1.337  13.035  17.845  0.00  0.00    +0.000 HD
ENDROOT
BRANCH   1  20
ATOM      5  C   UNL     1      -4.271   9.745  13.494  0.00  0.00    +0.000 C 
ATOM      6  C   UNL     1      -3.810  10.141  14.864  0.00  0.00    +0.000 A 
ATOM      7  C   UNL     1      -2.558   9.733  15.334  0.00  0.00    +0.000 A 
ATOM      8  C   UNL     1      -2.125  10.106  16.605  0.00  0.00    +0.000 A 
ATOM      9  C   UNL     1      -2.922  10.927  17.420  0.00  0.00    +0.000 A 
ATOM     10  C   UNL     1      -4.188  11.304  16.969  0.00  0.00    +0.000 A 
ATOM     11  C   UNL     1      -4.632  10.909  15.702  0.00  0.00    +0.000 A 
ATOM     12  O   UNL     1      -5.061  12.057  17.713  0.00  0.00    +0.000 OA
ATOM     13  C   UNL     1      -4.696  12.436  18.984  0.00  0.00    +0.000 A 
ATOM     14  C   UNL     1      -5.665  13.127  19.719  0.00  0.00    +0.000 A 
ATOM     15  C   UNL     1      -5.396  13.569  21.023  0.00  0.00    +0.000 A 
ATOM     16  C   UNL     1      -6.427  14.313  21.815  0.00  0.00    +0.000 C 
ATOM     17  C   UNL     1      -4.137  13.309  21.577  0.00  0.00    +0.000 A 
ATOM     18  C   UNL     1      -3.174  12.615  20.845  0.00  0.00    +0.000 A 
ATOM     19  C   UNL     1      -3.443  12.173  19.537  0.00  0.00    +0.000 A 
ATOM     20  C   UNL     1      -2.407  11.424  18.747  0.00  0.00    +0.000 C 
ENDBRANCH   1  20
BRANCH   2  21
ATOM     21  C   UNL     1       1.041  13.038  18.846  0.00  0.00    +0.000 A 
ATOM     22  C   UNL     1       0.782  14.326  19.094  0.00  0.00    +0.000 A 
ATOM     23  C   UNL     1       1.667  15.435  18.805  0.00  0.00    +0.000 A 
ATOM     24  C   UNL     1       2.898  15.136  18.328  0.00  0.00    +0.000 A 
ATOM     25  N   UNL     1       3.225  13.796  18.112  0.00  0.00    +0.000 N 
ATOM     26  C   UNL     1       2.372  12.725  18.296  0.00  0.00    +0.000 A 
ATOM     27  O   UNL     1       2.715  11.571  18.032  0.00  0.00    +0.000 OA
ATOM     28  H   UNL     1       4.152  13.569  17.760  0.00  0.00    +0.000 HD
BRANCH  23  29
ATOM     29  C   UNL     1       1.132  16.855  19.041  0.00  0.00    +0.000 C 
ATOM     30  C   UNL     1      -0.382  16.994  18.782  0.00  0.00    +0.000 C 
ATOM     31  C   UNL     1      -1.259  16.378  19.869  0.00  0.00    +0.000 C 
ATOM     32  C   UNL     1      -0.834  16.779  21.288  0.00  0.00    +0.000 C 
ATOM     33  C   UNL     1       0.674  16.845  21.573  0.00  0.00    +0.000 C 
ATOM     34  C   UNL     1       1.483  17.435  20.422  0.00  0.00    +0.000 C 
ENDBRANCH  23  29
BRANCH  24  35
ATOM     35  C   UNL     1       3.941  16.184  17.983  0.00  0.00    +0.000 C 
ATOM     36  F   UNL     1       4.399  16.820  19.096  0.00  0.00    +0.000 F 
ATOM     37  F   UNL     1       5.025  15.645  17.369  0.00  0.00    +0.000 F 
ATOM     38  F   UNL     1       3.448  17.144  17.159  0.00  0.00    +0.000 F 
ENDBRANCH  24  35
ENDBRANCH   2  21
TORSDOF 4
ENDMDL
MODEL 5
REMARK VINA RESULT:      -8.0      4.702      8.215
REMARK  Name = 
REMARK  6 active torsions:
REMARK  status: ('A' for Active; 'I' for Inactive)
REMARK    1  A    between atoms: C_1  and  C_2
REMARK    2  A    between atoms: C_11  and  C_12
REMARK    3  A    between atoms: C_16  and  N_17
REMARK    4  A    between atoms: C_18  and  C_20
REMARK    5  A    between atoms: C_22  and  C_23
REMARK    6  A    between atoms: C_29  and  C_30
REMARK                            x       y       z     vdW  Elec       q    Type
REMARK                         _______ _______ _______ _____ _____    ______ ____
ROOT
ATOM      1  N   UNL     1      -4.666  13.371  19.690  0.00  0.00    +0.000 N 
ATOM      2  C   UNL     1      -4.648  12.075  19.269  0.00  0.00    +0.000 C 
ATOM      3  O   UNL     1      -5.678  11.417  19.158  0.00  0.00    +0.000 OA
ATOM      4  H   UNL     1      -3.798  13.886  19.766  0.00  0.00    +0.000 HD
ENDROOT
BRANCH   1  20
ATOM      5  C   UNL     1      -7.340  17.303  15.426  0.00  0.00    +0.000 C 
ATOM      6  C   UNL     1      -7.014  16.465  16.625  0.00  0.00    +0.000 A 
ATOM      7  C   UNL     1      -7.009  15.070  16.533  0.00  0.00    +0.000 A 
ATOM      8  C   UNL     1      -6.700  14.290  17.646  0.00  0.00    +0.000 A 
ATOM      9  C   UNL     1      -6.353  14.892  18.867  0.00  0.00    +0.000 A 
ATOM     10  C   UNL     1      -6.395  16.283  18.973  0.00  0.00    +0.000 A 
ATOM     11  C   UNL     1      -6.729  17.065  17.861  0.00  0.00    +0.000 A 
ATOM     12  O   UNL     1      -6.127  16.960  20.136  0.00  0.00    +0.000 OA
ATOM     13  C   UNL     1      -5.837  16.241  21.272  0.00  0.00    +0.000 A 
ATOM     14  C   UNL     1      -5.660  16.989  22.440  0.00  0.00    +0.000 A 
ATOM     15  C   UNL     1      -5.352  16.359  23.655  0.00  0.00    +0.000 A 
ATOM     16  C   UNL     1      -5.157  17.152  24.910  0.00  0.00    +0.000 C 
ATOM     17  C   UNL     1      -5.219  14.965  23.678  0.00  0.00    +0.000 A 
ATOM     18  C   UNL     1      -5.402  14.221  22.512  0.00  0.00    +0.000 A 
ATOM     19  C   UNL     1      -5.710  14.852  21.294  0.00  0.00    +0.000 A 
ATOM     20  C   UNL     1      -5.908  14.053  20.037  0.00  0.00    +0.000 C 
ENDBRANCH   1  20
BRANCH   2  21
ATOM     21  C   UNL     1      -3.313  11.494  18.934  0.00  0.00    +0.000 A 
ATOM     22  C   UNL     1      -2.358  11.713  19.844  0.00  0.00    +0.000 A 
ATOM     23  C   UNL     1      -0.973  11.310  19.727  0.00  0.00    +0.000 A 
ATOM     24  C   UNL     1      -0.633  10.568  18.647  0.00  0.00    +0.000 A 
ATOM     25  N   UNL     1      -1.618  10.269  17.705  0.00  0.00    +0.000 N 
ATOM     26  C   UNL     1      -2.926  10.712  17.745  0.00  0.00    +0.000 A 
ATOM     27  O   UNL     1      -3.727  10.450  16.847  0.00  0.00    +0.000 OA
ATOM     28  H   UNL     1      -1.366   9.705  16.895  0.00  0.00    +0.000 HD
BRANCH  23  29
ATOM     29  C   UNL     1      -0.000  11.775  20.821  0.00  0.00    +0.000 C 
ATOM     30  C   UNL     1      -0.168  13.259  21.205  0.00  0.00    +0.000 C 
ATOM     31  C   UNL     1      -1.407  13.549  22.048  0.00  0.00    +0.000 C 
ATOM     32  C   UNL     1      -1.575  12.580  23.227  0.00  0.00    +0.000 C 
ATOM     33  C   UNL     1      -1.245  11.103  22.970  0.00  0.00    +0.000 C 
ATOM     34  C   UNL     1      -0.018  10.901  22.087  0.00  0.00    +0.000 C 
ENDBRANCH  23  29
BRANCH  24  35
ATOM     35  C   UNL     1       0.775  10.064  18.385  0.00  0.00    +0.000 C 
ATOM     36  F   UNL     1       1.247   9.331  19.430  0.00  0.00    +0.000 F 
ATOM     37  F   UNL     1       0.837   9.265  17.290  0.00  0.00    +0.000 F 
ATOM     38  F   UNL     1       1.654  11.081  18.192  0.00  0.00    +0.000 F 
ENDBRANCH  24  35
ENDBRANCH   2  21
TORSDOF 4
ENDMDL
MODEL 6
REMARK VINA RESULT:      -7.9      5.159      8.706
REMARK  Name = 
REMARK  6 active torsions:
REMARK  status: ('A' for Active; 'I' for Inactive)
REMARK    1  A    between atoms: C_1  and  C_2
REMARK    2  A    between atoms: C_11  and  C_12
REMARK    3  A    between atoms: C_16  and  N_17
REMARK    4  A    between atoms: C_18  and  C_20
REMARK    5  A    between atoms: C_22  and  C_23
REMARK    6  A    between atoms: C_29  and  C_30
REMARK                            x       y       z     vdW  Elec       q    Type
REMARK                         _______ _______ _______ _____ _____    ______ ____
ROOT
ATOM      1  N   UNL     1      -4.897  14.141  19.918  0.00  0.00    +0.000 N 
ATOM      2  C   UNL     1      -4.975  12.795  19.717  0.00  0.00    +0.000 C 
ATOM      3  O   UNL     1      -6.031  12.183  19.842  0.00  0.00    +0.000 OA
ATOM      4  H   UNL     1      -4.011  14.616  19.802  0.00  0.00    +0.000 HD
ENDROOT
BRANCH   1  20
ATOM      5  C   UNL     1      -7.106  18.549  15.857  0.00  0.00    +0.000 C 
ATOM      6  C   UNL     1      -6.880  17.621  17.013  0.00  0.00    +0.000 A 
ATOM      7  C   UNL     1      -7.022  16.240  16.849  0.00  0.00    +0.000 A 
ATOM      8  C   UNL     1      -6.806  15.376  17.921  0.00  0.00    +0.000 A 
ATOM      9  C   UNL     1      -6.405  15.873  19.172  0.00  0.00    +0.000 A 
ATOM     10  C   UNL     1      -6.300  17.254  19.348  0.00  0.00    +0.000 A 
ATOM     11  C   UNL     1      -6.541  18.123  18.278  0.00  0.00    +0.000 A 
ATOM     12  O   UNL     1      -5.969  17.838  20.545  0.00  0.00    +0.000 OA
ATOM     13  C   UNL     1      -5.765  17.036  21.643  0.00  0.00    +0.000 A 
ATOM     14  C   UNL     1      -5.517  17.699  22.849  0.00  0.00    +0.000 A 
ATOM     15  C   UNL     1      -5.287  16.979  24.030  0.00  0.00    +0.000 A 
ATOM     16  C   UNL     1      -5.017  17.682  25.325  0.00  0.00    +0.000 C 
ATOM     17  C   UNL     1      -5.304  15.580  23.981  0.00  0.00    +0.000 A 
ATOM     18  C   UNL     1      -5.557  14.920  22.779  0.00  0.00    +0.000 A 
ATOM     19  C   UNL     1      -5.788  15.642  21.594  0.00  0.00    +0.000 A 
ATOM     20  C   UNL     1      -6.061  14.933  20.298  0.00  0.00    +0.000 C 
ENDBRANCH   1  20
BRANCH   2  21
ATOM     21  C   UNL     1      -3.713  12.099  19.320  0.00  0.00    +0.000 A 
ATOM     22  C   UNL     1      -2.748  12.112  20.246  0.00  0.00    +0.000 A 
ATOM     23  C   UNL     1      -1.418  11.564  20.085  0.00  0.00    +0.000 A 
ATOM     24  C   UNL     1      -1.157  10.900  18.934  0.00  0.00    +0.000 A 
ATOM     25  N   UNL     1      -2.161  10.816  17.968  0.00  0.00    +0.000 N 
ATOM     26  C   UNL     1      -3.409  11.402  18.057  0.00  0.00    +0.000 A 
ATOM     27  O   UNL     1      -4.226  11.329  17.138  0.00  0.00    +0.000 OA
ATOM     28  H   UNL     1      -1.969  10.312  17.105  0.00  0.00    +0.000 HD
BRANCH  23  29
ATOM     29  C   UNL     1      -0.408  11.798  21.217  0.00  0.00    +0.000 C 
ATOM     30  C   UNL     1      -0.087  13.288  21.458  0.00  0.00    +0.000 C 
ATOM     31  C   UNL     1      -1.200  14.060  22.160  0.00  0.00    +0.000 C 
ATOM     32  C   UNL     1      -1.750  13.336  23.397  0.00  0.00    +0.000 C 
ATOM     33  C   UNL     1      -1.924  11.814  23.296  0.00  0.00    +0.000 C 
ATOM     34  C   UNL     1      -0.789  11.123  22.546  0.00  0.00    +0.000 C 
ENDBRANCH  23  29
BRANCH  24  35
ATOM     35  C   UNL     1       0.186  10.265  18.618  0.00  0.00    +0.000 C 
ATOM     36  F   UNL     1       0.145   9.564  17.452  0.00  0.00    +0.000 F 
ATOM     37  F   UNL     1       1.170  11.190  18.482  0.00  0.00    +0.000 F 
ATOM     38  F   UNL     1       0.580   9.396  19.583  0.00  0.00    +0.000 F 
ENDBRANCH  24  35
ENDBRANCH   2  21
TORSDOF 4
ENDMDL
MODEL 7
REMARK VINA RESULT:      -7.9      4.877      8.493
REMARK  Name = 
REMARK  6 active torsions:
REMARK  status: ('A' for Active; 'I' for Inactive)
REMARK    1  A    between atoms: C_1  and  C_2
REMARK    2  A    between atoms: C_11  and  C_12
REMARK    3  A    between atoms: C_16  and  N_17
REMARK    4  A    between atoms: C_18  and  C_20
REMARK    5  A    between atoms: C_22  and  C_23
REMARK    6  A    between atoms: C_29  and  C_30
REMARK                            x       y       z     vdW  Elec       q    Type
REMARK                         _______ _______ _______ _____ _____    ______ ____
ROOT
ATOM      1  N   UNL     1      -0.775  12.468  19.792  0.00  0.00    +0.000 N 
ATOM      2  C   UNL     1      -1.637  12.889  20.761  0.00  0.00    +0.000 C 
ATOM      3  O   UNL     1      -1.251  13.171  21.891  0.00  0.00    +0.000 OA
ATOM      4  H   UNL     1      -1.125  12.249  18.869  0.00  0.00    +0.000 HD
ENDROOT
BRANCH   1  20
ATOM      5  C   UNL     1       3.237  16.857  17.458  0.00  0.00    +0.000 C 
ATOM      6  C   UNL     1       2.607  15.687  18.151  0.00  0.00    +0.000 A 
ATOM      7  C   UNL     1       1.746  15.886  19.235  0.00  0.00    +0.000 A 
ATOM      8  C   UNL     1       1.154  14.799  19.876  0.00  0.00    +0.000 A 
ATOM      9  C   UNL     1       1.383  13.490  19.422  0.00  0.00    +0.000 A 
ATOM     10  C   UNL     1       2.272  13.285  18.365  0.00  0.00    +0.000 A 
ATOM     11  C   UNL     1       2.885  14.376  17.738  0.00  0.00    +0.000 A 
ATOM     12  O   UNL     1       2.602  12.042  17.887  0.00  0.00    +0.000 OA
ATOM     13  C   UNL     1       2.065  10.931  18.495  0.00  0.00    +0.000 A 
ATOM     14  C   UNL     1       2.510   9.695  18.015  0.00  0.00    +0.000 A 
ATOM     15  C   UNL     1       2.022   8.497  18.557  0.00  0.00    +0.000 A 
ATOM     16  C   UNL     1       2.491   7.170  18.046  0.00  0.00    +0.000 C 
ATOM     17  C   UNL     1       1.075   8.559  19.587  0.00  0.00    +0.000 A 
ATOM     18  C   UNL     1       0.637   9.793  20.068  0.00  0.00    +0.000 A 
ATOM     19  C   UNL     1       1.126  10.994  19.524  0.00  0.00    +0.000 A 
ATOM     20  C   UNL     1       0.655  12.324  20.041  0.00  0.00    +0.000 C 
ENDBRANCH   1  20
BRANCH   2  21
ATOM     21  C   UNL     1      -3.076  13.006  20.377  0.00  0.00    +0.000 A 
ATOM     22  C   UNL     1      -3.497  12.100  19.488  0.00  0.00    +0.000 A 
ATOM     23  C   UNL     1      -4.824  12.038  18.912  0.00  0.00    +0.000 A 
ATOM     24  C   UNL     1      -5.744  12.914  19.380  0.00  0.00    +0.000 A 
ATOM     25  N   UNL     1      -5.355  13.836  20.352  0.00  0.00    +0.000 N 
ATOM     26  C   UNL     1      -4.077  13.977  20.857  0.00  0.00    +0.000 A 
ATOM     27  O   UNL     1      -3.797  14.852  21.677  0.00  0.00    +0.000 OA
ATOM     28  H   UNL     1      -6.047  14.491  20.710  0.00  0.00    +0.000 HD
BRANCH  23  29
ATOM     29  C   UNL     1      -5.073  11.004  17.804  0.00  0.00    +0.000 C 
ATOM     30  C   UNL     1      -4.692  11.505  16.396  0.00  0.00    +0.000 C 
ATOM     31  C   UNL     1      -3.188  11.561  16.140  0.00  0.00    +0.000 C 
ATOM     32  C   UNL     1      -2.455  10.280  16.562  0.00  0.00    +0.000 C 
ATOM     33  C   UNL     1      -2.908   9.614  17.869  0.00  0.00    +0.000 C 
ATOM     34  C   UNL     1      -4.420   9.635  18.068  0.00  0.00    +0.000 C 
ENDBRANCH  23  29
BRANCH  24  35
ATOM     35  C   UNL     1      -7.177  12.970  18.882  0.00  0.00    +0.000 C 
ATOM     36  F   UNL     1      -7.907  13.896  19.562  0.00  0.00    +0.000 F 
ATOM     37  F   UNL     1      -7.250  13.306  17.569  0.00  0.00    +0.000 F 
ATOM     38  F   UNL     1      -7.818  11.783  19.030  0.00  0.00    +0.000 F 
ENDBRANCH  24  35
ENDBRANCH   2  21
TORSDOF 4
ENDMDL
MODEL 8
REMARK VINA RESULT:      -7.9      5.193      9.507
REMARK  Name = 
REMARK  6 active torsions:
REMARK  status: ('A' for Active; 'I' for Inactive)
REMARK    1  A    between atoms: C_1  and  C_2
REMARK    2  A    between atoms: C_11  and  C_12
REMARK    3  A    between atoms: C_16  and  N_17
REMARK    4  A    between atoms: C_18  and  C_20
REMARK    5  A    between atoms: C_22  and  C_23
REMARK    6  A    between atoms: C_29  and  C_30
REMARK                            x       y       z     vdW  Elec       q    Type
REMARK                         _______ _______ _______ _____ _____    ______ ____
ROOT
ATOM      1  N   UNL     1      -0.651  12.045  20.002  0.00  0.00    +0.000 N 
ATOM      2  C   UNL     1      -1.458  12.384  21.047  0.00  0.00    +0.000 C 
ATOM      3  O   UNL     1      -1.006  12.624  22.162  0.00  0.00    +0.000 OA
ATOM      4  H   UNL     1      -1.057  11.858  19.094  0.00  0.00    +0.000 HD
ENDROOT
BRANCH   1  20
ATOM      5  C   UNL     1       3.043  16.614  17.496  0.00  0.00    +0.000 C 
ATOM      6  C   UNL     1       2.501  15.409  18.204  0.00  0.00    +0.000 A 
ATOM      7  C   UNL     1       1.713  15.556  19.349  0.00  0.00    +0.000 A 
ATOM      8  C   UNL     1       1.203  14.437  20.005  0.00  0.00    +0.000 A 
ATOM      9  C   UNL     1       1.441  13.146  19.506  0.00  0.00    +0.000 A 
ATOM     10  C   UNL     1       2.259  12.993  18.385  0.00  0.00    +0.000 A 
ATOM     11  C   UNL     1       2.791  14.117  17.742  0.00  0.00    +0.000 A 
ATOM     12  O   UNL     1       2.594  11.772  17.856  0.00  0.00    +0.000 OA
ATOM     13  C   UNL     1       2.138  10.631  18.474  0.00  0.00    +0.000 A 
ATOM     14  C   UNL     1       2.587   9.422  17.935  0.00  0.00    +0.000 A 
ATOM     15  C   UNL     1       2.177   8.197  18.482  0.00  0.00    +0.000 A 
ATOM     16  C   UNL     1       2.650   6.897  17.909  0.00  0.00    +0.000 C 
ATOM     17  C   UNL     1       1.303   8.205  19.577  0.00  0.00    +0.000 A 
ATOM     18  C   UNL     1       0.861   9.413  20.116  0.00  0.00    +0.000 A 
ATOM     19  C   UNL     1       1.272  10.641  19.567  0.00  0.00    +0.000 A 
ATOM     20  C   UNL     1       0.797  11.944  20.147  0.00  0.00    +0.000 C 
ENDBRANCH   1  20
BRANCH   2  21
ATOM     21  C   UNL     1      -2.924  12.464  20.767  0.00  0.00    +0.000 A 
ATOM     22  C   UNL     1      -3.675  12.855  21.802  0.00  0.00    +0.000 A 
ATOM     23  C   UNL     1      -5.120  12.953  21.807  0.00  0.00    +0.000 A 
ATOM     24  C   UNL     1      -5.760  12.718  20.637  0.00  0.00    +0.000 A 
ATOM     25  N   UNL     1      -5.002  12.365  19.519  0.00  0.00    +0.000 N 
ATOM     26  C   UNL     1      -3.633  12.179  19.506  0.00  0.00    +0.000 A 
ATOM     27  O   UNL     1      -3.038  11.814  18.491  0.00  0.00    +0.000 OA
ATOM     28  H   UNL     1      -5.480  12.194  18.637  0.00  0.00    +0.000 HD
BRANCH  23  29
ATOM     29  C   UNL     1      -5.807  13.292  23.137  0.00  0.00    +0.000 C 
ATOM     30  C   UNL     1      -5.050  12.765  24.374  0.00  0.00    +0.000 C 
ATOM     31  C   UNL     1      -3.788  13.552  24.714  0.00  0.00    +0.000 C 
ATOM     32  C   UNL     1      -4.007  15.071  24.722  0.00  0.00    +0.000 C 
ATOM     33  C   UNL     1      -4.907  15.653  23.622  0.00  0.00    +0.000 C 
ATOM     34  C   UNL     1      -6.125  14.787  23.315  0.00  0.00    +0.000 C 
ENDBRANCH  23  29
BRANCH  24  35
ATOM     35  C   UNL     1      -7.268  12.786  20.478  0.00  0.00    +0.000 C 
ATOM     36  F   UNL     1      -7.661  12.364  19.245  0.00  0.00    +0.000 F 
ATOM     37  F   UNL     1      -7.914  12.006  21.381  0.00  0.00    +0.000 F 
ATOM     38  F   UNL     1      -7.741  14.050  20.627  0.00  0.00    +0.000 F 
ENDBRANCH  24  35
ENDBRANCH   2  21
TORSDOF 4
ENDMDL
MODEL 9
REMARK VINA RESULT:      -7.7      5.832      8.537
REMARK  Name = 
REMARK  6 active torsions:
REMARK  status: ('A' for Active; 'I' for Inactive)
REMARK    1  A    between atoms: C_1  and  C_2
REMARK    2  A    between atoms: C_11  and  C_12
REMARK    3  A    between atoms: C_16  and  N_17
REMARK    4  A    between atoms: C_18  and  C_20
REMARK    5  A    between atoms: C_22  and  C_23
REMARK    6  A    between atoms: C_29  and  C_30
REMARK                            x       y       z     vdW  Elec       q    Type
REMARK                         _______ _______ _______ _____ _____    ______ ____
ROOT
ATOM      1  N   UNL     1      -0.287  12.476  19.618  0.00  0.00    +0.000 N 
ATOM      2  C   UNL     1       0.932  12.289  20.199  0.00  0.00    +0.000 C 
ATOM      3  O   UNL     1       1.113  11.434  21.060  0.00  0.00    +0.000 OA
ATOM      4  H   UNL     1      -0.401  13.188  18.907  0.00  0.00    +0.000 HD
ENDROOT
BRANCH   1  20
ATOM      5  C   UNL     1      -3.910   9.962  14.997  0.00  0.00    +0.000 C 
ATOM      6  C   UNL     1      -3.295  10.368  16.302  0.00  0.00    +0.000 A 
ATOM      7  C   UNL     1      -2.019   9.916  16.654  0.00  0.00    +0.000 A 
ATOM      8  C   UNL     1      -1.443  10.298  17.864  0.00  0.00    +0.000 A 
ATOM      9  C   UNL     1      -2.117  11.171  18.733  0.00  0.00    +0.000 A 
ATOM     10  C   UNL     1      -3.406  11.593  18.403  0.00  0.00    +0.000 A 
ATOM     11  C   UNL     1      -3.994  11.189  17.199  0.00  0.00    +0.000 A 
ATOM     12  O   UNL     1      -4.166  12.401  19.212  0.00  0.00    +0.000 OA
ATOM     13  C   UNL     1      -3.657  12.792  20.428  0.00  0.00    +0.000 A 
ATOM     14  C   UNL     1      -4.515  13.541  21.239  0.00  0.00    +0.000 A 
ATOM     15  C   UNL     1      -4.096  13.999  22.496  0.00  0.00    +0.000 A 
ATOM     16  C   UNL     1      -5.009  14.805  23.369  0.00  0.00    +0.000 C 
ATOM     17  C   UNL     1      -2.799  13.697  22.927  0.00  0.00    +0.000 A 
ATOM     18  C   UNL     1      -1.946  12.945  22.119  0.00  0.00    +0.000 A 
ATOM     19  C   UNL     1      -2.365  12.486  20.858  0.00  0.00    +0.000 A 
ATOM     20  C   UNL     1      -1.448  11.675  19.987  0.00  0.00    +0.000 C 
ENDBRANCH   1  20
BRANCH   2  21
ATOM     21  C   UNL     1       2.045  13.168  19.727  0.00  0.00    +0.000 A 
ATOM     22  C   UNL     1       2.297  14.225  20.506  0.00  0.00    +0.000 A 
ATOM     23  C   UNL     1       3.278  15.256  20.238  0.00  0.00    +0.000 A 
ATOM     24  C   UNL     1       4.071  15.088  19.154  0.00  0.00    +0.000 A 
ATOM     25  N   UNL     1       3.876  13.964  18.349  0.00  0.00    +0.000 N 
ATOM     26  C   UNL     1       2.892  13.011  18.531  0.00  0.00    +0.000 A 
ATOM     27  O   UNL     1       2.747  12.072  17.746  0.00  0.00    +0.000 OA
ATOM     28  H   UNL     1       4.475  13.832  17.537  0.00  0.00    +0.000 HD
BRANCH  23  29
ATOM     29  C   UNL     1       3.324  16.462  21.187  0.00  0.00    +0.000 C 
ATOM     30  C   UNL     1       2.706  17.742  20.587  0.00  0.00    +0.000 C 
ATOM     31  C   UNL     1       1.181  17.726  20.522  0.00  0.00    +0.000 C 
ATOM     32  C   UNL     1       0.525  17.278  21.836  0.00  0.00    +0.000 C 
ATOM     33  C   UNL     1       1.195  16.122  22.592  0.00  0.00    +0.000 C 
ATOM     34  C   UNL     1       2.719  16.189  22.575  0.00  0.00    +0.000 C 
ENDBRANCH  23  29
BRANCH  24  35
ATOM     35  C   UNL     1       5.149  16.074  18.742  0.00  0.00    +0.000 C 
ATOM     36  F   UNL     1       6.008  15.529  17.837  0.00  0.00    +0.000 F 
ATOM     37  F   UNL     1       4.631  17.188  18.165  0.00  0.00    +0.000 F 
ATOM     38  F   UNL     1       5.900  16.481  19.797  0.00  0.00    +0.000 F 
ENDBRANCH  24  35
ENDBRANCH   2  21
TORSDOF 4
ENDMDL
