MODEL 1
REMARK VINA RESULT:      -8.3      0.000      0.000
REMARK  Name = 
REMARK  9 active torsions:
REMARK  status: ('A' for Active; 'I' for Inactive)
REMARK    1  A    between atoms: C_1  and  C_2
REMARK    2  A    between atoms: C_6  and  C_7
REMARK    3  A    between atoms: N_16  and  O_17
REMARK    4  A    between atoms: O_17  and  C_18
REMARK    5  A    between atoms: C_18  and  C_19
REMARK    6  A    between atoms: C_18  and  C_20
REMARK    7  A    between atoms: C_18  and  C_21
REMARK    8  A    between atoms: C_23  and  C_24
REMARK    9  A    between atoms: C_23  and  C_25
REMARK                            x       y       z     vdW  Elec       q    Type
REMARK                         _______ _______ _______ _____ _____    ______ ____
ROOT
ATOM      1  C   UNL     1       1.722   8.955  19.061  0.00  0.00    +0.000 A 
ATOM      2  C   UNL     1       2.428   9.380  17.925  0.00  0.00    +0.000 A 
ATOM      3  F   UNL     1       2.238  10.606  17.414  0.00  0.00    +0.000 F 
ATOM      4  C   UNL     1       3.361   8.576  17.269  0.00  0.00    +0.000 A 
ATOM      5  C   UNL     1       3.629   7.285  17.715  0.00  0.00    +0.000 A 
ATOM      6  C   UNL     1       2.869   6.786  18.785  0.00  0.00    +0.000 A 
ATOM      7  C   UNL     1       1.964   7.623  19.465  0.00  0.00    +0.000 A 
ATOM      8  F   UNL     1       1.310   7.148  20.535  0.00  0.00    +0.000 F 
ATOM      9  C   UNL     1       3.097   5.372  19.201  0.00  0.00    +0.000 C 
ATOM     10  N   UNL     1       2.632   4.942  20.334  0.00  0.00    +0.000 NA
ATOM     11  C   UNL     1       3.896   4.517  18.234  0.00  0.00    +0.000 C 
ATOM     12  C   UNL     1       5.083   5.325  17.706  0.00  0.00    +0.000 C 
ATOM     13  C   UNL     1       6.051   5.732  18.834  0.00  0.00    +0.000 C 
ATOM     14  C   UNL     1       5.862   4.488  16.682  0.00  0.00    +0.000 C 
ATOM     15  N   UNL     1       4.568   6.514  17.014  0.00  0.00    +0.000 N 
ATOM     16  H   UNL     1       5.277   7.061  16.533  0.00  0.00    +0.000 HD
ENDROOT
BRANCH   1  22
ATOM     17  C   UNL     1      -3.650  12.226  19.244  0.00  0.00    +0.000 C 
ATOM     18  C   UNL     1      -2.411  11.466  18.936  0.00  0.00    +0.000 A 
ATOM     19  C   UNL     1      -2.081  10.896  17.727  0.00  0.00    +0.000 A 
ATOM     20  N   UNL     1      -0.873  10.275  17.868  0.00  0.00    +0.000 N 
ATOM     21  C   UNL     1      -0.406  10.372  19.164  0.00  0.00    +0.000 A 
ATOM     22  C   UNL     1       0.756   9.829  19.776  0.00  0.00    +0.000 A 
ATOM     23  C   UNL     1       0.925  10.182  21.135  0.00  0.00    +0.000 A 
ATOM     24  C   UNL     1       0.028  10.997  21.825  0.00  0.00    +0.000 A 
ATOM     25  C   UNL     1      -1.113  11.482  21.193  0.00  0.00    +0.000 A 
ATOM     26  C   UNL     1      -1.342  11.162  19.842  0.00  0.00    +0.000 A 
ATOM     27  H   UNL     1      -0.415   9.745  17.141  0.00  0.00    +0.000 HD
ENDBRANCH   1  22
BRANCH  10  28
ATOM     28  O   UNL     1       2.966   3.604  20.587  0.00  0.00    +0.000 OA
BRANCH  28  29
ATOM     29  C   UNL     1       1.781   2.786  20.587  0.00  0.00    +0.000 C 
ATOM     30  C   UNL     1       1.568   2.166  21.973  0.00  0.00    +0.000 C 
ATOM     31  C   UNL     1       0.609   3.724  20.269  0.00  0.00    +0.000 C 
ATOM     32  C   UNL     1       1.865   1.711  19.496  0.00  0.00    +0.000 C 
ENDBRANCH  28  29
ENDBRANCH  10  28
TORSDOF 3
ENDMDL
MODEL 2
REMARK VINA RESULT:      -8.0      2.605      8.103
REMARK  Name = 
REMARK  9 active torsions:
REMARK  status: ('A' for Active; 'I' for Inactive)
REMARK    1  A    between atoms: C_1  and  C_2
REMARK    2  A    between atoms: C_6  and  C_7
REMARK    3  A    between atoms: N_16  and  O_17
REMARK    4  A    between atoms: O_17  and  C_18
REMARK    5  A    between atoms: C_18  and  C_19
REMARK    6  A    between atoms: C_18  and  C_20
REMARK    7  A    between atoms: C_18  and  C_21
REMARK    8  A    between atoms: C_23  and  C_24
REMARK    9  A    between atoms: C_23  and  C_25
REMARK                            x       y       z     vdW  Elec       q    Type
REMARK                         _______ _______ _______ _____ _____    ______ ____
ROOT
ATOM      1  C   UNL     1       1.336   8.801  19.960  0.00  0.00    +0.000 A 
ATOM      2  C   UNL     1       1.434   9.108  21.325  0.00  0.00    +0.000 A 
ATOM      3  F   UNL     1       2.304   8.463  22.117  0.00  0.00    +0.000 F 
ATOM      4  C   UNL     1       0.654  10.090  21.939  0.00  0.00    +0.000 A 
ATOM      5  C   UNL     1      -0.283  10.815  21.208  0.00  0.00    +0.000 A 
ATOM      6  C   UNL     1      -0.483  10.467  19.862  0.00  0.00    +0.000 A 
ATOM      7  C   UNL     1       0.341   9.505  19.247  0.00  0.00    +0.000 A 
ATOM      8  F   UNL     1       0.184   9.250  17.940  0.00  0.00    +0.000 F 
ATOM      9  C   UNL     1      -1.552  11.186  19.109  0.00  0.00    +0.000 C 
ATOM     10  N   UNL     1      -1.604  11.104  17.814  0.00  0.00    +0.000 NA
ATOM     11  C   UNL     1      -2.524  11.996  19.947  0.00  0.00    +0.000 C 
ATOM     12  C   UNL     1      -1.750  12.758  21.025  0.00  0.00    +0.000 C 
ATOM     13  C   UNL     1      -0.751  13.762  20.416  0.00  0.00    +0.000 C 
ATOM     14  C   UNL     1      -2.731  13.533  21.915  0.00  0.00    +0.000 C 
ATOM     15  N   UNL     1      -1.049  11.783  21.873  0.00  0.00    +0.000 N 
ATOM     16  H   UNL     1      -0.592  12.187  22.687  0.00  0.00    +0.000 HD
ENDROOT
BRANCH   1  22
ATOM     17  C   UNL     1       3.548   2.926  19.538  0.00  0.00    +0.000 C 
ATOM     18  C   UNL     1       2.959   4.244  19.887  0.00  0.00    +0.000 A 
ATOM     19  C   UNL     1       2.140   4.515  20.959  0.00  0.00    +0.000 A 
ATOM     20  N   UNL     1       1.801   5.838  20.909  0.00  0.00    +0.000 N 
ATOM     21  C   UNL     1       2.335   6.452  19.793  0.00  0.00    +0.000 A 
ATOM     22  C   UNL     1       2.194   7.779  19.306  0.00  0.00    +0.000 A 
ATOM     23  C   UNL     1       2.937   8.059  18.135  0.00  0.00    +0.000 A 
ATOM     24  C   UNL     1       3.745   7.112  17.505  0.00  0.00    +0.000 A 
ATOM     25  C   UNL     1       3.829   5.814  18.001  0.00  0.00    +0.000 A 
ATOM     26  C   UNL     1       3.110   5.471  19.160  0.00  0.00    +0.000 A 
ATOM     27  H   UNL     1       1.177   6.293  21.559  0.00  0.00    +0.000 HD
ENDBRANCH   1  22
BRANCH  10  28
ATOM     28  O   UNL     1      -2.643  11.867  17.263  0.00  0.00    +0.000 OA
BRANCH  28  29
ATOM     29  C   UNL     1      -3.607  11.008  16.624  0.00  0.00    +0.000 C 
ATOM     30  C   UNL     1      -3.675   9.659  17.350  0.00  0.00    +0.000 C 
ATOM     31  C   UNL     1      -4.963  11.715  16.745  0.00  0.00    +0.000 C 
ATOM     32  C   UNL     1      -3.271  10.830  15.138  0.00  0.00    +0.000 C 
ENDBRANCH  28  29
ENDBRANCH  10  28
TORSDOF 3
ENDMDL
MODEL 3
REMARK VINA RESULT:      -7.7      1.880      2.315
REMARK  Name = 
REMARK  9 active torsions:
REMARK  status: ('A' for Active; 'I' for Inactive)
REMARK    1  A    between atoms: C_1  and  C_2
REMARK    2  A    between atoms: C_6  and  C_7
REMARK    3  A    between atoms: N_16  and  O_17
REMARK    4  A    between atoms: O_17  and  C_18
REMARK    5  A    between atoms: C_18  and  C_19
REMARK    6  A    between atoms: C_18  and  C_20
REMARK    7  A    between atoms: C_18  and  C_21
REMARK    8  A    between atoms: C_23  and  C_24
REMARK    9  A    between atoms: C_23  and  C_25
REMARK                            x       y       z     vdW  Elec       q    Type
REMARK                         _______ _______ _______ _____ _____    ______ ____
ROOT
ATOM      1  C   UNL     1       1.444   8.804  19.719  0.00  0.00    +0.000 A 
ATOM      2  C   UNL     1       1.594   9.495  18.508  0.00  0.00    +0.000 A 
ATOM      3  F   UNL     1       0.983  10.672  18.304  0.00  0.00    +0.000 F 
ATOM      4  C   UNL     1       2.379   9.018  17.456  0.00  0.00    +0.000 A 
ATOM      5  C   UNL     1       3.052   7.804  17.562  0.00  0.00    +0.000 A 
ATOM      6  C   UNL     1       2.844   7.034  18.718  0.00  0.00    +0.000 A 
ATOM      7  C   UNL     1       2.086   7.548  19.787  0.00  0.00    +0.000 A 
ATOM      8  F   UNL     1       1.971   6.827  20.913  0.00  0.00    +0.000 F 
ATOM      9  C   UNL     1       3.495   5.693  18.787  0.00  0.00    +0.000 C 
ATOM     10  N   UNL     1       3.564   5.060  19.918  0.00  0.00    +0.000 NA
ATOM     11  C   UNL     1       4.058   5.161  17.482  0.00  0.00    +0.000 C 
ATOM     12  C   UNL     1       4.783   6.290  16.745  0.00  0.00    +0.000 C 
ATOM     13  C   UNL     1       5.980   6.828  17.552  0.00  0.00    +0.000 C 
ATOM     14  C   UNL     1       5.303   5.775  15.396  0.00  0.00    +0.000 C 
ATOM     15  N   UNL     1       3.818   7.365  16.474  0.00  0.00    +0.000 N 
ATOM     16  H   UNL     1       4.180   8.115  15.890  0.00  0.00    +0.000 HD
ENDROOT
BRANCH   1  22
ATOM     17  C   UNL     1      -0.975  13.614  22.974  0.00  0.00    +0.000 C 
ATOM     18  C   UNL     1      -0.235  12.661  22.108  0.00  0.00    +0.000 A 
ATOM     19  C   UNL     1       0.615  12.985  21.075  0.00  0.00    +0.000 A 
ATOM     20  N   UNL     1       1.072  11.823  20.522  0.00  0.00    +0.000 N 
ATOM     21  C   UNL     1       0.506  10.720  21.131  0.00  0.00    +0.000 A 
ATOM     22  C   UNL     1       0.635   9.334  20.847  0.00  0.00    +0.000 A 
ATOM     23  C   UNL     1      -0.076   8.484  21.727  0.00  0.00    +0.000 A 
ATOM     24  C   UNL     1      -0.843   8.962  22.789  0.00  0.00    +0.000 A 
ATOM     25  C   UNL     1      -0.965  10.331  23.011  0.00  0.00    +0.000 A 
ATOM     26  C   UNL     1      -0.287  11.229  22.167  0.00  0.00    +0.000 A 
ATOM     27  H   UNL     1       1.685  11.773  19.721  0.00  0.00    +0.000 HD
ENDBRANCH   1  22
BRANCH  10  28
ATOM     28  O   UNL     1       4.238   3.835  19.814  0.00  0.00    +0.000 OA
BRANCH  28  29
ATOM     29  C   UNL     1       3.403   2.764  20.296  0.00  0.00    +0.000 C 
ATOM     30  C   UNL     1       2.643   2.122  19.130  0.00  0.00    +0.000 C 
ATOM     31  C   UNL     1       4.347   1.726  20.917  0.00  0.00    +0.000 C 
ATOM     32  C   UNL     1       2.444   3.273  21.381  0.00  0.00    +0.000 C 
ENDBRANCH  28  29
ENDBRANCH  10  28
TORSDOF 3
ENDMDL
MODEL 4
REMARK VINA RESULT:      -7.7      2.708      7.947
REMARK  Name = 
REMARK  9 active torsions:
REMARK  status: ('A' for Active; 'I' for Inactive)
REMARK    1  A    between atoms: C_1  and  C_2
REMARK    2  A    between atoms: C_6  and  C_7
REMARK    3  A    between atoms: N_16  and  O_17
REMARK    4  A    between atoms: O_17  and  C_18
REMARK    5  A    between atoms: C_18  and  C_19
REMARK    6  A    between atoms: C_18  and  C_20
REMARK    7  A    between atoms: C_18  and  C_21
REMARK    8  A    between atoms: C_23  and  C_24
REMARK    9  A    between atoms: C_23  and  C_25
REMARK                            x       y       z     vdW  Elec       q    Type
REMARK                         _______ _______ _______ _____ _____    ______ ____
ROOT
ATOM      1  C   UNL     1       1.043   8.843  20.514  0.00  0.00    +0.000 A 
ATOM      2  C   UNL     1       1.263   9.489  21.740  0.00  0.00    +0.000 A 
ATOM      3  F   UNL     1       2.023   8.926  22.691  0.00  0.00    +0.000 F 
ATOM      4  C   UNL     1       0.723  10.740  22.044  0.00  0.00    +0.000 A 
ATOM      5  C   UNL     1      -0.084  11.410  21.129  0.00  0.00    +0.000 A 
ATOM      6  C   UNL     1      -0.412  10.751  19.933  0.00  0.00    +0.000 A 
ATOM      7  C   UNL     1       0.175   9.510  19.622  0.00  0.00    +0.000 A 
ATOM      8  F   UNL     1      -0.089   8.940  18.437  0.00  0.00    +0.000 F 
ATOM      9  C   UNL     1      -1.351  11.434  18.996  0.00  0.00    +0.000 C 
ATOM     10  N   UNL     1      -1.478  11.010  17.776  0.00  0.00    +0.000 NA
ATOM     11  C   UNL     1      -2.103  12.625  19.562  0.00  0.00    +0.000 C 
ATOM     12  C   UNL     1      -1.144  13.482  20.392  0.00  0.00    +0.000 C 
ATOM     13  C   UNL     1       0.005  14.053  19.538  0.00  0.00    +0.000 C 
ATOM     14  C   UNL     1      -1.909  14.655  21.017  0.00  0.00    +0.000 C 
ATOM     15  N   UNL     1      -0.611  12.659  21.487  0.00  0.00    +0.000 N 
ATOM     16  H   UNL     1      -0.047  13.170  22.160  0.00  0.00    +0.000 HD
ENDROOT
BRANCH   1  22
ATOM     17  C   UNL     1       4.849   5.262  17.010  0.00  0.00    +0.000 C 
ATOM     18  C   UNL     1       3.963   6.279  17.633  0.00  0.00    +0.000 A 
ATOM     19  C   UNL     1       3.817   7.589  17.237  0.00  0.00    +0.000 A 
ATOM     20  N   UNL     1       2.926   8.189  18.080  0.00  0.00    +0.000 N 
ATOM     21  C   UNL     1       2.508   7.322  19.070  0.00  0.00    +0.000 A 
ATOM     22  C   UNL     1       1.650   7.528  20.184  0.00  0.00    +0.000 A 
ATOM     23  C   UNL     1       1.417   6.374  20.969  0.00  0.00    +0.000 A 
ATOM     24  C   UNL     1       1.981   5.132  20.678  0.00  0.00    +0.000 A 
ATOM     25  C   UNL     1       2.840   4.984  19.593  0.00  0.00    +0.000 A 
ATOM     26  C   UNL     1       3.116   6.095  18.776  0.00  0.00    +0.000 A 
ATOM     27  H   UNL     1       2.665   9.163  18.036  0.00  0.00    +0.000 HD
ENDBRANCH   1  22
BRANCH  10  28
ATOM     28  O   UNL     1      -2.369  11.785  17.021  0.00  0.00    +0.000 OA
BRANCH  28  29
ATOM     29  C   UNL     1      -3.446  10.966  16.527  0.00  0.00    +0.000 C 
ATOM     30  C   UNL     1      -3.266  10.706  15.027  0.00  0.00    +0.000 C 
ATOM     31  C   UNL     1      -3.358   9.634  17.283  0.00  0.00    +0.000 C 
ATOM     32  C   UNL     1      -4.803  11.617  16.826  0.00  0.00    +0.000 C 
ENDBRANCH  28  29
ENDBRANCH  10  28
TORSDOF 3
ENDMDL
MODEL 5
REMARK VINA RESULT:      -7.6      2.389      4.530
REMARK  Name = 
REMARK  9 active torsions:
REMARK  status: ('A' for Active; 'I' for Inactive)
REMARK    1  A    between atoms: C_1  and  C_2
REMARK    2  A    between atoms: C_6  and  C_7
REMARK    3  A    between atoms: N_16  and  O_17
REMARK    4  A    between atoms: O_17  and  C_18
REMARK    5  A    between atoms: C_18  and  C_19
REMARK    6  A    between atoms: C_18  and  C_20
REMARK    7  A    between atoms: C_18  and  C_21
REMARK    8  A    between atoms: C_23  and  C_24
REMARK    9  A    between atoms: C_23  and  C_25
REMARK                            x       y       z     vdW  Elec       q    Type
REMARK                         _______ _______ _______ _____ _____    ______ ____
ROOT
ATOM      1  C   UNL     1       0.856   9.314  19.759  0.00  0.00    +0.000 A 
ATOM      2  C   UNL     1       0.443   8.846  21.016  0.00  0.00    +0.000 A 
ATOM      3  F   UNL     1      -0.334   9.598  21.810  0.00  0.00    +0.000 F 
ATOM      4  C   UNL     1       0.798   7.591  21.512  0.00  0.00    +0.000 A 
ATOM      5  C   UNL     1       1.606   6.734  20.769  0.00  0.00    +0.000 A 
ATOM      6  C   UNL     1       2.125   7.205  19.553  0.00  0.00    +0.000 A 
ATOM      7  C   UNL     1       1.722   8.456  19.045  0.00  0.00    +0.000 A 
ATOM      8  F   UNL     1       2.167   8.847  17.843  0.00  0.00    +0.000 F 
ATOM      9  C   UNL     1       3.062   6.318  18.806  0.00  0.00    +0.000 C 
ATOM     10  N   UNL     1       3.358   6.576  17.568  0.00  0.00    +0.000 NA
ATOM     11  C   UNL     1       3.609   5.130  19.577  0.00  0.00    +0.000 C 
ATOM     12  C   UNL     1       2.478   4.487  20.383  0.00  0.00    +0.000 C 
ATOM     13  C   UNL     1       1.359   3.943  19.474  0.00  0.00    +0.000 C 
ATOM     14  C   UNL     1       3.034   3.322  21.213  0.00  0.00    +0.000 C 
ATOM     15  N   UNL     1       1.943   5.488  21.317  0.00  0.00    +0.000 N 
ATOM     16  H   UNL     1       1.258   5.124  21.975  0.00  0.00    +0.000 HD
ENDROOT
BRANCH   1  22
ATOM     17  C   UNL     1       1.636  15.537  19.268  0.00  0.00    +0.000 C 
ATOM     18  C   UNL     1       1.604  14.090  19.602  0.00  0.00    +0.000 A 
ATOM     19  C   UNL     1       2.440  13.435  20.477  0.00  0.00    +0.000 A 
ATOM     20  N   UNL     1       2.094  12.114  20.484  0.00  0.00    +0.000 N 
ATOM     21  C   UNL     1       1.072  11.857  19.591  0.00  0.00    +0.000 A 
ATOM     22  C   UNL     1       0.445  10.637  19.223  0.00  0.00    +0.000 A 
ATOM     23  C   UNL     1      -0.611  10.775  18.291  0.00  0.00    +0.000 A 
ATOM     24  C   UNL     1      -1.009  12.007  17.772  0.00  0.00    +0.000 A 
ATOM     25  C   UNL     1      -0.345  13.174  18.140  0.00  0.00    +0.000 A 
ATOM     26  C   UNL     1       0.717  13.103  19.060  0.00  0.00    +0.000 A 
ATOM     27  H   UNL     1       2.572  11.400  21.014  0.00  0.00    +0.000 HD
ENDBRANCH   1  22
BRANCH  10  28
ATOM     28  O   UNL     1       4.221   5.625  17.005  0.00  0.00    +0.000 OA
BRANCH  28  29
ATOM     29  C   UNL     1       5.320   6.280  16.343  0.00  0.00    +0.000 C 
ATOM     30  C   UNL     1       6.113   7.124  17.347  0.00  0.00    +0.000 C 
ATOM     31  C   UNL     1       6.222   5.164  15.798  0.00  0.00    +0.000 C 
ATOM     32  C   UNL     1       4.816   7.128  15.169  0.00  0.00    +0.000 C 
ENDBRANCH  28  29
ENDBRANCH  10  28
TORSDOF 3
ENDMDL
MODEL 6
REMARK VINA RESULT:      -7.5      5.053      9.138
REMARK  Name = 
REMARK  9 active torsions:
REMARK  status: ('A' for Active; 'I' for Inactive)
REMARK    1  A    between atoms: C_1  and  C_2
REMARK    2  A    between atoms: C_6  and  C_7
REMARK    3  A    between atoms: N_16  and  O_17
REMARK    4  A    between atoms: O_17  and  C_18
REMARK    5  A    between atoms: C_18  and  C_19
REMARK    6  A    between atoms: C_18  and  C_20
REMARK    7  A    between atoms: C_18  and  C_21
REMARK    8  A    between atoms: C_23  and  C_24
REMARK    9  A    between atoms: C_23  and  C_25
REMARK                            x       y       z     vdW  Elec       q    Type
REMARK                         _______ _______ _______ _____ _____    ______ ____
ROOT
ATOM      1  C   UNL     1       0.343  12.109  19.849  0.00  0.00    +0.000 A 
ATOM      2  C   UNL     1      -0.982  12.529  19.662  0.00  0.00    +0.000 A 
ATOM      3  F   UNL     1      -2.005  11.675  19.817  0.00  0.00    +0.000 F 
ATOM      4  C   UNL     1      -1.321  13.839  19.317  0.00  0.00    +0.000 A 
ATOM      5  C   UNL     1      -0.334  14.803  19.128  0.00  0.00    +0.000 A 
ATOM      6  C   UNL     1       1.008  14.398  19.204  0.00  0.00    +0.000 A 
ATOM      7  C   UNL     1       1.332  13.085  19.596  0.00  0.00    +0.000 A 
ATOM      8  F   UNL     1       2.622  12.746  19.741  0.00  0.00    +0.000 F 
ATOM      9  C   UNL     1       2.059  15.415  18.911  0.00  0.00    +0.000 C 
ATOM     10  N   UNL     1       3.298  15.180  19.223  0.00  0.00    +0.000 NA
ATOM     11  C   UNL     1       1.579  16.697  18.256  0.00  0.00    +0.000 C 
ATOM     12  C   UNL     1       0.285  17.156  18.933  0.00  0.00    +0.000 C 
ATOM     13  C   UNL     1       0.498  17.477  20.425  0.00  0.00    +0.000 C 
ATOM     14  C   UNL     1      -0.240  18.419  18.237  0.00  0.00    +0.000 C 
ATOM     15  N   UNL     1      -0.726  16.102  18.772  0.00  0.00    +0.000 N 
ATOM     16  H   UNL     1      -1.655  16.359  19.094  0.00  0.00    +0.000 HD
ENDROOT
BRANCH   1  22
ATOM     17  C   UNL     1       2.821   6.469  18.572  0.00  0.00    +0.000 C 
ATOM     18  C   UNL     1       2.226   7.829  18.608  0.00  0.00    +0.000 A 
ATOM     19  C   UNL     1       2.165   8.723  17.563  0.00  0.00    +0.000 A 
ATOM     20  N   UNL     1       1.560   9.861  18.015  0.00  0.00    +0.000 N 
ATOM     21  C   UNL     1       1.258   9.771  19.359  0.00  0.00    +0.000 A 
ATOM     22  C   UNL     1       0.693  10.722  20.250  0.00  0.00    +0.000 A 
ATOM     23  C   UNL     1       0.491  10.247  21.568  0.00  0.00    +0.000 A 
ATOM     24  C   UNL     1       0.817   8.951  21.965  0.00  0.00    +0.000 A 
ATOM     25  C   UNL     1       1.396   8.062  21.065  0.00  0.00    +0.000 A 
ATOM     26  C   UNL     1       1.629   8.475  19.740  0.00  0.00    +0.000 A 
ATOM     27  H   UNL     1       1.421  10.693  17.460  0.00  0.00    +0.000 HD
ENDBRANCH   1  22
BRANCH  10  28
ATOM     28  O   UNL     1       4.148  16.251  18.914  0.00  0.00    +0.000 OA
BRANCH  28  29
ATOM     29  C   UNL     1       5.524  15.827  18.969  0.00  0.00    +0.000 C 
ATOM     30  C   UNL     1       6.455  17.039  18.858  0.00  0.00    +0.000 C 
ATOM     31  C   UNL     1       5.717  15.167  20.341  0.00  0.00    +0.000 C 
ATOM     32  C   UNL     1       5.815  14.791  17.875  0.00  0.00    +0.000 C 
ENDBRANCH  28  29
ENDBRANCH  10  28
TORSDOF 3
ENDMDL
MODEL 7
REMARK VINA RESULT:      -7.1      3.303      8.803
REMARK  Name = 
REMARK  9 active torsions:
REMARK  status: ('A' for Active; 'I' for Inactive)
REMARK    1  A    between atoms: C_1  and  C_2
REMARK    2  A    between atoms: C_6  and  C_7
REMARK    3  A    between atoms: N_16  and  O_17
REMARK    4  A    between atoms: O_17  and  C_18
REMARK    5  A    between atoms: C_18  and  C_19
REMARK    6  A    between atoms: C_18  and  C_20
REMARK    7  A    between atoms: C_18  and  C_21
REMARK    8  A    between atoms: C_23  and  C_24
REMARK    9  A    between atoms: C_23  and  C_25
REMARK                            x       y       z     vdW  Elec       q    Type
REMARK                         _______ _______ _______ _____ _____    ______ ____
ROOT
ATOM      1  C   UNL     1       0.115  10.266  20.471  0.00  0.00    +0.000 A 
ATOM      2  C   UNL     1       0.387  10.466  21.833  0.00  0.00    +0.000 A 
ATOM      3  F   UNL     1       1.483   9.942  22.402  0.00  0.00    +0.000 F 
ATOM      4  C   UNL     1      -0.443  11.215  22.669  0.00  0.00    +0.000 A 
ATOM      5  C   UNL     1      -1.608  11.799  22.179  0.00  0.00    +0.000 A 
ATOM      6  C   UNL     1      -1.968  11.536  20.848  0.00  0.00    +0.000 A 
ATOM      7  C   UNL     1      -1.100  10.816  20.005  0.00  0.00    +0.000 A 
ATOM      8  F   UNL     1      -1.428  10.649  18.716  0.00  0.00    +0.000 F 
ATOM      9  C   UNL     1      -3.263  12.089  20.355  0.00  0.00    +0.000 C 
ATOM     10  N   UNL     1      -3.520  12.112  19.083  0.00  0.00    +0.000 NA
ATOM     11  C   UNL     1      -4.210  12.613  21.420  0.00  0.00    +0.000 C 
ATOM     12  C   UNL     1      -3.415  13.417  22.452  0.00  0.00    +0.000 C 
ATOM     13  C   UNL     1      -2.737  14.650  21.823  0.00  0.00    +0.000 C 
ATOM     14  C   UNL     1      -4.355  13.899  23.565  0.00  0.00    +0.000 C 
ATOM     15  N   UNL     1      -2.413  12.533  23.062  0.00  0.00    +0.000 N 
ATOM     16  H   UNL     1      -1.906  12.947  23.840  0.00  0.00    +0.000 HD
ENDROOT
BRANCH   1  22
ATOM     17  C   UNL     1       3.242   5.005  19.014  0.00  0.00    +0.000 C 
ATOM     18  C   UNL     1       2.492   6.143  19.604  0.00  0.00    +0.000 A 
ATOM     19  C   UNL     1       1.828   6.148  20.809  0.00  0.00    +0.000 A 
ATOM     20  N   UNL     1       1.255   7.377  20.971  0.00  0.00    +0.000 N 
ATOM     21  C   UNL     1       1.477   8.185  19.874  0.00  0.00    +0.000 A 
ATOM     22  C   UNL     1       1.021   9.497  19.579  0.00  0.00    +0.000 A 
ATOM     23  C   UNL     1       1.497  10.025  18.355  0.00  0.00    +0.000 A 
ATOM     24  C   UNL     1       2.344   9.318  17.502  0.00  0.00    +0.000 A 
ATOM     25  C   UNL     1       2.740   8.022  17.818  0.00  0.00    +0.000 A 
ATOM     26  C   UNL     1       2.298   7.438  19.019  0.00  0.00    +0.000 A 
ATOM     27  H   UNL     1       0.676   7.638  21.757  0.00  0.00    +0.000 HD
ENDBRANCH   1  22
BRANCH  10  28
ATOM     28  O   UNL     1      -4.761  12.696  18.789  0.00  0.00    +0.000 OA
BRANCH  28  29
ATOM     29  C   UNL     1      -5.455  11.918  17.796  0.00  0.00    +0.000 C 
ATOM     30  C   UNL     1      -6.345  10.870  18.474  0.00  0.00    +0.000 C 
ATOM     31  C   UNL     1      -6.339  12.902  17.017  0.00  0.00    +0.000 C 
ATOM     32  C   UNL     1      -4.461  11.269  16.825  0.00  0.00    +0.000 C 
ENDBRANCH  28  29
ENDBRANCH  10  28
TORSDOF 3
ENDMDL
MODEL 8
REMARK VINA RESULT:      -7.0      4.863      9.049
REMARK  Name = 
REMARK  9 active torsions:
REMARK  status: ('A' for Active; 'I' for Inactive)
REMARK    1  A    between atoms: C_1  and  C_2
REMARK    2  A    between atoms: C_6  and  C_7
REMARK    3  A    between atoms: N_16  and  O_17
REMARK    4  A    between atoms: O_17  and  C_18
REMARK    5  A    between atoms: C_18  and  C_19
REMARK    6  A    between atoms: C_18  and  C_20
REMARK    7  A    between atoms: C_18  and  C_21
REMARK    8  A    between atoms: C_23  and  C_24
REMARK    9  A    between atoms: C_23  and  C_25
REMARK                            x       y       z     vdW  Elec       q    Type
REMARK                         _______ _______ _______ _____ _____    ______ ____
ROOT
ATOM      1  C   UNL     1       0.375  11.659  19.687  0.00  0.00    +0.000 A 
ATOM      2  C   UNL     1      -0.901  12.025  19.232  0.00  0.00    +0.000 A 
ATOM      3  F   UNL     1      -1.886  11.118  19.138  0.00  0.00    +0.000 F 
ATOM      4  C   UNL     1      -1.228  13.330  18.861  0.00  0.00    +0.000 A 
ATOM      5  C   UNL     1      -0.277  14.346  18.916  0.00  0.00    +0.000 A 
ATOM      6  C   UNL     1       1.038  14.000  19.268  0.00  0.00    +0.000 A 
ATOM      7  C   UNL     1       1.341  12.689  19.682  0.00  0.00    +0.000 A 
ATOM      8  F   UNL     1       2.586  12.405  20.091  0.00  0.00    +0.000 F 
ATOM      9  C   UNL     1       2.071  15.075  19.237  0.00  0.00    +0.000 C 
ATOM     10  N   UNL     1       3.225  14.886  19.801  0.00  0.00    +0.000 NA
ATOM     11  C   UNL     1       1.674  16.359  18.532  0.00  0.00    +0.000 C 
ATOM     12  C   UNL     1       0.242  16.731  18.927  0.00  0.00    +0.000 C 
ATOM     13  C   UNL     1       0.114  17.002  20.439  0.00  0.00    +0.000 C 
ATOM     14  C   UNL     1      -0.190  17.995  18.172  0.00  0.00    +0.000 C 
ATOM     15  N   UNL     1      -0.653  15.638  18.522  0.00  0.00    +0.000 N 
ATOM     16  H   UNL     1      -1.642  15.838  18.644  0.00  0.00    +0.000 HD
ENDROOT
BRANCH   1  22
ATOM     17  C   UNL     1       3.105   6.085  18.659  0.00  0.00    +0.000 C 
ATOM     18  C   UNL     1       2.480   7.433  18.637  0.00  0.00    +0.000 A 
ATOM     19  C   UNL     1       2.523   8.337  17.601  0.00  0.00    +0.000 A 
ATOM     20  N   UNL     1       1.845   9.457  17.988  0.00  0.00    +0.000 N 
ATOM     21  C   UNL     1       1.390   9.346  19.287  0.00  0.00    +0.000 A 
ATOM     22  C   UNL     1       0.705  10.275  20.115  0.00  0.00    +0.000 A 
ATOM     23  C   UNL     1       0.361   9.781  21.395  0.00  0.00    +0.000 A 
ATOM     24  C   UNL     1       0.666   8.487  21.817  0.00  0.00    +0.000 A 
ATOM     25  C   UNL     1       1.365   7.620  20.982  0.00  0.00    +0.000 A 
ATOM     26  C   UNL     1       1.741   8.053  19.698  0.00  0.00    +0.000 A 
ATOM     27  H   UNL     1       1.754  10.292  17.428  0.00  0.00    +0.000 HD
ENDBRANCH   1  22
BRANCH  10  28
ATOM     28  O   UNL     1       4.063  16.007  19.713  0.00  0.00    +0.000 OA
BRANCH  28  29
ATOM     29  C   UNL     1       4.599  16.332  21.010  0.00  0.00    +0.000 C 
ATOM     30  C   UNL     1       6.121  16.488  20.929  0.00  0.00    +0.000 C 
ATOM     31  C   UNL     1       3.975  17.676  21.410  0.00  0.00    +0.000 C 
ATOM     32  C   UNL     1       4.196  15.271  22.043  0.00  0.00    +0.000 C 
ENDBRANCH  28  29
ENDBRANCH  10  28
TORSDOF 3
ENDMDL
MODEL 9
REMARK VINA RESULT:      -7.0      5.448      9.688
REMARK  Name = 
REMARK  9 active torsions:
REMARK  status: ('A' for Active; 'I' for Inactive)
REMARK    1  A    between atoms: C_1  and  C_2
REMARK    2  A    between atoms: C_6  and  C_7
REMARK    3  A    between atoms: N_16  and  O_17
REMARK    4  A    between atoms: O_17  and  C_18
REMARK    5  A    between atoms: C_18  and  C_19
REMARK    6  A    between atoms: C_18  and  C_20
REMARK    7  A    between atoms: C_18  and  C_21
REMARK    8  A    between atoms: C_23  and  C_24
REMARK    9  A    between atoms: C_23  and  C_25
REMARK                            x       y       z     vdW  Elec       q    Type
REMARK                         _______ _______ _______ _____ _____    ______ ____
ROOT
ATOM      1  C   UNL     1      -0.579  12.616  20.890  0.00  0.00    +0.000 A 
ATOM      2  C   UNL     1       0.433  13.554  21.139  0.00  0.00    +0.000 A 
ATOM      3  F   UNL     1       1.586  13.525  20.453  0.00  0.00    +0.000 F 
ATOM      4  C   UNL     1       0.310  14.566  22.093  0.00  0.00    +0.000 A 
ATOM      5  C   UNL     1      -0.844  14.683  22.864  0.00  0.00    +0.000 A 
ATOM      6  C   UNL     1      -1.837  13.701  22.717  0.00  0.00    +0.000 A 
ATOM      7  C   UNL     1      -1.718  12.713  21.720  0.00  0.00    +0.000 A 
ATOM      8  F   UNL     1      -2.718  11.837  21.545  0.00  0.00    +0.000 F 
ATOM      9  C   UNL     1      -3.030  13.779  23.609  0.00  0.00    +0.000 C 
ATOM     10  N   UNL     1      -4.089  13.076  23.344  0.00  0.00    +0.000 NA
ATOM     11  C   UNL     1      -2.912  14.719  24.794  0.00  0.00    +0.000 C 
ATOM     12  C   UNL     1      -2.249  16.023  24.342  0.00  0.00    +0.000 C 
ATOM     13  C   UNL     1      -3.090  16.758  23.280  0.00  0.00    +0.000 C 
ATOM     14  C   UNL     1      -2.070  16.956  25.548  0.00  0.00    +0.000 C 
ATOM     15  N   UNL     1      -0.913  15.709  23.816  0.00  0.00    +0.000 N 
ATOM     16  H   UNL     1      -0.349  16.525  23.590  0.00  0.00    +0.000 HD
ENDROOT
BRANCH   1  22
ATOM     17  C   UNL     1      -2.667   9.736  15.700  0.00  0.00    +0.000 C 
ATOM     18  C   UNL     1      -2.423  10.512  16.943  0.00  0.00    +0.000 A 
ATOM     19  C   UNL     1      -3.224  11.506  17.457  0.00  0.00    +0.000 A 
ATOM     20  N   UNL     1      -2.636  11.976  18.597  0.00  0.00    +0.000 N 
ATOM     21  C   UNL     1      -1.427  11.352  18.833  0.00  0.00    +0.000 A 
ATOM     22  C   UNL     1      -0.456  11.564  19.848  0.00  0.00    +0.000 A 
ATOM     23  C   UNL     1       0.656  10.690  19.790  0.00  0.00    +0.000 A 
ATOM     24  C   UNL     1       0.793   9.699  18.818  0.00  0.00    +0.000 A 
ATOM     25  C   UNL     1      -0.170   9.548  17.825  0.00  0.00    +0.000 A 
ATOM     26  C   UNL     1      -1.298  10.390  17.824  0.00  0.00    +0.000 A 
ATOM     27  H   UNL     1      -2.998  12.736  19.154  0.00  0.00    +0.000 HD
ENDBRANCH   1  22
BRANCH  10  28
ATOM     28  O   UNL     1      -5.129  13.294  24.259  0.00  0.00    +0.000 OA
BRANCH  28  29
ATOM     29  C   UNL     1      -6.306  13.763  23.573  0.00  0.00    +0.000 C 
ATOM     30  C   UNL     1      -6.222  13.413  22.083  0.00  0.00    +0.000 C 
ATOM     31  C   UNL     1      -7.494  13.021  24.200  0.00  0.00    +0.000 C 
ATOM     32  C   UNL     1      -6.493  15.270  23.788  0.00  0.00    +0.000 C 
ENDBRANCH  28  29
ENDBRANCH  10  28
TORSDOF 3
ENDMDL
