MODEL 1
REMARK VINA RESULT:      -7.0      0.000      0.000
REMARK  Name = 
REMARK  3 active torsions:
REMARK  status: ('A' for Active; 'I' for Inactive)
REMARK    1  A    between atoms: C_2  and  C_3
REMARK    2  A    between atoms: C_2  and  C_8
REMARK    3  A    between atoms: C_9  and  C_10
REMARK                            x       y       z     vdW  Elec       q    Type
REMARK                         _______ _______ _______ _____ _____    ______ ____
ROOT
ATOM      1  C   UNL     1      -3.576  12.886  21.907  0.00  0.00    +0.000 C 
ATOM      2  C   UNL     1      -2.033  12.943  22.072  0.00  0.00    +0.000 C 
ATOM      3  C   UNL     1      -1.794  13.587  23.455  0.00  0.00    +0.000 C 
ATOM      4  C   UNL     1      -0.629  14.567  23.494  0.00  0.00    +0.000 C 
ATOM      5  C   UNL     1      -1.180  15.772  22.766  0.00  0.00    +0.000 C 
ATOM      6  C   UNL     1      -2.644  15.783  23.185  0.00  0.00    +0.000 C 
ATOM      7  N   UNL     1      -2.979  14.443  23.697  0.00  0.00    +0.000 NA
ATOM      8  C   UNL     1      -4.130  13.729  23.075  0.00  0.00    +0.000 C 
ATOM      9  C   UNL     1      -4.643  12.660  24.153  0.00  0.00    +0.000 C 
ATOM     10  O   UNL     1      -4.021  11.729  24.644  0.00  0.00    +0.000 OA
ATOM     11  N   UNL     1      -5.968  12.934  24.441  0.00  0.00    +0.000 N 
ATOM     12  C   UNL     1      -6.411  14.045  23.758  0.00  0.00    +0.000 A 
ATOM     13  C   UNL     1      -7.663  14.617  23.879  0.00  0.00    +0.000 A 
ATOM     14  C   UNL     1      -7.916  15.774  23.146  0.00  0.00    +0.000 A 
ATOM     15  C   UNL     1      -6.944  16.287  22.277  0.00  0.00    +0.000 A 
ATOM     16  C   UNL     1      -5.705  15.654  22.136  0.00  0.00    +0.000 A 
ATOM     17  C   UNL     1      -5.411  14.543  22.919  0.00  0.00    +0.000 A 
ATOM     18  H   UNL     1      -6.501  12.390  25.101  0.00  0.00    +0.000 HD
ENDROOT
BRANCH   2  19
ATOM     19  C   UNL     1      -1.318  11.616  21.873  0.00  0.00    +0.000 A 
ATOM     20  C   UNL     1      -1.077  10.794  22.988  0.00  0.00    +0.000 A 
ATOM     21  C   UNL     1      -0.366   9.599  22.855  0.00  0.00    +0.000 A 
ATOM     22  C   UNL     1       0.101   9.217  21.606  0.00  0.00    +0.000 A 
ATOM     23  F   UNL     1       0.809   8.087  21.483  0.00  0.00    +0.000 F 
ATOM     24  C   UNL     1      -0.152   9.993  20.484  0.00  0.00    +0.000 A 
ATOM     25  C   UNL     1      -0.867  11.185  20.615  0.00  0.00    +0.000 A 
ENDBRANCH   2  19
BRANCH   1  27
ATOM     26  O   UNL     1      -3.596  14.511  20.164  0.00  0.00    +0.000 OA
ATOM     27  C   UNL     1      -4.023  13.418  20.556  0.00  0.00    +0.000 C 
BRANCH  27  28
ATOM     28  C   UNL     1      -4.985  12.675  19.745  0.00  0.00    +0.000 A 
ATOM     29  C   UNL     1      -4.671  11.669  18.843  0.00  0.00    +0.000 A 
ATOM     30  C   UNL     1      -5.815  11.145  18.177  0.00  0.00    +0.000 A 
ATOM     31  C   UNL     1      -6.971  11.763  18.587  0.00  0.00    +0.000 A 
ATOM     32  S   UNL     1      -6.672  12.964  19.766  0.00  0.00    +0.000 S 
ENDBRANCH  27  28
ENDBRANCH   1  27
TORSDOF 3
ENDMDL
MODEL 2
REMARK VINA RESULT:      -6.9      3.542      6.482
REMARK  Name = 
REMARK  3 active torsions:
REMARK  status: ('A' for Active; 'I' for Inactive)
REMARK    1  A    between atoms: C_2  and  C_3
REMARK    2  A    between atoms: C_2  and  C_8
REMARK    3  A    between atoms: C_9  and  C_10
REMARK                            x       y       z     vdW  Elec       q    Type
REMARK                         _______ _______ _______ _____ _____    ______ ____
ROOT
ATOM      1  C   UNL     1      -0.956  13.164  20.586  0.00  0.00    +0.000 C 
ATOM      2  C   UNL     1      -1.654  12.038  21.397  0.00  0.00    +0.000 C 
ATOM      3  C   UNL     1      -0.570  11.491  22.351  0.00  0.00    +0.000 C 
ATOM      4  C   UNL     1      -0.595   9.978  22.522  0.00  0.00    +0.000 C 
ATOM      5  C   UNL     1      -0.026   9.483  21.212  0.00  0.00    +0.000 C 
ATOM      6  C   UNL     1       1.021  10.536  20.875  0.00  0.00    +0.000 C 
ATOM      7  N   UNL     1       0.719  11.744  21.664  0.00  0.00    +0.000 NA
ATOM      8  C   UNL     1       0.543  13.028  20.928  0.00  0.00    +0.000 C 
ATOM      9  C   UNL     1       0.837  14.202  21.979  0.00  0.00    +0.000 C 
ATOM     10  O   UNL     1       0.249  14.441  23.024  0.00  0.00    +0.000 OA
ATOM     11  N   UNL     1       1.885  14.965  21.497  0.00  0.00    +0.000 N 
ATOM     12  C   UNL     1       2.368  14.461  20.308  0.00  0.00    +0.000 A 
ATOM     13  C   UNL     1       3.452  14.954  19.608  0.00  0.00    +0.000 A 
ATOM     14  C   UNL     1       3.829  14.281  18.448  0.00  0.00    +0.000 A 
ATOM     15  C   UNL     1       3.085  13.184  17.994  0.00  0.00    +0.000 A 
ATOM     16  C   UNL     1       1.959  12.742  18.698  0.00  0.00    +0.000 A 
ATOM     17  C   UNL     1       1.618  13.356  19.897  0.00  0.00    +0.000 A 
ATOM     18  H   UNL     1       2.249  15.761  21.996  0.00  0.00    +0.000 HD
ENDROOT
BRANCH   2  19
ATOM     19  C   UNL     1      -2.941  12.453  22.092  0.00  0.00    +0.000 A 
ATOM     20  C   UNL     1      -3.012  12.392  23.495  0.00  0.00    +0.000 A 
ATOM     21  C   UNL     1      -4.197  12.702  24.165  0.00  0.00    +0.000 A 
ATOM     22  C   UNL     1      -5.316  13.081  23.436  0.00  0.00    +0.000 A 
ATOM     23  F   UNL     1      -6.461  13.348  24.075  0.00  0.00    +0.000 F 
ATOM     24  C   UNL     1      -5.263  13.182  22.053  0.00  0.00    +0.000 A 
ATOM     25  C   UNL     1      -4.076  12.877  21.383  0.00  0.00    +0.000 A 
ENDBRANCH   2  19
BRANCH   1  27
ATOM     26  O   UNL     1      -0.972  13.994  18.352  0.00  0.00    +0.000 OA
ATOM     27  C   UNL     1      -1.215  13.034  19.095  0.00  0.00    +0.000 C 
BRANCH  27  28
ATOM     28  C   UNL     1      -1.792  11.811  18.543  0.00  0.00    +0.000 A 
ATOM     29  C   UNL     1      -1.074  10.699  18.124  0.00  0.00    +0.000 A 
ATOM     30  C   UNL     1      -1.905   9.666  17.607  0.00  0.00    +0.000 A 
ATOM     31  C   UNL     1      -3.233  10.013  17.644  0.00  0.00    +0.000 A 
ATOM     32  S   UNL     1      -3.469  11.573  18.299  0.00  0.00    +0.000 S 
ENDBRANCH  27  28
ENDBRANCH   1  27
TORSDOF 3
ENDMDL
MODEL 3
REMARK VINA RESULT:      -6.8      2.630      3.710
REMARK  Name = 
REMARK  3 active torsions:
REMARK  status: ('A' for Active; 'I' for Inactive)
REMARK    1  A    between atoms: C_2  and  C_3
REMARK    2  A    between atoms: C_2  and  C_8
REMARK    3  A    between atoms: C_9  and  C_10
REMARK                            x       y       z     vdW  Elec       q    Type
REMARK                         _______ _______ _______ _____ _____    ______ ____
ROOT
ATOM      1  C   UNL     1      -0.875  11.568  20.078  0.00  0.00    +0.000 C 
ATOM      2  C   UNL     1       0.645  11.529  19.758  0.00  0.00    +0.000 C 
ATOM      3  C   UNL     1       1.337  12.147  20.992  0.00  0.00    +0.000 C 
ATOM      4  C   UNL     1       2.515  13.053  20.656  0.00  0.00    +0.000 C 
ATOM      5  C   UNL     1       1.840  14.295  20.120  0.00  0.00    +0.000 C 
ATOM      6  C   UNL     1       0.580  14.393  20.970  0.00  0.00    +0.000 C 
ATOM      7  N   UNL     1       0.339  13.073  21.577  0.00  0.00    +0.000 NA
ATOM      8  C   UNL     1      -0.989  12.435  21.349  0.00  0.00    +0.000 C 
ATOM      9  C   UNL     1      -1.208  11.392  22.546  0.00  0.00    +0.000 C 
ATOM     10  O   UNL     1      -0.522  10.422  22.833  0.00  0.00    +0.000 OA
ATOM     11  N   UNL     1      -2.359  11.745  23.226  0.00  0.00    +0.000 N 
ATOM     12  C   UNL     1      -2.924  12.886  22.699  0.00  0.00    +0.000 A 
ATOM     13  C   UNL     1      -4.040  13.533  23.194  0.00  0.00    +0.000 A 
ATOM     14  C   UNL     1      -4.437  14.709  22.560  0.00  0.00    +0.000 A 
ATOM     15  C   UNL     1      -3.751  15.167  21.427  0.00  0.00    +0.000 A 
ATOM     16  C   UNL     1      -2.657  14.459  20.918  0.00  0.00    +0.000 A 
ATOM     17  C   UNL     1      -2.204  13.328  21.586  0.00  0.00    +0.000 A 
ATOM     18  H   UNL     1      -2.695  11.230  24.025  0.00  0.00    +0.000 HD
ENDROOT
BRANCH   2  19
ATOM     19  C   UNL     1       1.181  10.161  19.364  0.00  0.00    +0.000 A 
ATOM     20  C   UNL     1       1.216   9.137  20.326  0.00  0.00    +0.000 A 
ATOM     21  C   UNL     1       1.762   7.888  20.021  0.00  0.00    +0.000 A 
ATOM     22  C   UNL     1       2.269   7.655  18.751  0.00  0.00    +0.000 A 
ATOM     23  F   UNL     1       2.821   6.468  18.468  0.00  0.00    +0.000 F 
ATOM     24  C   UNL     1       2.216   8.638  17.773  0.00  0.00    +0.000 A 
ATOM     25  C   UNL     1       1.665   9.885  18.076  0.00  0.00    +0.000 A 
ENDBRANCH   2  19
BRANCH   1  27
ATOM     26  O   UNL     1      -1.230  13.087  18.277  0.00  0.00    +0.000 OA
ATOM     27  C   UNL     1      -1.684  12.135  18.925  0.00  0.00    +0.000 C 
BRANCH  27  28
ATOM     28  C   UNL     1      -3.007  11.601  18.609  0.00  0.00    +0.000 A 
ATOM     29  C   UNL     1      -4.214  12.121  19.055  0.00  0.00    +0.000 A 
ATOM     30  C   UNL     1      -5.338  11.373  18.607  0.00  0.00    +0.000 A 
ATOM     31  C   UNL     1      -4.963  10.303  17.832  0.00  0.00    +0.000 A 
ATOM     32  S   UNL     1      -3.267  10.207  17.650  0.00  0.00    +0.000 S 
ENDBRANCH  27  28
ENDBRANCH   1  27
TORSDOF 3
ENDMDL
MODEL 4
REMARK VINA RESULT:      -6.8      2.594      3.789
REMARK  Name = 
REMARK  3 active torsions:
REMARK  status: ('A' for Active; 'I' for Inactive)
REMARK    1  A    between atoms: C_2  and  C_3
REMARK    2  A    between atoms: C_2  and  C_8
REMARK    3  A    between atoms: C_9  and  C_10
REMARK                            x       y       z     vdW  Elec       q    Type
REMARK                         _______ _______ _______ _____ _____    ______ ____
ROOT
ATOM      1  C   UNL     1      -0.818  11.529  20.114  0.00  0.00    +0.000 C 
ATOM      2  C   UNL     1       0.705  11.524  19.805  0.00  0.00    +0.000 C 
ATOM      3  C   UNL     1       1.373  12.173  21.037  0.00  0.00    +0.000 C 
ATOM      4  C   UNL     1       2.530  13.105  20.700  0.00  0.00    +0.000 C 
ATOM      5  C   UNL     1       1.828  14.323  20.145  0.00  0.00    +0.000 C 
ATOM      6  C   UNL     1       0.560  14.400  20.985  0.00  0.00    +0.000 C 
ATOM      7  N   UNL     1       0.347  13.080  21.605  0.00  0.00    +0.000 NA
ATOM      8  C   UNL     1      -0.963  12.407  21.375  0.00  0.00    +0.000 C 
ATOM      9  C   UNL     1      -1.165  11.373  22.581  0.00  0.00    +0.000 C 
ATOM     10  O   UNL     1      -0.457  10.423  22.884  0.00  0.00    +0.000 OA
ATOM     11  N   UNL     1      -2.329  11.704  23.249  0.00  0.00    +0.000 N 
ATOM     12  C   UNL     1      -2.918  12.825  22.705  0.00  0.00    +0.000 A 
ATOM     13  C   UNL     1      -4.053  13.449  23.185  0.00  0.00    +0.000 A 
ATOM     14  C   UNL     1      -4.475  14.608  22.535  0.00  0.00    +0.000 A 
ATOM     15  C   UNL     1      -3.792  15.071  21.402  0.00  0.00    +0.000 A 
ATOM     16  C   UNL     1      -2.677  14.385  20.909  0.00  0.00    +0.000 A 
ATOM     17  C   UNL     1      -2.201  13.272  21.593  0.00  0.00    +0.000 A 
ATOM     18  H   UNL     1      -2.658  11.190  24.051  0.00  0.00    +0.000 HD
ENDROOT
BRANCH   2  19
ATOM     19  C   UNL     1       1.278  10.167  19.431  0.00  0.00    +0.000 A 
ATOM     20  C   UNL     1       1.742   9.957  18.120  0.00  0.00    +0.000 A 
ATOM     21  C   UNL     1       2.215   8.705  17.721  0.00  0.00    +0.000 A 
ATOM     22  C   UNL     1       2.232   7.658  18.631  0.00  0.00    +0.000 A 
ATOM     23  F   UNL     1       2.655   6.450  18.240  0.00  0.00    +0.000 F 
ATOM     24  C   UNL     1       1.811   7.847  19.940  0.00  0.00    +0.000 A 
ATOM     25  C   UNL     1       1.343   9.101  20.341  0.00  0.00    +0.000 A 
ENDBRANCH   2  19
BRANCH   1  27
ATOM     26  O   UNL     1      -1.260  13.093  18.371  0.00  0.00    +0.000 OA
ATOM     27  C   UNL     1      -1.632  12.064  18.949  0.00  0.00    +0.000 C 
BRANCH  27  28
ATOM     28  C   UNL     1      -2.869  11.403  18.540  0.00  0.00    +0.000 A 
ATOM     29  C   UNL     1      -2.952  10.206  17.843  0.00  0.00    +0.000 A 
ATOM     30  C   UNL     1      -4.292   9.820  17.561  0.00  0.00    +0.000 A 
ATOM     31  C   UNL     1      -5.198  10.730  18.049  0.00  0.00    +0.000 A 
ATOM     32  S   UNL     1      -4.431  12.036  18.840  0.00  0.00    +0.000 S 
ENDBRANCH  27  28
ENDBRANCH   1  27
TORSDOF 3
ENDMDL
MODEL 5
REMARK VINA RESULT:      -6.8     10.291     13.689
REMARK  Name = 
REMARK  3 active torsions:
REMARK  status: ('A' for Active; 'I' for Inactive)
REMARK    1  A    between atoms: C_2  and  C_3
REMARK    2  A    between atoms: C_2  and  C_8
REMARK    3  A    between atoms: C_9  and  C_10
REMARK                            x       y       z     vdW  Elec       q    Type
REMARK                         _______ _______ _______ _____ _____    ______ ____
ROOT
ATOM      1  C   UNL     1       7.900  15.135  20.021  0.00  0.00    +0.000 C 
ATOM      2  C   UNL     1       7.619  16.653  19.845  0.00  0.00    +0.000 C 
ATOM      3  C   UNL     1       8.196  17.016  18.460  0.00  0.00    +0.000 C 
ATOM      4  C   UNL     1       8.898  18.367  18.412  0.00  0.00    +0.000 C 
ATOM      5  C   UNL     1      10.194  18.097  19.143  0.00  0.00    +0.000 C 
ATOM      6  C   UNL     1      10.525  16.668  18.734  0.00  0.00    +0.000 C 
ATOM      7  N   UNL     1       9.290  16.045  18.225  0.00  0.00    +0.000 NA
ATOM      8  C   UNL     1       8.844  14.770  18.856  0.00  0.00    +0.000 C 
ATOM      9  C   UNL     1       7.914  14.028  17.783  0.00  0.00    +0.000 C 
ATOM     10  O   UNL     1       6.870  14.429  17.288  0.00  0.00    +0.000 OA
ATOM     11  N   UNL     1       8.470  12.794  17.503  0.00  0.00    +0.000 N 
ATOM     12  C   UNL     1       9.651  12.608  18.189  0.00  0.00    +0.000 A 
ATOM     13  C   UNL     1      10.483  11.511  18.075  0.00  0.00    +0.000 A 
ATOM     14  C   UNL     1      11.667  11.521  18.810  0.00  0.00    +0.000 A 
ATOM     15  C   UNL     1      11.955  12.588  19.671  0.00  0.00    +0.000 A 
ATOM     16  C   UNL     1      11.066  13.661  19.805  0.00  0.00    +0.000 A 
ATOM     17  C   UNL     1       9.919  13.699  19.020  0.00  0.00    +0.000 A 
ATOM     18  H   UNL     1       8.057  12.150  16.847  0.00  0.00    +0.000 HD
ENDROOT
BRANCH   2  19
ATOM     19  C   UNL     1       6.168  17.062  20.040  0.00  0.00    +0.000 A 
ATOM     20  C   UNL     1       5.836  17.927  21.098  0.00  0.00    +0.000 A 
ATOM     21  C   UNL     1       4.507  18.273  21.348  0.00  0.00    +0.000 A 
ATOM     22  C   UNL     1       3.503  17.762  20.539  0.00  0.00    +0.000 A 
ATOM     23  F   UNL     1       2.225  18.068  20.798  0.00  0.00    +0.000 F 
ATOM     24  C   UNL     1       3.805  16.933  19.468  0.00  0.00    +0.000 A 
ATOM     25  C   UNL     1       5.135  16.591  19.214  0.00  0.00    +0.000 A 
ENDBRANCH   2  19
BRANCH   1  27
ATOM     26  O   UNL     1       9.425  15.544  21.806  0.00  0.00    +0.000 OA
ATOM     27  C   UNL     1       8.516  14.824  21.374  0.00  0.00    +0.000 C 
BRANCH  27  28
ATOM     28  C   UNL     1       8.078  13.661  22.141  0.00  0.00    +0.000 A 
ATOM     29  C   UNL     1       8.838  12.526  22.388  0.00  0.00    +0.000 A 
ATOM     30  C   UNL     1       8.137  11.543  23.143  0.00  0.00    +0.000 A 
ATOM     31  C   UNL     1       6.863  11.951  23.453  0.00  0.00    +0.000 A 
ATOM     32  S   UNL     1       6.522  13.508  22.837  0.00  0.00    +0.000 S 
ENDBRANCH  27  28
ENDBRANCH   1  27
TORSDOF 3
ENDMDL
MODEL 6
REMARK VINA RESULT:      -6.5      3.111      5.588
REMARK  Name = 
REMARK  3 active torsions:
REMARK  status: ('A' for Active; 'I' for Inactive)
REMARK    1  A    between atoms: C_2  and  C_3
REMARK    2  A    between atoms: C_2  and  C_8
REMARK    3  A    between atoms: C_9  and  C_10
REMARK                            x       y       z     vdW  Elec       q    Type
REMARK                         _______ _______ _______ _____ _____    ______ ____
ROOT
ATOM      1  C   UNL     1      -5.058  12.851  19.527  0.00  0.00    +0.000 C 
ATOM      2  C   UNL     1      -5.237  11.392  19.023  0.00  0.00    +0.000 C 
ATOM      3  C   UNL     1      -6.750  11.238  18.753  0.00  0.00    +0.000 C 
ATOM      4  C   UNL     1      -7.323   9.889  19.169  0.00  0.00    +0.000 C 
ATOM      5  C   UNL     1      -7.363   9.992  20.676  0.00  0.00    +0.000 C 
ATOM      6  C   UNL     1      -7.711  11.456  20.909  0.00  0.00    +0.000 C 
ATOM      7  N   UNL     1      -7.410  12.196  19.671  0.00  0.00    +0.000 NA
ATOM      8  C   UNL     1      -6.492  13.366  19.766  0.00  0.00    +0.000 C 
ATOM      9  C   UNL     1      -6.813  14.304  18.507  0.00  0.00    +0.000 C 
ATOM     10  O   UNL     1      -6.724  14.025  17.320  0.00  0.00    +0.000 OA
ATOM     11  N   UNL     1      -7.195  15.547  18.976  0.00  0.00    +0.000 N 
ATOM     12  C   UNL     1      -7.222  15.578  20.353  0.00  0.00    +0.000 A 
ATOM     13  C   UNL     1      -7.626  16.650  21.125  0.00  0.00    +0.000 A 
ATOM     14  C   UNL     1      -7.637  16.480  22.508  0.00  0.00    +0.000 A 
ATOM     15  C   UNL     1      -7.193  15.278  23.076  0.00  0.00    +0.000 A 
ATOM     16  C   UNL     1      -6.738  14.230  22.268  0.00  0.00    +0.000 A 
ATOM     17  C   UNL     1      -6.795  14.359  20.885  0.00  0.00    +0.000 A 
ATOM     18  H   UNL     1      -7.450  16.303  18.359  0.00  0.00    +0.000 HD
ENDROOT
BRANCH   2  19
ATOM     19  C   UNL     1      -4.354  11.007  17.847  0.00  0.00    +0.000 A 
ATOM     20  C   UNL     1      -4.720  11.418  16.552  0.00  0.00    +0.000 A 
ATOM     21  C   UNL     1      -3.971  11.029  15.440  0.00  0.00    +0.000 A 
ATOM     22  C   UNL     1      -2.847  10.234  15.617  0.00  0.00    +0.000 A 
ATOM     23  F   UNL     1      -2.146   9.835  14.548  0.00  0.00    +0.000 F 
ATOM     24  C   UNL     1      -2.445   9.843  16.886  0.00  0.00    +0.000 A 
ATOM     25  C   UNL     1      -3.192  10.237  17.999  0.00  0.00    +0.000 A 
ENDBRANCH   2  19
BRANCH   1  27
ATOM     26  O   UNL     1      -4.472  12.165  21.733  0.00  0.00    +0.000 OA
ATOM     27  C   UNL     1      -4.209  12.916  20.785  0.00  0.00    +0.000 C 
BRANCH  27  28
ATOM     28  C   UNL     1      -3.124  13.888  20.901  0.00  0.00    +0.000 A 
ATOM     29  C   UNL     1      -1.770  13.584  20.927  0.00  0.00    +0.000 A 
ATOM     30  C   UNL     1      -0.947  14.736  21.075  0.00  0.00    +0.000 A 
ATOM     31  C   UNL     1      -1.692  15.887  21.157  0.00  0.00    +0.000 A 
ATOM     32  S   UNL     1      -3.368  15.575  21.056  0.00  0.00    +0.000 S 
ENDBRANCH  27  28
ENDBRANCH   1  27
TORSDOF 3
ENDMDL
MODEL 7
REMARK VINA RESULT:      -6.5      1.743      2.152
REMARK  Name = 
REMARK  3 active torsions:
REMARK  status: ('A' for Active; 'I' for Inactive)
REMARK    1  A    between atoms: C_2  and  C_3
REMARK    2  A    between atoms: C_2  and  C_8
REMARK    3  A    between atoms: C_9  and  C_10
REMARK                            x       y       z     vdW  Elec       q    Type
REMARK                         _______ _______ _______ _____ _____    ______ ____
ROOT
ATOM      1  C   UNL     1      -3.586  13.050  21.088  0.00  0.00    +0.000 C 
ATOM      2  C   UNL     1      -2.290  13.798  20.669  0.00  0.00    +0.000 C 
ATOM      3  C   UNL     1      -1.793  14.500  21.951  0.00  0.00    +0.000 C 
ATOM      4  C   UNL     1      -1.240  15.900  21.720  0.00  0.00    +0.000 C 
ATOM      5  C   UNL     1      -2.487  16.717  21.474  0.00  0.00    +0.000 C 
ATOM      6  C   UNL     1      -3.506  16.075  22.406  0.00  0.00    +0.000 C 
ATOM      7  N   UNL     1      -3.010  14.735  22.765  0.00  0.00    +0.000 NA
ATOM      8  C   UNL     1      -3.903  13.570  22.505  0.00  0.00    +0.000 C 
ATOM      9  C   UNL     1      -3.430  12.401  23.493  0.00  0.00    +0.000 C 
ATOM     10  O   UNL     1      -2.337  11.857  23.546  0.00  0.00    +0.000 OA
ATOM     11  N   UNL     1      -4.498  12.053  24.300  0.00  0.00    +0.000 N 
ATOM     12  C   UNL     1      -5.602  12.836  24.037  0.00  0.00    +0.000 A 
ATOM     13  C   UNL     1      -6.803  12.786  24.716  0.00  0.00    +0.000 A 
ATOM     14  C   UNL     1      -7.792  13.694  24.344  0.00  0.00    +0.000 A 
ATOM     15  C   UNL     1      -7.576  14.577  23.278  0.00  0.00    +0.000 A 
ATOM     16  C   UNL     1      -6.366  14.567  22.574  0.00  0.00    +0.000 A 
ATOM     17  C   UNL     1      -5.344  13.719  22.985  0.00  0.00    +0.000 A 
ATOM     18  H   UNL     1      -4.433  11.337  25.006  0.00  0.00    +0.000 HD
ENDROOT
BRANCH   2  19
ATOM     19  C   UNL     1      -1.242  12.931  19.989  0.00  0.00    +0.000 A 
ATOM     20  C   UNL     1      -1.302  11.535  20.145  0.00  0.00    +0.000 A 
ATOM     21  C   UNL     1      -0.320  10.711  19.590  0.00  0.00    +0.000 A 
ATOM     22  C   UNL     1       0.722  11.278  18.871  0.00  0.00    +0.000 A 
ATOM     23  F   UNL     1       1.681  10.492  18.366  0.00  0.00    +0.000 F 
ATOM     24  C   UNL     1       0.787  12.650  18.675  0.00  0.00    +0.000 A 
ATOM     25  C   UNL     1      -0.198  13.474  19.225  0.00  0.00    +0.000 A 
ENDBRANCH   2  19
BRANCH   1  27
ATOM     26  O   UNL     1      -4.929  14.454  19.707  0.00  0.00    +0.000 OA
ATOM     27  C   UNL     1      -4.727  13.304  20.117  0.00  0.00    +0.000 C 
BRANCH  27  28
ATOM     28  C   UNL     1      -5.611  12.215  19.707  0.00  0.00    +0.000 A 
ATOM     29  C   UNL     1      -6.604  11.644  20.491  0.00  0.00    +0.000 A 
ATOM     30  C   UNL     1      -7.287  10.584  19.833  0.00  0.00    +0.000 A 
ATOM     31  C   UNL     1      -6.801  10.372  18.566  0.00  0.00    +0.000 A 
ATOM     32  S   UNL     1      -5.531  11.448  18.179  0.00  0.00    +0.000 S 
ENDBRANCH  27  28
ENDBRANCH   1  27
TORSDOF 3
ENDMDL
MODEL 8
REMARK VINA RESULT:      -6.4      1.746      2.076
REMARK  Name = 
REMARK  3 active torsions:
REMARK  status: ('A' for Active; 'I' for Inactive)
REMARK    1  A    between atoms: C_2  and  C_3
REMARK    2  A    between atoms: C_2  and  C_8
REMARK    3  A    between atoms: C_9  and  C_10
REMARK                            x       y       z     vdW  Elec       q    Type
REMARK                         _______ _______ _______ _____ _____    ______ ____
ROOT
ATOM      1  C   UNL     1      -3.929  12.560  20.965  0.00  0.00    +0.000 C 
ATOM      2  C   UNL     1      -2.629  13.131  20.335  0.00  0.00    +0.000 C 
ATOM      3  C   UNL     1      -2.032  14.064  21.411  0.00  0.00    +0.000 C 
ATOM      4  C   UNL     1      -1.434  15.351  20.856  0.00  0.00    +0.000 C 
ATOM      5  C   UNL     1      -2.658  16.162  20.496  0.00  0.00    +0.000 C 
ATOM      6  C   UNL     1      -3.649  15.789  21.590  0.00  0.00    +0.000 C 
ATOM      7  N   UNL     1      -3.190  14.533  22.208  0.00  0.00    +0.000 NA
ATOM      8  C   UNL     1      -4.144  13.388  22.249  0.00  0.00    +0.000 C 
ATOM      9  C   UNL     1      -3.667  12.435  23.444  0.00  0.00    +0.000 C 
ATOM     10  O   UNL     1      -2.596  11.857  23.564  0.00  0.00    +0.000 OA
ATOM     11  N   UNL     1      -4.701  12.325  24.355  0.00  0.00    +0.000 N 
ATOM     12  C   UNL     1      -5.784  13.091  23.979  0.00  0.00    +0.000 A 
ATOM     13  C   UNL     1      -6.947  13.251  24.707  0.00  0.00    +0.000 A 
ATOM     14  C   UNL     1      -7.916  14.110  24.193  0.00  0.00    +0.000 A 
ATOM     15  C   UNL     1      -7.723  14.731  22.952  0.00  0.00    +0.000 A 
ATOM     16  C   UNL     1      -6.556  14.506  22.212  0.00  0.00    +0.000 A 
ATOM     17  C   UNL     1      -5.549  13.713  22.750  0.00  0.00    +0.000 A 
ATOM     18  H   UNL     1      -4.626  11.775  25.196  0.00  0.00    +0.000 HD
ENDROOT
BRANCH   2  19
ATOM     19  C   UNL     1      -1.658  12.085  19.813  0.00  0.00    +0.000 A 
ATOM     20  C   UNL     1      -0.479  11.824  20.533  0.00  0.00    +0.000 A 
ATOM     21  C   UNL     1       0.468  10.918  20.051  0.00  0.00    +0.000 A 
ATOM     22  C   UNL     1       0.238  10.262  18.850  0.00  0.00    +0.000 A 
ATOM     23  F   UNL     1       1.160   9.417  18.371  0.00  0.00    +0.000 F 
ATOM     24  C   UNL     1      -0.933  10.476  18.136  0.00  0.00    +0.000 A 
ATOM     25  C   UNL     1      -1.882  11.378  18.621  0.00  0.00    +0.000 A 
ENDBRANCH   2  19
BRANCH   1  27
ATOM     26  O   UNL     1      -5.310  13.718  19.406  0.00  0.00    +0.000 OA
ATOM     27  C   UNL     1      -5.111  12.660  20.016  0.00  0.00    +0.000 C 
BRANCH  27  28
ATOM     28  C   UNL     1      -6.035  11.540  19.857  0.00  0.00    +0.000 A 
ATOM     29  C   UNL     1      -6.006  10.611  18.826  0.00  0.00    +0.000 A 
ATOM     30  C   UNL     1      -7.049   9.647  18.919  0.00  0.00    +0.000 A 
ATOM     31  C   UNL     1      -7.846   9.863  20.017  0.00  0.00    +0.000 A 
ATOM     32  S   UNL     1      -7.335  11.218  20.923  0.00  0.00    +0.000 S 
ENDBRANCH  27  28
ENDBRANCH   1  27
TORSDOF 3
ENDMDL
MODEL 9
REMARK VINA RESULT:      -6.3      2.120      2.960
REMARK  Name = 
REMARK  3 active torsions:
REMARK  status: ('A' for Active; 'I' for Inactive)
REMARK    1  A    between atoms: C_2  and  C_3
REMARK    2  A    between atoms: C_2  and  C_8
REMARK    3  A    between atoms: C_9  and  C_10
REMARK                            x       y       z     vdW  Elec       q    Type
REMARK                         _______ _______ _______ _____ _____    ______ ____
ROOT
ATOM      1  C   UNL     1      -2.881  13.725  22.361  0.00  0.00    +0.000 C 
ATOM      2  C   UNL     1      -1.702  13.408  21.401  0.00  0.00    +0.000 C 
ATOM      3  C   UNL     1      -0.694  14.561  21.599  0.00  0.00    +0.000 C 
ATOM      4  C   UNL     1      -0.034  15.040  20.313  0.00  0.00    +0.000 C 
ATOM      5  C   UNL     1      -1.144  15.812  19.635  0.00  0.00    +0.000 C 
ATOM      6  C   UNL     1      -1.875  16.457  20.805  0.00  0.00    +0.000 C 
ATOM      7  N   UNL     1      -1.508  15.722  22.029  0.00  0.00    +0.000 NA
ATOM      8  C   UNL     1      -2.611  15.161  22.859  0.00  0.00    +0.000 C 
ATOM      9  C   UNL     1      -2.025  14.984  24.340  0.00  0.00    +0.000 C 
ATOM     10  O   UNL     1      -1.081  14.295  24.698  0.00  0.00    +0.000 OA
ATOM     11  N   UNL     1      -2.798  15.735  25.207  0.00  0.00    +0.000 N 
ATOM     12  C   UNL     1      -3.784  16.423  24.533  0.00  0.00    +0.000 A 
ATOM     13  C   UNL     1      -4.676  17.312  25.101  0.00  0.00    +0.000 A 
ATOM     14  C   UNL     1      -5.573  17.956  24.251  0.00  0.00    +0.000 A 
ATOM     15  C   UNL     1      -5.592  17.653  22.883  0.00  0.00    +0.000 A 
ATOM     16  C   UNL     1      -4.711  16.707  22.347  0.00  0.00    +0.000 A 
ATOM     17  C   UNL     1      -3.760  16.115  23.170  0.00  0.00    +0.000 A 
ATOM     18  H   UNL     1      -2.612  15.781  26.197  0.00  0.00    +0.000 HD
ENDROOT
BRANCH   2  19
ATOM     19  C   UNL     1      -1.100  12.021  21.563  0.00  0.00    +0.000 A 
ATOM     20  C   UNL     1      -0.594  11.358  20.431  0.00  0.00    +0.000 A 
ATOM     21  C   UNL     1      -0.093  10.058  20.529  0.00  0.00    +0.000 A 
ATOM     22  C   UNL     1      -0.088   9.418  21.759  0.00  0.00    +0.000 A 
ATOM     23  F   UNL     1       0.363   8.160  21.848  0.00  0.00    +0.000 F 
ATOM     24  C   UNL     1      -0.550  10.062  22.898  0.00  0.00    +0.000 A 
ATOM     25  C   UNL     1      -1.046  11.364  22.802  0.00  0.00    +0.000 A 
ENDBRANCH   2  19
BRANCH   1  27
ATOM     26  O   UNL     1      -4.325  13.927  20.476  0.00  0.00    +0.000 OA
ATOM     27  C   UNL     1      -4.227  13.605  21.667  0.00  0.00    +0.000 C 
BRANCH  27  28
ATOM     28  C   UNL     1      -5.408  13.162  22.405  0.00  0.00    +0.000 A 
ATOM     29  C   UNL     1      -5.496  13.037  23.784  0.00  0.00    +0.000 A 
ATOM     30  C   UNL     1      -6.765  12.558  24.217  0.00  0.00    +0.000 A 
ATOM     31  C   UNL     1      -7.612  12.331  23.159  0.00  0.00    +0.000 A 
ATOM     32  S   UNL     1      -6.876  12.695  21.661  0.00  0.00    +0.000 S 
ENDBRANCH  27  28
ENDBRANCH   1  27
TORSDOF 3
ENDMDL
