MODEL 1
REMARK VINA RESULT:      -7.8      0.000      0.000
REMARK  Name = 
REMARK  2 active torsions:
REMARK  status: ('A' for Active; 'I' for Inactive)
REMARK    1  A    between atoms: C_5  and  O_6
REMARK    2  A    between atoms: C_12  and  C_13
REMARK                            x       y       z     vdW  Elec       q    Type
REMARK                         _______ _______ _______ _____ _____    ______ ____
ROOT
ATOM      1  O   UNL     1       6.796   6.509  17.662  0.00  0.00    +0.000 OA
ATOM      2  C   UNL     1       6.526   5.788  16.708  0.00  0.00    +0.000 A 
ATOM      3  O   UNL     1       7.341   5.772  15.577  0.00  0.00    +0.000 OA
ATOM      4  C   UNL     1       6.994   5.035  14.430  0.00  0.00    +0.000 A 
ATOM      5  C   UNL     1       7.810   5.153  13.307  0.00  0.00    +0.000 A 
ATOM      6  C   UNL     1       7.476   4.492  12.132  0.00  0.00    +0.000 A 
ATOM      7  C   UNL     1       6.332   3.691  12.097  0.00  0.00    +0.000 A 
ATOM      8  C   UNL     1       5.530   3.553  13.237  0.00  0.00    +0.000 A 
ATOM      9  C   UNL     1       5.856   4.238  14.410  0.00  0.00    +0.000 A 
ATOM     10  C   UNL     1       5.034   4.155  15.607  0.00  0.00    +0.000 A 
ATOM     11  C   UNL     1       5.338   4.889  16.689  0.00  0.00    +0.000 A 
ENDROOT
BRANCH  11  12
ATOM     12  C   UNL     1       4.488   4.812  17.830  0.00  0.00    +0.000 A 
ATOM     13  C   UNL     1       4.290   3.750  18.702  0.00  0.00    +0.000 A 
ATOM     14  C   UNL     1       3.362   4.067  19.723  0.00  0.00    +0.000 A 
ATOM     15 BR   UNL     1       2.886   2.824  21.060  0.00  0.00    +0.000 Br
ATOM     16  C   UNL     1       2.864   5.340  19.631  0.00  0.00    +0.000 A 
ATOM     17  S   UNL     1       3.526   6.169  18.288  0.00  0.00    +0.000 S 
ENDBRANCH  11  12
BRANCH   5  18
ATOM     18  O   UNL     1       8.945   5.911  13.324  0.00  0.00    +0.000 OA
ATOM     19  H   UNL     1       9.697   5.299  13.423  0.00  0.00    +0.000 HD
ENDBRANCH   5  18
TORSDOF 2
ENDMDL
MODEL 2
REMARK VINA RESULT:      -7.7      1.231      1.375
REMARK  Name = 
REMARK  2 active torsions:
REMARK  status: ('A' for Active; 'I' for Inactive)
REMARK    1  A    between atoms: C_5  and  O_6
REMARK    2  A    between atoms: C_12  and  C_13
REMARK                            x       y       z     vdW  Elec       q    Type
REMARK                         _______ _______ _______ _____ _____    ______ ____
ROOT
ATOM      1  O   UNL     1       6.904   6.630  17.599  0.00  0.00    +0.000 OA
ATOM      2  C   UNL     1       6.589   5.885  16.678  0.00  0.00    +0.000 A 
ATOM      3  O   UNL     1       7.370   5.808  15.526  0.00  0.00    +0.000 OA
ATOM      4  C   UNL     1       6.971   5.044  14.415  0.00  0.00    +0.000 A 
ATOM      5  C   UNL     1       7.758   5.101  13.267  0.00  0.00    +0.000 A 
ATOM      6  C   UNL     1       7.373   4.410  12.125  0.00  0.00    +0.000 A 
ATOM      7  C   UNL     1       6.208   3.640  12.149  0.00  0.00    +0.000 A 
ATOM      8  C   UNL     1       5.435   3.563  13.314  0.00  0.00    +0.000 A 
ATOM      9  C   UNL     1       5.812   4.278  14.454  0.00  0.00    +0.000 A 
ATOM     10  C   UNL     1       5.022   4.258  15.675  0.00  0.00    +0.000 A 
ATOM     11  C   UNL     1       5.377   5.020  16.722  0.00  0.00    +0.000 A 
ENDROOT
BRANCH  11  12
ATOM     12  C   UNL     1       4.558   5.005  17.888  0.00  0.00    +0.000 A 
ATOM     13  C   UNL     1       3.678   5.974  18.350  0.00  0.00    +0.000 A 
ATOM     14  C   UNL     1       3.041   5.584  19.553  0.00  0.00    +0.000 A 
ATOM     15 BR   UNL     1       1.788   6.692  20.425  0.00  0.00    +0.000 Br
ATOM     16  C   UNL     1       3.428   4.347  19.998  0.00  0.00    +0.000 A 
ATOM     17  S   UNL     1       4.581   3.643  18.947  0.00  0.00    +0.000 S 
ENDBRANCH  11  12
BRANCH   5  18
ATOM     18  O   UNL     1       8.912   5.827  13.226  0.00  0.00    +0.000 OA
ATOM     19  H   UNL     1       9.652   5.195  13.298  0.00  0.00    +0.000 HD
ENDBRANCH   5  18
TORSDOF 2
ENDMDL
MODEL 3
REMARK VINA RESULT:      -7.4      3.203      6.661
REMARK  Name = 
REMARK  2 active torsions:
REMARK  status: ('A' for Active; 'I' for Inactive)
REMARK    1  A    between atoms: C_5  and  O_6
REMARK    2  A    between atoms: C_12  and  C_13
REMARK                            x       y       z     vdW  Elec       q    Type
REMARK                         _______ _______ _______ _____ _____    ______ ____
ROOT
ATOM      1  O   UNL     1       4.308   7.039  17.030  0.00  0.00    +0.000 OA
ATOM      2  C   UNL     1       4.059   6.007  17.643  0.00  0.00    +0.000 A 
ATOM      3  O   UNL     1       3.226   6.028  18.761  0.00  0.00    +0.000 OA
ATOM      4  C   UNL     1       3.013   4.877  19.542  0.00  0.00    +0.000 A 
ATOM      5  C   UNL     1       2.248   5.006  20.699  0.00  0.00    +0.000 A 
ATOM      6  C   UNL     1       2.059   3.912  21.533  0.00  0.00    +0.000 A 
ATOM      7  C   UNL     1       2.620   2.680  21.187  0.00  0.00    +0.000 A 
ATOM      8  C   UNL     1       3.365   2.549  20.009  0.00  0.00    +0.000 A 
ATOM      9  C   UNL     1       3.573   3.656  19.183  0.00  0.00    +0.000 A 
ATOM     10  C   UNL     1       4.369   3.577  17.969  0.00  0.00    +0.000 A 
ATOM     11  C   UNL     1       4.610   4.681  17.244  0.00  0.00    +0.000 A 
ENDROOT
BRANCH  11  12
ATOM     12  C   UNL     1       5.426   4.573  16.081  0.00  0.00    +0.000 A 
ATOM     13  C   UNL     1       5.132   3.984  14.859  0.00  0.00    +0.000 A 
ATOM     14  C   UNL     1       6.211   4.084  13.948  0.00  0.00    +0.000 A 
ATOM     15 BR   UNL     1       6.111   3.377  12.202  0.00  0.00    +0.000 Br
ATOM     16  C   UNL     1       7.301   4.735  14.463  0.00  0.00    +0.000 A 
ATOM     17  S   UNL     1       7.020   5.232  16.076  0.00  0.00    +0.000 S 
ENDBRANCH  11  12
BRANCH   5  18
ATOM     18  O   UNL     1       1.671   6.193  21.046  0.00  0.00    +0.000 OA
ATOM     19  H   UNL     1       2.124   6.508  21.850  0.00  0.00    +0.000 HD
ENDBRANCH   5  18
TORSDOF 2
ENDMDL
MODEL 4
REMARK VINA RESULT:      -7.2      3.436      6.625
REMARK  Name = 
REMARK  2 active torsions:
REMARK  status: ('A' for Active; 'I' for Inactive)
REMARK    1  A    between atoms: C_5  and  O_6
REMARK    2  A    between atoms: C_12  and  C_13
REMARK                            x       y       z     vdW  Elec       q    Type
REMARK                         _______ _______ _______ _____ _____    ______ ____
ROOT
ATOM      1  O   UNL     1       6.515   4.189  18.868  0.00  0.00    +0.000 OA
ATOM      2  C   UNL     1       5.312   4.027  18.700  0.00  0.00    +0.000 A 
ATOM      3  O   UNL     1       4.462   3.834  19.788  0.00  0.00    +0.000 OA
ATOM      4  C   UNL     1       3.097   3.538  19.614  0.00  0.00    +0.000 A 
ATOM      5  C   UNL     1       2.340   3.260  20.750  0.00  0.00    +0.000 A 
ATOM      6  C   UNL     1       1.003   2.905  20.624  0.00  0.00    +0.000 A 
ATOM      7  C   UNL     1       0.422   2.857  19.354  0.00  0.00    +0.000 A 
ATOM      8  C   UNL     1       1.181   3.165  18.218  0.00  0.00    +0.000 A 
ATOM      9  C   UNL     1       2.531   3.499  18.345  0.00  0.00    +0.000 A 
ATOM     10  C   UNL     1       3.368   3.791  17.192  0.00  0.00    +0.000 A 
ATOM     11  C   UNL     1       4.679   4.031  17.351  0.00  0.00    +0.000 A 
ENDROOT
BRANCH  11  12
ATOM     12  C   UNL     1       5.475   4.275  16.195  0.00  0.00    +0.000 A 
ATOM     13  C   UNL     1       5.421   3.661  14.951  0.00  0.00    +0.000 A 
ATOM     14  C   UNL     1       6.384   4.188  14.056  0.00  0.00    +0.000 A 
ATOM     15 BR   UNL     1       6.553   3.555  12.287  0.00  0.00    +0.000 Br
ATOM     16  C   UNL     1       7.153   5.180  14.605  0.00  0.00    +0.000 A 
ATOM     17  S   UNL     1       6.709   5.481  16.230  0.00  0.00    +0.000 S 
ENDBRANCH  11  12
BRANCH   5  18
ATOM     18  O   UNL     1       2.879   3.323  22.002  0.00  0.00    +0.000 OA
ATOM     19  H   UNL     1       3.827   3.111  21.917  0.00  0.00    +0.000 HD
ENDBRANCH   5  18
TORSDOF 2
ENDMDL
MODEL 5
REMARK VINA RESULT:      -7.0      3.646      5.175
REMARK  Name = 
REMARK  2 active torsions:
REMARK  status: ('A' for Active; 'I' for Inactive)
REMARK    1  A    between atoms: C_5  and  O_6
REMARK    2  A    between atoms: C_12  and  C_13
REMARK                            x       y       z     vdW  Elec       q    Type
REMARK                         _______ _______ _______ _____ _____    ______ ____
ROOT
ATOM      1  O   UNL     1       1.717   5.239  20.463  0.00  0.00    +0.000 OA
ATOM      2  C   UNL     1       2.384   5.557  19.485  0.00  0.00    +0.000 A 
ATOM      3  O   UNL     1       3.080   4.594  18.756  0.00  0.00    +0.000 OA
ATOM      4  C   UNL     1       3.937   4.948  17.697  0.00  0.00    +0.000 A 
ATOM      5  C   UNL     1       4.671   3.934  17.086  0.00  0.00    +0.000 A 
ATOM      6  C   UNL     1       5.574   4.242  16.076  0.00  0.00    +0.000 A 
ATOM      7  C   UNL     1       5.717   5.570  15.665  0.00  0.00    +0.000 A 
ATOM      8  C   UNL     1       4.956   6.581  16.264  0.00  0.00    +0.000 A 
ATOM      9  C   UNL     1       4.065   6.272  17.295  0.00  0.00    +0.000 A 
ATOM     10  C   UNL     1       3.280   7.292  17.971  0.00  0.00    +0.000 A 
ATOM     11  C   UNL     1       2.494   6.964  19.009  0.00  0.00    +0.000 A 
ENDROOT
BRANCH  11  12
ATOM     12  C   UNL     1       1.770   7.996  19.672  0.00  0.00    +0.000 A 
ATOM     13  C   UNL     1       1.330   8.048  20.988  0.00  0.00    +0.000 A 
ATOM     14  C   UNL     1       0.642   9.253  21.271  0.00  0.00    +0.000 A 
ATOM     15 BR   UNL     1      -0.074   9.616  22.979  0.00  0.00    +0.000 Br
ATOM     16  C   UNL     1       0.560  10.099  20.197  0.00  0.00    +0.000 A 
ATOM     17  S   UNL     1       1.324   9.429  18.820  0.00  0.00    +0.000 S 
ENDBRANCH  11  12
BRANCH   5  18
ATOM     18  O   UNL     1       4.532   2.628  17.454  0.00  0.00    +0.000 OA
ATOM     19  H   UNL     1       4.511   2.099  16.635  0.00  0.00    +0.000 HD
ENDBRANCH   5  18
TORSDOF 2
ENDMDL
MODEL 6
REMARK VINA RESULT:      -6.9      3.754      6.837
REMARK  Name = 
REMARK  2 active torsions:
REMARK  status: ('A' for Active; 'I' for Inactive)
REMARK    1  A    between atoms: C_5  and  O_6
REMARK    2  A    between atoms: C_12  and  C_13
REMARK                            x       y       z     vdW  Elec       q    Type
REMARK                         _______ _______ _______ _____ _____    ______ ____
ROOT
ATOM      1  O   UNL     1       4.567   4.396  19.127  0.00  0.00    +0.000 OA
ATOM      2  C   UNL     1       4.079   5.478  18.820  0.00  0.00    +0.000 A 
ATOM      3  O   UNL     1       3.237   6.154  19.702  0.00  0.00    +0.000 OA
ATOM      4  C   UNL     1       2.581   7.342  19.330  0.00  0.00    +0.000 A 
ATOM      5  C   UNL     1       1.680   7.900  20.234  0.00  0.00    +0.000 A 
ATOM      6  C   UNL     1       0.965   9.039  19.888  0.00  0.00    +0.000 A 
ATOM      7  C   UNL     1       1.178   9.631  18.640  0.00  0.00    +0.000 A 
ATOM      8  C   UNL     1       2.105   9.083  17.747  0.00  0.00    +0.000 A 
ATOM      9  C   UNL     1       2.807   7.923  18.088  0.00  0.00    +0.000 A 
ATOM     10  C   UNL     1       3.753   7.297  17.179  0.00  0.00    +0.000 A 
ATOM     11  C   UNL     1       4.349   6.141  17.513  0.00  0.00    +0.000 A 
ENDROOT
BRANCH  11  12
ATOM     12  C   UNL     1       5.241   5.536  16.581  0.00  0.00    +0.000 A 
ATOM     13  C   UNL     1       4.958   4.950  15.355  0.00  0.00    +0.000 A 
ATOM     14  C   UNL     1       6.125   4.460  14.719  0.00  0.00    +0.000 A 
ATOM     15 BR   UNL     1       6.061   3.611  13.035  0.00  0.00    +0.000 Br
ATOM     16  C   UNL     1       7.269   4.667  15.444  0.00  0.00    +0.000 A 
ATOM     17  S   UNL     1       6.931   5.466  16.919  0.00  0.00    +0.000 S 
ENDBRANCH  11  12
BRANCH   5  18
ATOM     18  O   UNL     1       1.472   7.353  21.466  0.00  0.00    +0.000 OA
ATOM     19  H   UNL     1       0.803   7.903  21.915  0.00  0.00    +0.000 HD
ENDBRANCH   5  18
TORSDOF 2
ENDMDL
MODEL 7
REMARK VINA RESULT:      -6.8      3.532      6.859
REMARK  Name = 
REMARK  2 active torsions:
REMARK  status: ('A' for Active; 'I' for Inactive)
REMARK    1  A    between atoms: C_5  and  O_6
REMARK    2  A    between atoms: C_12  and  C_13
REMARK                            x       y       z     vdW  Elec       q    Type
REMARK                         _______ _______ _______ _____ _____    ______ ____
ROOT
ATOM      1  O   UNL     1       4.271   2.413  17.564  0.00  0.00    +0.000 OA
ATOM      2  C   UNL     1       3.977   3.547  17.928  0.00  0.00    +0.000 A 
ATOM      3  O   UNL     1       3.175   3.748  19.051  0.00  0.00    +0.000 OA
ATOM      4  C   UNL     1       2.737   5.032  19.423  0.00  0.00    +0.000 A 
ATOM      5  C   UNL     1       1.857   5.134  20.498  0.00  0.00    +0.000 A 
ATOM      6  C   UNL     1       1.350   6.374  20.865  0.00  0.00    +0.000 A 
ATOM      7  C   UNL     1       1.752   7.515  20.165  0.00  0.00    +0.000 A 
ATOM      8  C   UNL     1       2.658   7.409  19.103  0.00  0.00    +0.000 A 
ATOM      9  C   UNL     1       3.148   6.158  18.720  0.00  0.00    +0.000 A 
ATOM     10  C   UNL     1       4.063   5.995  17.601  0.00  0.00    +0.000 A 
ATOM     11  C   UNL     1       4.449   4.768  17.217  0.00  0.00    +0.000 A 
ENDROOT
BRANCH  11  12
ATOM     12  C   UNL     1       5.315   4.644  16.092  0.00  0.00    +0.000 A 
ATOM     13  C   UNL     1       5.070   4.048  14.863  0.00  0.00    +0.000 A 
ATOM     14  C   UNL     1       6.189   4.132  13.999  0.00  0.00    +0.000 A 
ATOM     15 BR   UNL     1       6.161   3.412  12.255  0.00  0.00    +0.000 Br
ATOM     16  C   UNL     1       7.261   4.777  14.558  0.00  0.00    +0.000 A 
ATOM     17  S   UNL     1       6.914   5.289  16.153  0.00  0.00    +0.000 S 
ENDBRANCH  11  12
BRANCH   5  18
ATOM     18  O   UNL     1       1.468   4.038  21.211  0.00  0.00    +0.000 OA
ATOM     19  H   UNL     1       1.259   4.343  22.114  0.00  0.00    +0.000 HD
ENDBRANCH   5  18
TORSDOF 2
ENDMDL
MODEL 8
REMARK VINA RESULT:      -6.5      4.162      7.212
REMARK  Name = 
REMARK  2 active torsions:
REMARK  status: ('A' for Active; 'I' for Inactive)
REMARK    1  A    between atoms: C_5  and  O_6
REMARK    2  A    between atoms: C_12  and  C_13
REMARK                            x       y       z     vdW  Elec       q    Type
REMARK                         _______ _______ _______ _____ _____    ______ ____
ROOT
ATOM      1  O   UNL     1       3.459   4.948  19.950  0.00  0.00    +0.000 OA
ATOM      2  C   UNL     1       3.152   6.046  19.500  0.00  0.00    +0.000 A 
ATOM      3  O   UNL     1       2.220   6.848  20.157  0.00  0.00    +0.000 OA
ATOM      4  C   UNL     1       1.773   8.063  19.604  0.00  0.00    +0.000 A 
ATOM      5  C   UNL     1       0.767   8.754  20.274  0.00  0.00    +0.000 A 
ATOM      6  C   UNL     1       0.252   9.926  19.737  0.00  0.00    +0.000 A 
ATOM      7  C   UNL     1       0.771  10.417  18.536  0.00  0.00    +0.000 A 
ATOM      8  C   UNL     1       1.802   9.733  17.880  0.00  0.00    +0.000 A 
ATOM      9  C   UNL     1       2.302   8.541  18.411  0.00  0.00    +0.000 A 
ATOM     10  C   UNL     1       3.347   7.778  17.747  0.00  0.00    +0.000 A 
ATOM     11  C   UNL     1       3.745   6.598  18.249  0.00  0.00    +0.000 A 
ENDROOT
BRANCH  11  12
ATOM     12  C   UNL     1       4.744   5.859  17.552  0.00  0.00    +0.000 A 
ATOM     13  C   UNL     1       4.726   5.381  16.248  0.00  0.00    +0.000 A 
ATOM     14  C   UNL     1       5.918   4.691  15.919  0.00  0.00    +0.000 A 
ATOM     15 BR   UNL     1       6.191   3.927  14.216  0.00  0.00    +0.000 Br
ATOM     16  C   UNL     1       6.822   4.644  16.948  0.00  0.00    +0.000 A 
ATOM     17  S   UNL     1       6.223   5.445  18.337  0.00  0.00    +0.000 S 
ENDBRANCH  11  12
BRANCH   5  18
ATOM     18  O   UNL     1       0.260   8.307  21.460  0.00  0.00    +0.000 OA
ATOM     19  H   UNL     1       0.855   8.624  22.164  0.00  0.00    +0.000 HD
ENDBRANCH   5  18
TORSDOF 2
ENDMDL
MODEL 9
REMARK VINA RESULT:      -6.4      3.977      5.334
REMARK  Name = 
REMARK  2 active torsions:
REMARK  status: ('A' for Active; 'I' for Inactive)
REMARK    1  A    between atoms: C_5  and  O_6
REMARK    2  A    between atoms: C_12  and  C_13
REMARK                            x       y       z     vdW  Elec       q    Type
REMARK                         _______ _______ _______ _____ _____    ______ ____
ROOT
ATOM      1  O   UNL     1       1.657   5.492  20.132  0.00  0.00    +0.000 OA
ATOM      2  C   UNL     1       2.394   5.732  19.183  0.00  0.00    +0.000 A 
ATOM      3  O   UNL     1       3.107   4.710  18.560  0.00  0.00    +0.000 OA
ATOM      4  C   UNL     1       4.040   4.977  17.541  0.00  0.00    +0.000 A 
ATOM      5  C   UNL     1       4.783   3.910  17.041  0.00  0.00    +0.000 A 
ATOM      6  C   UNL     1       5.757   4.133  16.076  0.00  0.00    +0.000 A 
ATOM      7  C   UNL     1       5.964   5.429  15.597  0.00  0.00    +0.000 A 
ATOM      8  C   UNL     1       5.195   6.494  16.083  0.00  0.00    +0.000 A 
ATOM      9  C   UNL     1       4.232   6.270  17.069  0.00  0.00    +0.000 A 
ATOM     10  C   UNL     1       3.434   7.349  17.630  0.00  0.00    +0.000 A 
ATOM     11  C   UNL     1       2.575   7.105  18.632  0.00  0.00    +0.000 A 
ENDROOT
BRANCH  11  12
ATOM     12  C   UNL     1       1.838   8.193  19.183  0.00  0.00    +0.000 A 
ATOM     13  C   UNL     1       1.306   9.303  18.540  0.00  0.00    +0.000 A 
ATOM     14  C   UNL     1       0.634  10.166  19.440  0.00  0.00    +0.000 A 
ATOM     15 BR   UNL     1      -0.195  11.759  18.862  0.00  0.00    +0.000 Br
ATOM     16  C   UNL     1       0.654   9.724  20.737  0.00  0.00    +0.000 A 
ATOM     17  S   UNL     1       1.500   8.243  20.874  0.00  0.00    +0.000 S 
ENDBRANCH  11  12
BRANCH   5  18
ATOM     18  O   UNL     1       4.583   2.632  17.477  0.00  0.00    +0.000 OA
ATOM     19  H   UNL     1       5.410   2.142  17.314  0.00  0.00    +0.000 HD
ENDBRANCH   5  18
TORSDOF 2
ENDMDL
