MODEL 1
REMARK VINA RESULT:      -6.9      0.000      0.000
REMARK  Name = 
REMARK  8 active torsions:
REMARK  status: ('A' for Active; 'I' for Inactive)
REMARK    1  A    between atoms: C_1  and  C_2
REMARK    2  A    between atoms: C_2  and  C_3
REMARK    3  A    between atoms: C_3  and  C_4
REMARK    4  A    between atoms: C_3  and  C_5
REMARK    5  A    between atoms: C_7  and  C_8
REMARK    6  A    between atoms: C_8  and  O_9
REMARK    7  A    between atoms: C_8  and  C_10
REMARK    8  A    between atoms: C_16  and  O_17
REMARK                            x       y       z     vdW  Elec       q    Type
REMARK                         _______ _______ _______ _____ _____    ______ ____
ROOT
ATOM      1  C   UNL     1       2.948   4.722  19.046  0.00  0.00    +0.000 A 
ATOM      2  C   UNL     1       4.272   5.157  19.231  0.00  0.00    +0.000 A 
ATOM      3  C   UNL     1       5.264   4.934  18.263  0.00  0.00    +0.000 A 
ATOM      4  C   UNL     1       4.916   4.258  17.086  0.00  0.00    +0.000 A 
ATOM      5  C   UNL     1       3.605   3.836  16.876  0.00  0.00    +0.000 A 
ATOM      6  C   UNL     1       2.633   4.067  17.846  0.00  0.00    +0.000 A 
ENDROOT
BRANCH   1   7
ATOM      7  C   UNL     1       1.905   4.931  20.135  0.00  0.00    +0.000 C 
ATOM      8  C   UNL     1       1.829   6.412  20.533  0.00  0.00    +0.000 C 
BRANCH   7  10
ATOM      9  C   UNL     1       1.394   2.739  21.364  0.00  0.00    +0.000 C 
ATOM     10  C   UNL     1       2.159   4.058  21.382  0.00  0.00    +0.000 C 
ENDBRANCH   7  10
ENDBRANCH   1   7
BRANCH   6  11
ATOM     11  O   UNL     1       1.350   3.647  17.635  0.00  0.00    +0.000 OA
ATOM     12  H   UNL     1       1.330   3.092  16.839  0.00  0.00    +0.000 HD
ENDBRANCH   6  11
BRANCH   3  13
ATOM     13  C   UNL     1       6.683   5.404  18.516  0.00  0.00    +0.000 C 
BRANCH  13  14
ATOM     14  C   UNL     1       7.117   6.633  17.677  0.00  0.00    +0.000 C 
ATOM     15  F   UNL     1       7.619   6.310  16.464  0.00  0.00    +0.000 F 
ATOM     16  F   UNL     1       6.078   7.475  17.470  0.00  0.00    +0.000 F 
ATOM     17  F   UNL     1       8.084   7.333  18.325  0.00  0.00    +0.000 F 
ENDBRANCH  13  14
BRANCH  13  18
ATOM     18  O   UNL     1       7.543   4.255  18.358  0.00  0.00    +0.000 OA
ATOM     19  H   UNL     1       7.550   3.779  19.207  0.00  0.00    +0.000 HD
ENDBRANCH  13  18
ENDBRANCH   3  13
TORSDOF 6
ENDMDL
MODEL 2
REMARK VINA RESULT:      -6.7      2.976      5.520
REMARK  Name = 
REMARK  8 active torsions:
REMARK  status: ('A' for Active; 'I' for Inactive)
REMARK    1  A    between atoms: C_1  and  C_2
REMARK    2  A    between atoms: C_2  and  C_3
REMARK    3  A    between atoms: C_3  and  C_4
REMARK    4  A    between atoms: C_3  and  C_5
REMARK    5  A    between atoms: C_7  and  C_8
REMARK    6  A    between atoms: C_8  and  O_9
REMARK    7  A    between atoms: C_8  and  C_10
REMARK    8  A    between atoms: C_16  and  O_17
REMARK                            x       y       z     vdW  Elec       q    Type
REMARK                         _______ _______ _______ _____ _____    ______ ____
ROOT
ATOM      1  C   UNL     1       6.597   5.544  17.141  0.00  0.00    +0.000 A 
ATOM      2  C   UNL     1       5.547   5.114  17.973  0.00  0.00    +0.000 A 
ATOM      3  C   UNL     1       4.515   4.294  17.494  0.00  0.00    +0.000 A 
ATOM      4  C   UNL     1       4.538   3.898  16.150  0.00  0.00    +0.000 A 
ATOM      5  C   UNL     1       5.579   4.298  15.314  0.00  0.00    +0.000 A 
ATOM      6  C   UNL     1       6.596   5.111  15.807  0.00  0.00    +0.000 A 
ENDROOT
BRANCH   1   7
ATOM      7  C   UNL     1       7.675   6.477  17.674  0.00  0.00    +0.000 C 
ATOM      8  C   UNL     1       7.985   6.161  19.144  0.00  0.00    +0.000 C 
BRANCH   7  10
ATOM      9  C   UNL     1       8.347   8.914  18.107  0.00  0.00    +0.000 C 
ATOM     10  C   UNL     1       7.307   7.968  17.517  0.00  0.00    +0.000 C 
ENDBRANCH   7  10
ENDBRANCH   1   7
BRANCH   6  11
ATOM     11  O   UNL     1       7.612   5.503  14.981  0.00  0.00    +0.000 OA
ATOM     12  H   UNL     1       7.249   5.667  14.096  0.00  0.00    +0.000 HD
ENDBRANCH   6  11
BRANCH   3  13
ATOM     13  C   UNL     1       3.395   3.872  18.424  0.00  0.00    +0.000 C 
BRANCH  13  14
ATOM     14  C   UNL     1       2.084   4.686  18.271  0.00  0.00    +0.000 C 
ATOM     15  F   UNL     1       1.293   4.648  19.365  0.00  0.00    +0.000 F 
ATOM     16  F   UNL     1       2.347   5.988  18.010  0.00  0.00    +0.000 F 
ATOM     17  F   UNL     1       1.345   4.206  17.238  0.00  0.00    +0.000 F 
ENDBRANCH  13  14
BRANCH  13  18
ATOM     18  O   UNL     1       3.933   3.878  19.764  0.00  0.00    +0.000 OA
ATOM     19  H   UNL     1       3.228   4.187  20.359  0.00  0.00    +0.000 HD
ENDBRANCH  13  18
ENDBRANCH   3  13
TORSDOF 6
ENDMDL
MODEL 3
REMARK VINA RESULT:      -6.6      3.221      5.679
REMARK  Name = 
REMARK  8 active torsions:
REMARK  status: ('A' for Active; 'I' for Inactive)
REMARK    1  A    between atoms: C_1  and  C_2
REMARK    2  A    between atoms: C_2  and  C_3
REMARK    3  A    between atoms: C_3  and  C_4
REMARK    4  A    between atoms: C_3  and  C_5
REMARK    5  A    between atoms: C_7  and  C_8
REMARK    6  A    between atoms: C_8  and  O_9
REMARK    7  A    between atoms: C_8  and  C_10
REMARK    8  A    between atoms: C_16  and  O_17
REMARK                            x       y       z     vdW  Elec       q    Type
REMARK                         _______ _______ _______ _____ _____    ______ ____
ROOT
ATOM      1  C   UNL     1       6.582   5.402  16.999  0.00  0.00    +0.000 A 
ATOM      2  C   UNL     1       5.482   4.912  17.725  0.00  0.00    +0.000 A 
ATOM      3  C   UNL     1       4.516   4.086  17.132  0.00  0.00    +0.000 A 
ATOM      4  C   UNL     1       4.658   3.746  15.780  0.00  0.00    +0.000 A 
ATOM      5  C   UNL     1       5.752   4.205  15.048  0.00  0.00    +0.000 A 
ATOM      6  C   UNL     1       6.702   5.024  15.653  0.00  0.00    +0.000 A 
ENDROOT
BRANCH   1   7
ATOM      7  C   UNL     1       7.587   6.340  17.654  0.00  0.00    +0.000 C 
ATOM      8  C   UNL     1       7.785   5.973  19.131  0.00  0.00    +0.000 C 
BRANCH   7  10
ATOM      9  C   UNL     1       8.265   8.785  18.024  0.00  0.00    +0.000 C 
ATOM     10  C   UNL     1       7.191   7.826  17.523  0.00  0.00    +0.000 C 
ENDBRANCH   7  10
ENDBRANCH   1   7
BRANCH   6  11
ATOM     11  O   UNL     1       7.769   5.474  14.930  0.00  0.00    +0.000 OA
ATOM     12  H   UNL     1       7.440   5.973  14.165  0.00  0.00    +0.000 HD
ENDBRANCH   6  11
BRANCH   3  13
ATOM     13  C   UNL     1       3.336   3.598  17.950  0.00  0.00    +0.000 C 
BRANCH  13  14
ATOM     14  C   UNL     1       3.614   2.330  18.796  0.00  0.00    +0.000 C 
ATOM     15  F   UNL     1       4.695   2.442  19.599  0.00  0.00    +0.000 F 
ATOM     16  F   UNL     1       2.557   2.028  19.586  0.00  0.00    +0.000 F 
ATOM     17  F   UNL     1       3.837   1.260  17.990  0.00  0.00    +0.000 F 
ENDBRANCH  13  14
BRANCH  13  18
ATOM     18  O   UNL     1       2.220   3.463  17.043  0.00  0.00    +0.000 OA
ATOM     19  H   UNL     1       1.591   4.176  17.248  0.00  0.00    +0.000 HD
ENDBRANCH  13  18
ENDBRANCH   3  13
TORSDOF 6
ENDMDL
MODEL 4
REMARK VINA RESULT:      -6.5      3.412      5.909
REMARK  Name = 
REMARK  8 active torsions:
REMARK  status: ('A' for Active; 'I' for Inactive)
REMARK    1  A    between atoms: C_1  and  C_2
REMARK    2  A    between atoms: C_2  and  C_3
REMARK    3  A    between atoms: C_3  and  C_4
REMARK    4  A    between atoms: C_3  and  C_5
REMARK    5  A    between atoms: C_7  and  C_8
REMARK    6  A    between atoms: C_8  and  O_9
REMARK    7  A    between atoms: C_8  and  C_10
REMARK    8  A    between atoms: C_16  and  O_17
REMARK                            x       y       z     vdW  Elec       q    Type
REMARK                         _______ _______ _______ _____ _____    ______ ____
ROOT
ATOM      1  C   UNL     1       4.810   5.010  16.813  0.00  0.00    +0.000 A 
ATOM      2  C   UNL     1       3.728   4.250  17.293  0.00  0.00    +0.000 A 
ATOM      3  C   UNL     1       2.652   4.845  17.970  0.00  0.00    +0.000 A 
ATOM      4  C   UNL     1       2.665   6.231  18.168  0.00  0.00    +0.000 A 
ATOM      5  C   UNL     1       3.718   7.005  17.683  0.00  0.00    +0.000 A 
ATOM      6  C   UNL     1       4.777   6.398  17.013  0.00  0.00    +0.000 A 
ENDROOT
BRANCH   1   7
ATOM      7  C   UNL     1       5.989   4.333  16.129  0.00  0.00    +0.000 C 
ATOM      8  C   UNL     1       7.265   4.494  16.967  0.00  0.00    +0.000 C 
BRANCH   7  10
ATOM      9  C   UNL     1       6.000   3.788  13.623  0.00  0.00    +0.000 C 
ATOM     10  C   UNL     1       6.227   4.849  14.694  0.00  0.00    +0.000 C 
ENDBRANCH   7  10
ENDBRANCH   1   7
BRANCH   6  11
ATOM     11  O   UNL     1       5.809   7.161  16.543  0.00  0.00    +0.000 OA
ATOM     12  H   UNL     1       5.509   8.082  16.474  0.00  0.00    +0.000 HD
ENDBRANCH   6  11
BRANCH   3  13
ATOM     13  C   UNL     1       1.517   3.982  18.486  0.00  0.00    +0.000 C 
BRANCH  13  14
ATOM     14  C   UNL     1       1.475   3.822  20.028  0.00  0.00    +0.000 C 
ATOM     15  F   UNL     1       0.896   2.672  20.437  0.00  0.00    +0.000 F 
ATOM     16  F   UNL     1       2.721   3.855  20.557  0.00  0.00    +0.000 F 
ATOM     17  F   UNL     1       0.769   4.836  20.591  0.00  0.00    +0.000 F 
ENDBRANCH  13  14
BRANCH  13  18
ATOM     18  O   UNL     1       1.580   2.729  17.771  0.00  0.00    +0.000 OA
ATOM     19  H   UNL     1       2.381   2.751  17.217  0.00  0.00    +0.000 HD
ENDBRANCH  13  18
ENDBRANCH   3  13
TORSDOF 6
ENDMDL
MODEL 5
REMARK VINA RESULT:      -6.5      0.774      1.229
REMARK  Name = 
REMARK  8 active torsions:
REMARK  status: ('A' for Active; 'I' for Inactive)
REMARK    1  A    between atoms: C_1  and  C_2
REMARK    2  A    between atoms: C_2  and  C_3
REMARK    3  A    between atoms: C_3  and  C_4
REMARK    4  A    between atoms: C_3  and  C_5
REMARK    5  A    between atoms: C_7  and  C_8
REMARK    6  A    between atoms: C_8  and  O_9
REMARK    7  A    between atoms: C_8  and  C_10
REMARK    8  A    between atoms: C_16  and  O_17
REMARK                            x       y       z     vdW  Elec       q    Type
REMARK                         _______ _______ _______ _____ _____    ______ ____
ROOT
ATOM      1  C   UNL     1       2.840   4.485  18.890  0.00  0.00    +0.000 A 
ATOM      2  C   UNL     1       3.981   5.202  19.291  0.00  0.00    +0.000 A 
ATOM      3  C   UNL     1       5.186   5.131  18.575  0.00  0.00    +0.000 A 
ATOM      4  C   UNL     1       5.244   4.320  17.433  0.00  0.00    +0.000 A 
ATOM      5  C   UNL     1       4.118   3.616  17.009  0.00  0.00    +0.000 A 
ATOM      6  C   UNL     1       2.930   3.700  17.732  0.00  0.00    +0.000 A 
ENDROOT
BRANCH   1   7
ATOM      7  C   UNL     1       1.562   4.540  19.716  0.00  0.00    +0.000 C 
ATOM      8  C   UNL     1       1.605   5.718  20.699  0.00  0.00    +0.000 C 
BRANCH   7  10
ATOM      9  C   UNL     1       2.195   3.013  21.677  0.00  0.00    +0.000 C 
ATOM     10  C   UNL     1       1.282   3.224  20.474  0.00  0.00    +0.000 C 
ENDBRANCH   7  10
ENDBRANCH   1   7
BRANCH   6  11
ATOM     11  O   UNL     1       1.831   3.005  17.313  0.00  0.00    +0.000 OA
ATOM     12  H   UNL     1       1.340   3.551  16.679  0.00  0.00    +0.000 HD
ENDBRANCH   6  11
BRANCH   3  13
ATOM     13  C   UNL     1       6.396   5.907  19.056  0.00  0.00    +0.000 C 
BRANCH  13  14
ATOM     14  C   UNL     1       7.251   6.538  17.928  0.00  0.00    +0.000 C 
ATOM     15  F   UNL     1       8.259   7.315  18.383  0.00  0.00    +0.000 F 
ATOM     16  F   UNL     1       7.803   5.584  17.141  0.00  0.00    +0.000 F 
ATOM     17  F   UNL     1       6.482   7.325  17.132  0.00  0.00    +0.000 F 
ENDBRANCH  13  14
BRANCH  13  18
ATOM     18  O   UNL     1       7.139   5.030  19.931  0.00  0.00    +0.000 OA
ATOM     19  H   UNL     1       6.644   4.194  19.992  0.00  0.00    +0.000 HD
ENDBRANCH  13  18
ENDBRANCH   3  13
TORSDOF 6
ENDMDL
MODEL 6
REMARK VINA RESULT:      -6.4      3.170      5.581
REMARK  Name = 
REMARK  8 active torsions:
REMARK  status: ('A' for Active; 'I' for Inactive)
REMARK    1  A    between atoms: C_1  and  C_2
REMARK    2  A    between atoms: C_2  and  C_3
REMARK    3  A    between atoms: C_3  and  C_4
REMARK    4  A    between atoms: C_3  and  C_5
REMARK    5  A    between atoms: C_7  and  C_8
REMARK    6  A    between atoms: C_8  and  O_9
REMARK    7  A    between atoms: C_8  and  C_10
REMARK    8  A    between atoms: C_16  and  O_17
REMARK                            x       y       z     vdW  Elec       q    Type
REMARK                         _______ _______ _______ _____ _____    ______ ____
ROOT
ATOM      1  C   UNL     1       6.511   5.539  17.472  0.00  0.00    +0.000 A 
ATOM      2  C   UNL     1       5.460   5.387  18.395  0.00  0.00    +0.000 A 
ATOM      3  C   UNL     1       4.344   4.584  18.115  0.00  0.00    +0.000 A 
ATOM      4  C   UNL     1       4.283   3.921  16.882  0.00  0.00    +0.000 A 
ATOM      5  C   UNL     1       5.323   4.043  15.962  0.00  0.00    +0.000 A 
ATOM      6  C   UNL     1       6.423   4.844  16.257  0.00  0.00    +0.000 A 
ENDROOT
BRANCH   1   7
ATOM      7  C   UNL     1       7.684   6.458  17.780  0.00  0.00    +0.000 C 
ATOM      8  C   UNL     1       8.136   6.288  19.237  0.00  0.00    +0.000 C 
BRANCH   7  10
ATOM      9  C   UNL     1       8.346   8.907  18.160  0.00  0.00    +0.000 C 
ATOM     10  C   UNL     1       7.374   7.942  17.490  0.00  0.00    +0.000 C 
ENDBRANCH   7  10
ENDBRANCH   1   7
BRANCH   6  11
ATOM     11  O   UNL     1       7.438   4.962  15.350  0.00  0.00    +0.000 OA
ATOM     12  H   UNL     1       8.279   4.773  15.796  0.00  0.00    +0.000 HD
ENDBRANCH   6  11
BRANCH   3  13
ATOM     13  C   UNL     1       3.226   4.467  19.133  0.00  0.00    +0.000 C 
BRANCH  13  14
ATOM     14  C   UNL     1       1.821   4.222  18.526  0.00  0.00    +0.000 C 
ATOM     15  F   UNL     1       1.733   3.082  17.806  0.00  0.00    +0.000 F 
ATOM     16  F   UNL     1       0.876   4.159  19.494  0.00  0.00    +0.000 F 
ATOM     17  F   UNL     1       1.480   5.238  17.692  0.00  0.00    +0.000 F 
ENDBRANCH  13  14
BRANCH  13  18
ATOM     18  O   UNL     1       3.302   5.634  19.980  0.00  0.00    +0.000 OA
ATOM     19  H   UNL     1       2.540   6.199  19.764  0.00  0.00    +0.000 HD
ENDBRANCH  13  18
ENDBRANCH   3  13
TORSDOF 6
ENDMDL
MODEL 7
REMARK VINA RESULT:      -6.4      3.102      5.623
REMARK  Name = 
REMARK  8 active torsions:
REMARK  status: ('A' for Active; 'I' for Inactive)
REMARK    1  A    between atoms: C_1  and  C_2
REMARK    2  A    between atoms: C_2  and  C_3
REMARK    3  A    between atoms: C_3  and  C_4
REMARK    4  A    between atoms: C_3  and  C_5
REMARK    5  A    between atoms: C_7  and  C_8
REMARK    6  A    between atoms: C_8  and  O_9
REMARK    7  A    between atoms: C_8  and  C_10
REMARK    8  A    between atoms: C_16  and  O_17
REMARK                            x       y       z     vdW  Elec       q    Type
REMARK                         _______ _______ _______ _____ _____    ______ ____
ROOT
ATOM      1  C   UNL     1       6.495   5.455  17.080  0.00  0.00    +0.000 A 
ATOM      2  C   UNL     1       5.348   5.093  17.810  0.00  0.00    +0.000 A 
ATOM      3  C   UNL     1       4.337   4.299  17.248  0.00  0.00    +0.000 A 
ATOM      4  C   UNL     1       4.481   3.861  15.925  0.00  0.00    +0.000 A 
ATOM      5  C   UNL     1       5.618   4.193  15.191  0.00  0.00    +0.000 A 
ATOM      6  C   UNL     1       6.613   4.981  15.765  0.00  0.00    +0.000 A 
ENDROOT
BRANCH   1   7
ATOM      7  C   UNL     1       7.551   6.361  17.697  0.00  0.00    +0.000 C 
ATOM      8  C   UNL     1       7.793   5.986  19.165  0.00  0.00    +0.000 C 
BRANCH   7  10
ATOM      9  C   UNL     1       8.311   8.784  18.053  0.00  0.00    +0.000 C 
ATOM     10  C   UNL     1       7.195   7.859  17.582  0.00  0.00    +0.000 C 
ENDBRANCH   7  10
ENDBRANCH   1   7
BRANCH   6  11
ATOM     11  O   UNL     1       7.724   5.306  15.039  0.00  0.00    +0.000 OA
ATOM     12  H   UNL     1       7.995   4.532  14.521  0.00  0.00    +0.000 HD
ENDBRANCH   6  11
BRANCH   3  13
ATOM     13  C   UNL     1       3.109   3.950  18.067  0.00  0.00    +0.000 C 
BRANCH  13  14
ATOM     14  C   UNL     1       3.319   2.809  19.095  0.00  0.00    +0.000 C 
ATOM     15  F   UNL     1       2.184   2.141  19.401  0.00  0.00    +0.000 F 
ATOM     16  F   UNL     1       4.210   1.897  18.637  0.00  0.00    +0.000 F 
ATOM     17  F   UNL     1       3.808   3.303  20.261  0.00  0.00    +0.000 F 
ENDBRANCH  13  14
BRANCH  13  18
ATOM     18  O   UNL     1       2.034   3.707  17.134  0.00  0.00    +0.000 OA
ATOM     19  H   UNL     1       1.255   3.442  17.653  0.00  0.00    +0.000 HD
ENDBRANCH  13  18
ENDBRANCH   3  13
TORSDOF 6
ENDMDL
MODEL 8
REMARK VINA RESULT:      -6.3      3.392      5.702
REMARK  Name = 
REMARK  8 active torsions:
REMARK  status: ('A' for Active; 'I' for Inactive)
REMARK    1  A    between atoms: C_1  and  C_2
REMARK    2  A    between atoms: C_2  and  C_3
REMARK    3  A    between atoms: C_3  and  C_4
REMARK    4  A    between atoms: C_3  and  C_5
REMARK    5  A    between atoms: C_7  and  C_8
REMARK    6  A    between atoms: C_8  and  O_9
REMARK    7  A    between atoms: C_8  and  C_10
REMARK    8  A    between atoms: C_16  and  O_17
REMARK                            x       y       z     vdW  Elec       q    Type
REMARK                         _______ _______ _______ _____ _____    ______ ____
ROOT
ATOM      1  C   UNL     1       4.920   5.340  16.950  0.00  0.00    +0.000 A 
ATOM      2  C   UNL     1       3.972   4.342  17.236  0.00  0.00    +0.000 A 
ATOM      3  C   UNL     1       2.744   4.644  17.846  0.00  0.00    +0.000 A 
ATOM      4  C   UNL     1       2.466   5.977  18.175  0.00  0.00    +0.000 A 
ATOM      5  C   UNL     1       3.385   6.984  17.883  0.00  0.00    +0.000 A 
ATOM      6  C   UNL     1       4.597   6.666  17.276  0.00  0.00    +0.000 A 
ENDROOT
BRANCH   1   7
ATOM      7  C   UNL     1       6.265   4.977  16.337  0.00  0.00    +0.000 C 
ATOM      8  C   UNL     1       6.084   3.962  15.200  0.00  0.00    +0.000 C 
BRANCH   7  10
ATOM      9  C   UNL     1       7.650   5.461  18.441  0.00  0.00    +0.000 C 
ATOM     10  C   UNL     1       7.271   4.437  17.376  0.00  0.00    +0.000 C 
ENDBRANCH   7  10
ENDBRANCH   1   7
BRANCH   6  11
ATOM     11  O   UNL     1       5.495   7.656  16.995  0.00  0.00    +0.000 OA
ATOM     12  H   UNL     1       6.340   7.442  17.423  0.00  0.00    +0.000 HD
ENDBRANCH   6  11
BRANCH   3  13
ATOM     13  C   UNL     1       1.761   3.531  18.153  0.00  0.00    +0.000 C 
BRANCH  13  14
ATOM     14  C   UNL     1       1.590   3.216  19.661  0.00  0.00    +0.000 C 
ATOM     15  F   UNL     1       0.569   3.887  20.241  0.00  0.00    +0.000 F 
ATOM     16  F   UNL     1       1.368   1.896  19.862  0.00  0.00    +0.000 F 
ATOM     17  F   UNL     1       2.714   3.548  20.346  0.00  0.00    +0.000 F 
ENDBRANCH  13  14
BRANCH  13  18
ATOM     18  O   UNL     1       2.153   2.391  17.358  0.00  0.00    +0.000 OA
ATOM     19  H   UNL     1       1.525   2.323  16.618  0.00  0.00    +0.000 HD
ENDBRANCH  13  18
ENDBRANCH   3  13
TORSDOF 6
ENDMDL
MODEL 9
REMARK VINA RESULT:      -6.3      2.588      3.181
REMARK  Name = 
REMARK  8 active torsions:
REMARK  status: ('A' for Active; 'I' for Inactive)
REMARK    1  A    between atoms: C_1  and  C_2
REMARK    2  A    between atoms: C_2  and  C_3
REMARK    3  A    between atoms: C_3  and  C_4
REMARK    4  A    between atoms: C_3  and  C_5
REMARK    5  A    between atoms: C_7  and  C_8
REMARK    6  A    between atoms: C_8  and  O_9
REMARK    7  A    between atoms: C_8  and  C_10
REMARK    8  A    between atoms: C_16  and  O_17
REMARK                            x       y       z     vdW  Elec       q    Type
REMARK                         _______ _______ _______ _____ _____    ______ ____
ROOT
ATOM      1  C   UNL     1       3.900   4.593  18.296  0.00  0.00    +0.000 A 
ATOM      2  C   UNL     1       5.032   4.412  17.480  0.00  0.00    +0.000 A 
ATOM      3  C   UNL     1       5.589   5.471  16.747  0.00  0.00    +0.000 A 
ATOM      4  C   UNL     1       4.994   6.737  16.834  0.00  0.00    +0.000 A 
ATOM      5  C   UNL     1       3.883   6.941  17.650  0.00  0.00    +0.000 A 
ATOM      6  C   UNL     1       3.345   5.879  18.373  0.00  0.00    +0.000 A 
ENDROOT
BRANCH   1   7
ATOM      7  C   UNL     1       3.286   3.415  19.039  0.00  0.00    +0.000 C 
ATOM      8  C   UNL     1       4.383   2.522  19.636  0.00  0.00    +0.000 C 
BRANCH   7  10
ATOM      9  C   UNL     1       0.926   2.466  18.713  0.00  0.00    +0.000 C 
ATOM     10  C   UNL     1       2.340   2.576  18.154  0.00  0.00    +0.000 C 
ENDBRANCH   7  10
ENDBRANCH   1   7
BRANCH   6  11
ATOM     11  O   UNL     1       2.254   6.084  19.169  0.00  0.00    +0.000 OA
ATOM     12  H   UNL     1       1.678   6.740  18.745  0.00  0.00    +0.000 HD
ENDBRANCH   6  11
BRANCH   3  13
ATOM     13  C   UNL     1       6.798   5.224  15.866  0.00  0.00    +0.000 C 
BRANCH  13  14
ATOM     14  C   UNL     1       6.472   4.638  14.468  0.00  0.00    +0.000 C 
ATOM     15  F   UNL     1       6.583   3.293  14.405  0.00  0.00    +0.000 F 
ATOM     16  F   UNL     1       5.212   4.955  14.087  0.00  0.00    +0.000 F 
ATOM     17  F   UNL     1       7.317   5.143  13.533  0.00  0.00    +0.000 F 
ENDBRANCH  13  14
BRANCH  13  18
ATOM     18  O   UNL     1       7.723   4.423  16.634  0.00  0.00    +0.000 OA
ATOM     19  H   UNL     1       8.416   5.020  16.966  0.00  0.00    +0.000 HD
ENDBRANCH  13  18
ENDBRANCH   3  13
TORSDOF 6
ENDMDL
