MODEL 1
REMARK VINA RESULT:      -7.8      0.000      0.000
REMARK  Name = 
REMARK  9 active torsions:
REMARK  status: ('A' for Active; 'I' for Inactive)
REMARK    1  A    between atoms: N_1  and  C_2
REMARK    2  A    between atoms: C_2  and  C_3
REMARK    3  A    between atoms: C_2  and  C_19
REMARK    4  A    between atoms: C_3  and  C_4
REMARK    5  A    between atoms: C_4  and  N_5
REMARK    6  A    between atoms: N_5  and  C_6
REMARK    7  A    between atoms: C_6  and  C_7
REMARK    8  A    between atoms: C_10  and  C_11
REMARK    9  A    between atoms: C_19  and  C_20
REMARK                            x       y       z     vdW  Elec       q    Type
REMARK                         _______ _______ _______ _____ _____    ______ ____
ROOT
ATOM      1  C   UNL     1       5.838   6.097  17.137  0.00  0.00    +0.000 C 
ENDROOT
BRANCH   1   2
ATOM      2  N   UNL     1       5.015   7.288  17.379  0.00  0.00    +0.000 NA
ATOM      3  H   UNL     1       5.318   8.044  16.720  0.00  0.00    +0.000 HD
BRANCH   2   4
ATOM      4  C   UNL     1       3.600   6.997  17.126  0.00  0.00    +0.000 C 
BRANCH   4   5
ATOM      5  C   UNL     1       2.744   7.689  18.150  0.00  0.00    +0.000 A 
ATOM      6  C   UNL     1       2.526   7.115  19.410  0.00  0.00    +0.000 A 
ATOM      7  C   UNL     1       1.737   7.771  20.359  0.00  0.00    +0.000 A 
ATOM      8  C   UNL     1       1.158   9.028  20.078  0.00  0.00    +0.000 A 
ATOM      9  C   UNL     1       1.384   9.589  18.802  0.00  0.00    +0.000 A 
ATOM     10  C   UNL     1       2.161   8.924  17.852  0.00  0.00    +0.000 A 
BRANCH   8  11
ATOM     11  C   UNL     1       0.346   9.754  21.113  0.00  0.00    +0.000 A 
ATOM     12  C   UNL     1      -0.572  10.760  20.742  0.00  0.00    +0.000 A 
ATOM     13  C   UNL     1      -1.299  11.451  21.710  0.00  0.00    +0.000 A 
ATOM     14  C   UNL     1      -1.125  11.134  23.053  0.00  0.00    +0.000 A 
ATOM     15  N   UNL     1      -0.250  10.161  23.410  0.00  0.00    +0.000 NA
ATOM     16  C   UNL     1       0.483   9.478  22.491  0.00  0.00    +0.000 A 
ENDBRANCH   8  11
ENDBRANCH   4   5
ENDBRANCH   2   4
ENDBRANCH   1   2
BRANCH   1  17
ATOM     17  C   UNL     1       5.305   4.890  17.929  0.00  0.00    +0.000 C 
BRANCH  17  18
ATOM     18  C   UNL     1       4.842   3.689  17.058  0.00  0.00    +0.000 C 
BRANCH  18  19
ATOM     19  N   UNL     1       5.343   3.853  15.691  0.00  0.00    +0.000 NA
ATOM     20  H   UNL     1       4.560   4.158  15.067  0.00  0.00    +0.000 HD
ATOM     21  H   UNL     1       5.713   2.940  15.332  0.00  0.00    +0.000 HD
ENDBRANCH  18  19
BRANCH  18  22
ATOM     22  C   UNL     1       3.301   3.549  17.037  0.00  0.00    +0.000 C 
BRANCH  22  23
ATOM     23  C   UNL     1       2.684   3.328  18.403  0.00  0.00    +0.000 A 
ATOM     24  C   UNL     1       1.366   3.748  18.661  0.00  0.00    +0.000 A 
ATOM     25  C   UNL     1       0.806   3.589  19.934  0.00  0.00    +0.000 A 
ATOM     26  C   UNL     1       1.552   3.002  20.961  0.00  0.00    +0.000 A 
ATOM     27  F   UNL     1       1.013   2.857  22.197  0.00  0.00    +0.000 F 
ATOM     28  C   UNL     1       2.861   2.573  20.714  0.00  0.00    +0.000 A 
ATOM     29  F   UNL     1       3.589   2.008  21.709  0.00  0.00    +0.000 F 
ATOM     30  C   UNL     1       3.425   2.736  19.443  0.00  0.00    +0.000 A 
ENDBRANCH  22  23
ENDBRANCH  18  22
ENDBRANCH  17  18
ENDBRANCH   1  17
TORSDOF 9
ENDMDL
MODEL 2
REMARK VINA RESULT:      -7.7      3.171      4.453
REMARK  Name = 
REMARK  9 active torsions:
REMARK  status: ('A' for Active; 'I' for Inactive)
REMARK    1  A    between atoms: N_1  and  C_2
REMARK    2  A    between atoms: C_2  and  C_3
REMARK    3  A    between atoms: C_2  and  C_19
REMARK    4  A    between atoms: C_3  and  C_4
REMARK    5  A    between atoms: C_4  and  N_5
REMARK    6  A    between atoms: N_5  and  C_6
REMARK    7  A    between atoms: C_6  and  C_7
REMARK    8  A    between atoms: C_10  and  C_11
REMARK    9  A    between atoms: C_19  and  C_20
REMARK                            x       y       z     vdW  Elec       q    Type
REMARK                         _______ _______ _______ _____ _____    ______ ____
ROOT
ATOM      1  C   UNL     1       1.236   3.890  19.884  0.00  0.00    +0.000 C 
ENDROOT
BRANCH   1   2
ATOM      2  N   UNL     1       1.575   5.074  20.682  0.00  0.00    +0.000 NA
ATOM      3  H   UNL     1       1.944   4.759  21.610  0.00  0.00    +0.000 HD
BRANCH   2   4
ATOM      4  C   UNL     1       2.617   5.862  20.016  0.00  0.00    +0.000 C 
BRANCH   4   5
ATOM      5  C   UNL     1       2.108   7.248  19.732  0.00  0.00    +0.000 A 
ATOM      6  C   UNL     1       1.423   7.977  20.713  0.00  0.00    +0.000 A 
ATOM      7  C   UNL     1       0.963   9.268  20.442  0.00  0.00    +0.000 A 
ATOM      8  C   UNL     1       1.190   9.872  19.186  0.00  0.00    +0.000 A 
ATOM      9  C   UNL     1       1.877   9.121  18.206  0.00  0.00    +0.000 A 
ATOM     10  C   UNL     1       2.323   7.826  18.476  0.00  0.00    +0.000 A 
BRANCH   8  11
ATOM     11  C   UNL     1       0.734  11.276  18.908  0.00  0.00    +0.000 A 
ATOM     12  C   UNL     1       1.664  12.327  18.758  0.00  0.00    +0.000 A 
ATOM     13  C   UNL     1       1.232  13.633  18.531  0.00  0.00    +0.000 A 
ATOM     14  C   UNL     1      -0.130  13.896  18.439  0.00  0.00    +0.000 A 
ATOM     15  N   UNL     1      -1.026  12.886  18.574  0.00  0.00    +0.000 NA
ATOM     16  C   UNL     1      -0.636  11.604  18.808  0.00  0.00    +0.000 A 
ENDBRANCH   8  11
ENDBRANCH   4   5
ENDBRANCH   2   4
ENDBRANCH   1   2
BRANCH   1  17
ATOM     17  C   UNL     1       1.797   4.008  18.457  0.00  0.00    +0.000 C 
BRANCH  17  18
ATOM     18  C   UNL     1       2.264   2.667  17.824  0.00  0.00    +0.000 C 
BRANCH  18  19
ATOM     19  N   UNL     1       1.636   1.547  18.531  0.00  0.00    +0.000 NA
ATOM     20  H   UNL     1       0.691   1.361  18.120  0.00  0.00    +0.000 HD
ATOM     21  H   UNL     1       1.512   1.786  19.543  0.00  0.00    +0.000 HD
ENDBRANCH  18  19
BRANCH  18  22
ATOM     22  C   UNL     1       3.803   2.514  17.864  0.00  0.00    +0.000 C 
BRANCH  22  23
ATOM     23  C   UNL     1       4.557   3.821  17.731  0.00  0.00    +0.000 A 
ATOM     24  C   UNL     1       5.408   4.255  18.765  0.00  0.00    +0.000 A 
ATOM     25  C   UNL     1       6.071   5.485  18.669  0.00  0.00    +0.000 A 
ATOM     26  C   UNL     1       5.897   6.291  17.539  0.00  0.00    +0.000 A 
ATOM     27  F   UNL     1       6.532   7.486  17.451  0.00  0.00    +0.000 F 
ATOM     28  C   UNL     1       5.059   5.865  16.501  0.00  0.00    +0.000 A 
ATOM     29  F   UNL     1       4.885   6.646  15.407  0.00  0.00    +0.000 F 
ATOM     30  C   UNL     1       4.391   4.639  16.598  0.00  0.00    +0.000 A 
ENDBRANCH  22  23
ENDBRANCH  18  22
ENDBRANCH  17  18
ENDBRANCH   1  17
TORSDOF 9
ENDMDL
MODEL 3
REMARK VINA RESULT:      -7.6      1.226      2.014
REMARK  Name = 
REMARK  9 active torsions:
REMARK  status: ('A' for Active; 'I' for Inactive)
REMARK    1  A    between atoms: N_1  and  C_2
REMARK    2  A    between atoms: C_2  and  C_3
REMARK    3  A    between atoms: C_2  and  C_19
REMARK    4  A    between atoms: C_3  and  C_4
REMARK    5  A    between atoms: C_4  and  N_5
REMARK    6  A    between atoms: N_5  and  C_6
REMARK    7  A    between atoms: C_6  and  C_7
REMARK    8  A    between atoms: C_10  and  C_11
REMARK    9  A    between atoms: C_19  and  C_20
REMARK                            x       y       z     vdW  Elec       q    Type
REMARK                         _______ _______ _______ _____ _____    ______ ____
ROOT
ATOM      1  C   UNL     1       5.718   6.187  16.551  0.00  0.00    +0.000 C 
ENDROOT
BRANCH   1   2
ATOM      2  N   UNL     1       4.878   7.101  17.334  0.00  0.00    +0.000 NA
ATOM      3  H   UNL     1       4.914   8.051  16.895  0.00  0.00    +0.000 HD
BRANCH   2   4
ATOM      4  C   UNL     1       3.483   6.646  17.332  0.00  0.00    +0.000 C 
BRANCH   4   5
ATOM      5  C   UNL     1       2.682   7.448  18.319  0.00  0.00    +0.000 A 
ATOM      6  C   UNL     1       2.085   8.659  17.945  0.00  0.00    +0.000 A 
ATOM      7  C   UNL     1       1.334   9.393  18.867  0.00  0.00    +0.000 A 
ATOM      8  C   UNL     1       1.145   8.925  20.186  0.00  0.00    +0.000 A 
ATOM      9  C   UNL     1       1.758   7.705  20.548  0.00  0.00    +0.000 A 
ATOM     10  C   UNL     1       2.520   6.983  19.628  0.00  0.00    +0.000 A 
BRANCH   8  11
ATOM     11  C   UNL     1       0.302   9.690  21.166  0.00  0.00    +0.000 A 
ATOM     12  C   UNL     1      -0.415  10.839  20.767  0.00  0.00    +0.000 A 
ATOM     13  C   UNL     1      -1.170  11.562  21.689  0.00  0.00    +0.000 A 
ATOM     14  C   UNL     1      -1.227  11.135  23.011  0.00  0.00    +0.000 A 
ATOM     15  N   UNL     1      -0.547  10.026  23.395  0.00  0.00    +0.000 NA
ATOM     16  C   UNL     1       0.209   9.307  22.522  0.00  0.00    +0.000 A 
ENDBRANCH   8  11
ENDBRANCH   4   5
ENDBRANCH   2   4
ENDBRANCH   1   2
BRANCH   1  17
ATOM     17  C   UNL     1       6.017   4.901  17.341  0.00  0.00    +0.000 C 
BRANCH  17  18
ATOM     18  C   UNL     1       5.728   4.986  18.865  0.00  0.00    +0.000 C 
BRANCH  18  19
ATOM     19  N   UNL     1       6.888   5.561  19.553  0.00  0.00    +0.000 NA
ATOM     20  H   UNL     1       6.706   5.583  20.584  0.00  0.00    +0.000 HD
ATOM     21  H   UNL     1       7.048   6.543  19.227  0.00  0.00    +0.000 HD
ENDBRANCH  18  19
BRANCH  18  22
ATOM     22  C   UNL     1       5.394   3.601  19.469  0.00  0.00    +0.000 C 
BRANCH  22  23
ATOM     23  C   UNL     1       3.960   3.163  19.253  0.00  0.00    +0.000 A 
ATOM     24  C   UNL     1       3.528   2.760  17.975  0.00  0.00    +0.000 A 
ATOM     25  C   UNL     1       2.193   2.400  17.759  0.00  0.00    +0.000 A 
ATOM     26  C   UNL     1       1.277   2.430  18.816  0.00  0.00    +0.000 A 
ATOM     27  F   UNL     1      -0.019   2.089  18.603  0.00  0.00    +0.000 F 
ATOM     28  C   UNL     1       1.697   2.821  20.092  0.00  0.00    +0.000 A 
ATOM     29  F   UNL     1       0.811   2.856  21.117  0.00  0.00    +0.000 F 
ATOM     30  C   UNL     1       3.031   3.188  20.310  0.00  0.00    +0.000 A 
ENDBRANCH  22  23
ENDBRANCH  18  22
ENDBRANCH  17  18
ENDBRANCH   1  17
TORSDOF 9
ENDMDL
MODEL 4
REMARK VINA RESULT:      -7.5      1.197      1.820
REMARK  Name = 
REMARK  9 active torsions:
REMARK  status: ('A' for Active; 'I' for Inactive)
REMARK    1  A    between atoms: N_1  and  C_2
REMARK    2  A    between atoms: C_2  and  C_3
REMARK    3  A    between atoms: C_2  and  C_19
REMARK    4  A    between atoms: C_3  and  C_4
REMARK    5  A    between atoms: C_4  and  N_5
REMARK    6  A    between atoms: N_5  and  C_6
REMARK    7  A    between atoms: C_6  and  C_7
REMARK    8  A    between atoms: C_10  and  C_11
REMARK    9  A    between atoms: C_19  and  C_20
REMARK                            x       y       z     vdW  Elec       q    Type
REMARK                         _______ _______ _______ _____ _____    ______ ____
ROOT
ATOM      1  C   UNL     1       5.256   7.077  16.880  0.00  0.00    +0.000 C 
ENDROOT
BRANCH   1   2
ATOM      2  N   UNL     1       4.526   6.786  18.119  0.00  0.00    +0.000 NA
ATOM      3  H   UNL     1       4.666   7.580  18.787  0.00  0.00    +0.000 HD
BRANCH   2   4
ATOM      4  C   UNL     1       3.089   6.656  17.852  0.00  0.00    +0.000 C 
BRANCH   4   5
ATOM      5  C   UNL     1       2.321   7.628  18.704  0.00  0.00    +0.000 A 
ATOM      6  C   UNL     1       1.856   8.838  18.172  0.00  0.00    +0.000 A 
ATOM      7  C   UNL     1       1.134   9.730  18.968  0.00  0.00    +0.000 A 
ATOM      8  C   UNL     1       0.842   9.428  20.316  0.00  0.00    +0.000 A 
ATOM      9  C   UNL     1       1.322   8.207  20.838  0.00  0.00    +0.000 A 
ATOM     10  C   UNL     1       2.055   7.325  20.043  0.00  0.00    +0.000 A 
BRANCH   8  11
ATOM     11  C   UNL     1       0.028  10.366  21.161  0.00  0.00    +0.000 A 
ATOM     12  C   UNL     1      -0.432   9.982  22.439  0.00  0.00    +0.000 A 
ATOM     13  C   UNL     1      -1.213  10.846  23.204  0.00  0.00    +0.000 A 
ATOM     14  C   UNL     1      -1.528  12.105  22.706  0.00  0.00    +0.000 A 
ATOM     15  N   UNL     1      -1.080  12.481  21.481  0.00  0.00    +0.000 NA
ATOM     16  C   UNL     1      -0.327  11.655  20.706  0.00  0.00    +0.000 A 
ENDBRANCH   8  11
ENDBRANCH   4   5
ENDBRANCH   2   4
ENDBRANCH   1   2
BRANCH   1  17
ATOM     17  C   UNL     1       5.587   5.782  16.118  0.00  0.00    +0.000 C 
BRANCH  17  18
ATOM     18  C   UNL     1       6.020   4.588  17.014  0.00  0.00    +0.000 C 
BRANCH  18  19
ATOM     19  N   UNL     1       7.431   4.278  16.768  0.00  0.00    +0.000 NA
ATOM     20  H   UNL     1       7.525   3.272  16.494  0.00  0.00    +0.000 HD
ATOM     21  H   UNL     1       7.990   4.434  17.640  0.00  0.00    +0.000 HD
ENDBRANCH  18  19
BRANCH  18  22
ATOM     22  C   UNL     1       5.156   3.330  16.759  0.00  0.00    +0.000 C 
BRANCH  22  23
ATOM     23  C   UNL     1       3.975   3.193  17.697  0.00  0.00    +0.000 A 
ATOM     24  C   UNL     1       2.661   3.271  17.198  0.00  0.00    +0.000 A 
ATOM     25  C   UNL     1       1.566   3.193  18.066  0.00  0.00    +0.000 A 
ATOM     26  C   UNL     1       1.769   3.028  19.440  0.00  0.00    +0.000 A 
ATOM     27  F   UNL     1       0.708   2.961  20.282  0.00  0.00    +0.000 F 
ATOM     28  C   UNL     1       3.071   2.941  19.947  0.00  0.00    +0.000 A 
ATOM     29  F   UNL     1       3.272   2.785  21.279  0.00  0.00    +0.000 F 
ATOM     30  C   UNL     1       4.168   3.025  19.081  0.00  0.00    +0.000 A 
ENDBRANCH  22  23
ENDBRANCH  18  22
ENDBRANCH  17  18
ENDBRANCH   1  17
TORSDOF 9
ENDMDL
MODEL 5
REMARK VINA RESULT:      -7.4      1.274      1.976
REMARK  Name = 
REMARK  9 active torsions:
REMARK  status: ('A' for Active; 'I' for Inactive)
REMARK    1  A    between atoms: N_1  and  C_2
REMARK    2  A    between atoms: C_2  and  C_3
REMARK    3  A    between atoms: C_2  and  C_19
REMARK    4  A    between atoms: C_3  and  C_4
REMARK    5  A    between atoms: C_4  and  N_5
REMARK    6  A    between atoms: N_5  and  C_6
REMARK    7  A    between atoms: C_6  and  C_7
REMARK    8  A    between atoms: C_10  and  C_11
REMARK    9  A    between atoms: C_19  and  C_20
REMARK                            x       y       z     vdW  Elec       q    Type
REMARK                         _______ _______ _______ _____ _____    ______ ____
ROOT
ATOM      1  C   UNL     1       4.810   6.704  16.549  0.00  0.00    +0.000 C 
ENDROOT
BRANCH   1   2
ATOM      2  N   UNL     1       4.223   7.289  17.760  0.00  0.00    +0.000 NA
ATOM      3  H   UNL     1       4.265   8.333  17.683  0.00  0.00    +0.000 HD
BRANCH   2   4
ATOM      4  C   UNL     1       2.817   6.894  17.894  0.00  0.00    +0.000 C 
BRANCH   4   5
ATOM      5  C   UNL     1       2.087   7.881  18.761  0.00  0.00    +0.000 A 
ATOM      6  C   UNL     1       1.570   9.067  18.223  0.00  0.00    +0.000 A 
ATOM      7  C   UNL     1       0.885   9.973  19.035  0.00  0.00    +0.000 A 
ATOM      8  C   UNL     1       0.683   9.709  20.408  0.00  0.00    +0.000 A 
ATOM      9  C   UNL     1       1.214   8.512  20.936  0.00  0.00    +0.000 A 
ATOM     10  C   UNL     1       1.911   7.616  20.123  0.00  0.00    +0.000 A 
BRANCH   8  11
ATOM     11  C   UNL     1      -0.092  10.662  21.273  0.00  0.00    +0.000 A 
ATOM     12  C   UNL     1      -0.492  11.926  20.787  0.00  0.00    +0.000 A 
ATOM     13  C   UNL     1      -1.184  12.816  21.607  0.00  0.00    +0.000 A 
ATOM     14  C   UNL     1      -1.492  12.448  22.911  0.00  0.00    +0.000 A 
ATOM     15  N   UNL     1      -1.116  11.230  23.378  0.00  0.00    +0.000 NA
ATOM     16  C   UNL     1      -0.430  10.344  22.607  0.00  0.00    +0.000 A 
ENDBRANCH   8  11
ENDBRANCH   4   5
ENDBRANCH   2   4
ENDBRANCH   1   2
BRANCH   1  17
ATOM     17  C   UNL     1       6.126   5.977  16.871  0.00  0.00    +0.000 C 
BRANCH  17  18
ATOM     18  C   UNL     1       6.020   4.428  16.937  0.00  0.00    +0.000 C 
BRANCH  18  19
ATOM     19  N   UNL     1       7.020   3.830  16.048  0.00  0.00    +0.000 NA
ATOM     20  H   UNL     1       7.545   4.589  15.553  0.00  0.00    +0.000 HD
ATOM     21  H   UNL     1       6.548   3.234  15.327  0.00  0.00    +0.000 HD
ENDBRANCH  18  19
BRANCH  18  22
ATOM     22  C   UNL     1       4.609   3.928  16.548  0.00  0.00    +0.000 C 
BRANCH  22  23
ATOM     23  C   UNL     1       3.767   3.482  17.726  0.00  0.00    +0.000 A 
ATOM     24  C   UNL     1       4.330   3.418  19.015  0.00  0.00    +0.000 A 
ATOM     25  C   UNL     1       3.570   2.962  20.099  0.00  0.00    +0.000 A 
ATOM     26  C   UNL     1       2.240   2.571  19.911  0.00  0.00    +0.000 A 
ATOM     27  F   UNL     1       1.508   2.121  20.960  0.00  0.00    +0.000 F 
ATOM     28  C   UNL     1       1.668   2.638  18.635  0.00  0.00    +0.000 A 
ATOM     29  F   UNL     1       0.380   2.257  18.449  0.00  0.00    +0.000 F 
ATOM     30  C   UNL     1       2.427   3.089  17.549  0.00  0.00    +0.000 A 
ENDBRANCH  22  23
ENDBRANCH  18  22
ENDBRANCH  17  18
ENDBRANCH   1  17
TORSDOF 9
ENDMDL
MODEL 6
REMARK VINA RESULT:      -7.4      1.106      1.536
REMARK  Name = 
REMARK  9 active torsions:
REMARK  status: ('A' for Active; 'I' for Inactive)
REMARK    1  A    between atoms: N_1  and  C_2
REMARK    2  A    between atoms: C_2  and  C_3
REMARK    3  A    between atoms: C_2  and  C_19
REMARK    4  A    between atoms: C_3  and  C_4
REMARK    5  A    between atoms: C_4  and  N_5
REMARK    6  A    between atoms: N_5  and  C_6
REMARK    7  A    between atoms: C_6  and  C_7
REMARK    8  A    between atoms: C_10  and  C_11
REMARK    9  A    between atoms: C_19  and  C_20
REMARK                            x       y       z     vdW  Elec       q    Type
REMARK                         _______ _______ _______ _____ _____    ______ ____
ROOT
ATOM      1  C   UNL     1       4.445   6.947  17.547  0.00  0.00    +0.000 C 
ENDROOT
BRANCH   1   2
ATOM      2  N   UNL     1       3.011   6.892  17.852  0.00  0.00    +0.000 NA
ATOM      3  H   UNL     1       2.594   6.065  17.363  0.00  0.00    +0.000 HD
BRANCH   2   4
ATOM      4  C   UNL     1       2.798   6.729  19.294  0.00  0.00    +0.000 C 
BRANCH   4   5
ATOM      5  C   UNL     1       1.884   7.809  19.802  0.00  0.00    +0.000 A 
ATOM      6  C   UNL     1       1.322   7.731  21.084  0.00  0.00    +0.000 A 
ATOM      7  C   UNL     1       0.481   8.744  21.551  0.00  0.00    +0.000 A 
ATOM      8  C   UNL     1       0.193   9.874  20.753  0.00  0.00    +0.000 A 
ATOM      9  C   UNL     1       0.763   9.934  19.463  0.00  0.00    +0.000 A 
ATOM     10  C   UNL     1       1.591   8.912  18.995  0.00  0.00    +0.000 A 
BRANCH   8  11
ATOM     11  C   UNL     1      -0.675  10.985  21.270  0.00  0.00    +0.000 A 
ATOM     12  C   UNL     1      -1.231  11.942  20.394  0.00  0.00    +0.000 A 
ATOM     13  C   UNL     1      -2.010  12.989  20.885  0.00  0.00    +0.000 A 
ATOM     14  C   UNL     1      -2.251  13.079  22.252  0.00  0.00    +0.000 A 
ATOM     15  N   UNL     1      -1.725  12.155  23.095  0.00  0.00    +0.000 NA
ATOM     16  C   UNL     1      -0.950  11.130  22.648  0.00  0.00    +0.000 A 
ENDBRANCH   8  11
ENDBRANCH   4   5
ENDBRANCH   2   4
ENDBRANCH   1   2
BRANCH   1  17
ATOM     17  C   UNL     1       4.824   5.896  16.489  0.00  0.00    +0.000 C 
BRANCH  17  18
ATOM     18  C   UNL     1       5.176   4.493  17.056  0.00  0.00    +0.000 C 
BRANCH  18  19
ATOM     19  N   UNL     1       6.405   4.003  16.425  0.00  0.00    +0.000 NA
ATOM     20  H   UNL     1       7.173   3.972  17.135  0.00  0.00    +0.000 HD
ATOM     21  H   UNL     1       6.696   4.652  15.655  0.00  0.00    +0.000 HD
ENDBRANCH  18  19
BRANCH  18  22
ATOM     22  C   UNL     1       4.032   3.475  16.833  0.00  0.00    +0.000 C 
BRANCH  22  23
ATOM     23  C   UNL     1       3.167   3.242  18.055  0.00  0.00    +0.000 A 
ATOM     24  C   UNL     1       1.781   3.479  17.997  0.00  0.00    +0.000 A 
ATOM     25  C   UNL     1       0.984   3.311  19.135  0.00  0.00    +0.000 A 
ATOM     26  C   UNL     1       1.560   2.897  20.341  0.00  0.00    +0.000 A 
ATOM     27  F   UNL     1       0.789   2.743  21.446  0.00  0.00    +0.000 F 
ATOM     28  C   UNL     1       2.936   2.651  20.409  0.00  0.00    +0.000 A 
ATOM     29  F   UNL     1       3.498   2.254  21.577  0.00  0.00    +0.000 F 
ATOM     30  C   UNL     1       3.736   2.824  19.273  0.00  0.00    +0.000 A 
ENDBRANCH  22  23
ENDBRANCH  18  22
ENDBRANCH  17  18
ENDBRANCH   1  17
TORSDOF 9
ENDMDL
MODEL 7
REMARK VINA RESULT:      -7.3      0.880      1.862
REMARK  Name = 
REMARK  9 active torsions:
REMARK  status: ('A' for Active; 'I' for Inactive)
REMARK    1  A    between atoms: N_1  and  C_2
REMARK    2  A    between atoms: C_2  and  C_3
REMARK    3  A    between atoms: C_2  and  C_19
REMARK    4  A    between atoms: C_3  and  C_4
REMARK    5  A    between atoms: C_4  and  N_5
REMARK    6  A    between atoms: N_5  and  C_6
REMARK    7  A    between atoms: C_6  and  C_7
REMARK    8  A    between atoms: C_10  and  C_11
REMARK    9  A    between atoms: C_19  and  C_20
REMARK                            x       y       z     vdW  Elec       q    Type
REMARK                         _______ _______ _______ _____ _____    ______ ____
ROOT
ATOM      1  C   UNL     1       5.796   6.165  17.434  0.00  0.00    +0.000 C 
ENDROOT
BRANCH   1   2
ATOM      2  N   UNL     1       4.781   7.223  17.390  0.00  0.00    +0.000 NA
ATOM      3  H   UNL     1       4.840   7.709  16.464  0.00  0.00    +0.000 HD
BRANCH   2   4
ATOM      4  C   UNL     1       3.436   6.653  17.525  0.00  0.00    +0.000 C 
BRANCH   4   5
ATOM      5  C   UNL     1       2.605   7.511  18.438  0.00  0.00    +0.000 A 
ATOM      6  C   UNL     1       2.069   8.726  17.991  0.00  0.00    +0.000 A 
ATOM      7  C   UNL     1       1.290   9.512  18.843  0.00  0.00    +0.000 A 
ATOM      8  C   UNL     1       1.010   9.094  20.163  0.00  0.00    +0.000 A 
ATOM      9  C   UNL     1       1.562   7.870  20.599  0.00  0.00    +0.000 A 
ATOM     10  C   UNL     1       2.352   7.095  19.749  0.00  0.00    +0.000 A 
BRANCH   8  11
ATOM     11  C   UNL     1       0.136   9.917  21.066  0.00  0.00    +0.000 A 
ATOM     12  C   UNL     1      -0.045   9.566  22.421  0.00  0.00    +0.000 A 
ATOM     13  C   UNL     1      -0.882  10.316  23.245  0.00  0.00    +0.000 A 
ATOM     14  C   UNL     1      -1.534  11.429  22.726  0.00  0.00    +0.000 A 
ATOM     15  N   UNL     1      -1.354  11.774  21.426  0.00  0.00    +0.000 NA
ATOM     16  C   UNL     1      -0.554  11.055  20.594  0.00  0.00    +0.000 A 
ENDBRANCH   8  11
ENDBRANCH   4   5
ENDBRANCH   2   4
ENDBRANCH   1   2
BRANCH   1  17
ATOM     17  C   UNL     1       5.204   4.855  17.981  0.00  0.00    +0.000 C 
BRANCH  17  18
ATOM     18  C   UNL     1       5.131   3.691  16.955  0.00  0.00    +0.000 C 
BRANCH  18  19
ATOM     19  N   UNL     1       5.130   4.236  15.594  0.00  0.00    +0.000 NA
ATOM     20  H   UNL     1       5.618   3.570  14.951  0.00  0.00    +0.000 HD
ATOM     21  H   UNL     1       5.643   5.149  15.573  0.00  0.00    +0.000 HD
ENDBRANCH  18  19
BRANCH  18  22
ATOM     22  C   UNL     1       3.876   2.810  17.166  0.00  0.00    +0.000 C 
BRANCH  22  23
ATOM     23  C   UNL     1       3.273   2.919  18.552  0.00  0.00    +0.000 A 
ATOM     24  C   UNL     1       3.924   2.334  19.654  0.00  0.00    +0.000 A 
ATOM     25  C   UNL     1       3.349   2.390  20.929  0.00  0.00    +0.000 A 
ATOM     26  C   UNL     1       2.123   3.036  21.120  0.00  0.00    +0.000 A 
ATOM     27  F   UNL     1       1.562   3.082  22.354  0.00  0.00    +0.000 F 
ATOM     28  C   UNL     1       1.471   3.628  20.032  0.00  0.00    +0.000 A 
ATOM     29  F   UNL     1       0.281   4.252  20.212  0.00  0.00    +0.000 F 
ATOM     30  C   UNL     1       2.041   3.569  18.755  0.00  0.00    +0.000 A 
ENDBRANCH  22  23
ENDBRANCH  18  22
ENDBRANCH  17  18
ENDBRANCH   1  17
TORSDOF 9
ENDMDL
MODEL 8
REMARK VINA RESULT:      -7.3      6.336      7.744
REMARK  Name = 
REMARK  9 active torsions:
REMARK  status: ('A' for Active; 'I' for Inactive)
REMARK    1  A    between atoms: N_1  and  C_2
REMARK    2  A    between atoms: C_2  and  C_3
REMARK    3  A    between atoms: C_2  and  C_19
REMARK    4  A    between atoms: C_3  and  C_4
REMARK    5  A    between atoms: C_4  and  N_5
REMARK    6  A    between atoms: N_5  and  C_6
REMARK    7  A    between atoms: C_6  and  C_7
REMARK    8  A    between atoms: C_10  and  C_11
REMARK    9  A    between atoms: C_19  and  C_20
REMARK                            x       y       z     vdW  Elec       q    Type
REMARK                         _______ _______ _______ _____ _____    ______ ____
ROOT
ATOM      1  C   UNL     1       7.946   7.161  18.138  0.00  0.00    +0.000 C 
ENDROOT
BRANCH   1   2
ATOM      2  N   UNL     1       8.108   8.603  17.926  0.00  0.00    +0.000 NA
ATOM      3  H   UNL     1       7.161   9.051  17.917  0.00  0.00    +0.000 HD
BRANCH   2   4
ATOM      4  C   UNL     1       8.889   9.199  19.016  0.00  0.00    +0.000 C 
BRANCH   4   5
ATOM      5  C   UNL     1       9.208  10.632  18.692  0.00  0.00    +0.000 A 
ATOM      6  C   UNL     1       8.398  11.370  17.819  0.00  0.00    +0.000 A 
ATOM      7  C   UNL     1       8.698  12.704  17.533  0.00  0.00    +0.000 A 
ATOM      8  C   UNL     1       9.809  13.343  18.126  0.00  0.00    +0.000 A 
ATOM      9  C   UNL     1      10.618  12.583  19.000  0.00  0.00    +0.000 A 
ATOM     10  C   UNL     1      10.323  11.246  19.272  0.00  0.00    +0.000 A 
BRANCH   8  11
ATOM     11  C   UNL     1      10.107  14.789  17.853  0.00  0.00    +0.000 A 
ATOM     12  C   UNL     1       9.301  15.814  18.396  0.00  0.00    +0.000 A 
ATOM     13  C   UNL     1       9.566  17.152  18.113  0.00  0.00    +0.000 A 
ATOM     14  C   UNL     1      10.645  17.479  17.298  0.00  0.00    +0.000 A 
ATOM     15  N   UNL     1      11.426  16.497  16.783  0.00  0.00    +0.000 NA
ATOM     16  C   UNL     1      11.186  15.181  17.030  0.00  0.00    +0.000 A 
ENDBRANCH   8  11
ENDBRANCH   4   5
ENDBRANCH   2   4
ENDBRANCH   1   2
BRANCH   1  17
ATOM     17  C   UNL     1       6.845   6.590  17.227  0.00  0.00    +0.000 C 
BRANCH  17  18
ATOM     18  C   UNL     1       5.785   5.714  17.950  0.00  0.00    +0.000 C 
BRANCH  18  19
ATOM     19  N   UNL     1       6.332   4.373  18.178  0.00  0.00    +0.000 NA
ATOM     20  H   UNL     1       7.128   4.204  17.520  0.00  0.00    +0.000 HD
ATOM     21  H   UNL     1       5.596   3.650  17.995  0.00  0.00    +0.000 HD
ENDBRANCH  18  19
BRANCH  18  22
ATOM     22  C   UNL     1       4.470   5.612  17.142  0.00  0.00    +0.000 C 
BRANCH  22  23
ATOM     23  C   UNL     1       3.385   4.809  17.830  0.00  0.00    +0.000 A 
ATOM     24  C   UNL     1       2.996   3.558  17.315  0.00  0.00    +0.000 A 
ATOM     25  C   UNL     1       1.962   2.833  17.919  0.00  0.00    +0.000 A 
ATOM     26  C   UNL     1       1.310   3.344  19.046  0.00  0.00    +0.000 A 
ATOM     27  F   UNL     1       0.302   2.645  19.624  0.00  0.00    +0.000 F 
ATOM     28  C   UNL     1       1.693   4.583  19.571  0.00  0.00    +0.000 A 
ATOM     29  F   UNL     1       1.060   5.083  20.661  0.00  0.00    +0.000 F 
ATOM     30  C   UNL     1       2.724   5.313  18.966  0.00  0.00    +0.000 A 
ENDBRANCH  22  23
ENDBRANCH  18  22
ENDBRANCH  17  18
ENDBRANCH   1  17
TORSDOF 9
ENDMDL
MODEL 9
REMARK VINA RESULT:      -7.3      2.839      4.286
REMARK  Name = 
REMARK  9 active torsions:
REMARK  status: ('A' for Active; 'I' for Inactive)
REMARK    1  A    between atoms: N_1  and  C_2
REMARK    2  A    between atoms: C_2  and  C_3
REMARK    3  A    between atoms: C_2  and  C_19
REMARK    4  A    between atoms: C_3  and  C_4
REMARK    5  A    between atoms: C_4  and  N_5
REMARK    6  A    between atoms: N_5  and  C_6
REMARK    7  A    between atoms: C_6  and  C_7
REMARK    8  A    between atoms: C_10  and  C_11
REMARK    9  A    between atoms: C_19  and  C_20
REMARK                            x       y       z     vdW  Elec       q    Type
REMARK                         _______ _______ _______ _____ _____    ______ ____
ROOT
ATOM      1  C   UNL     1       2.553   3.762  20.443  0.00  0.00    +0.000 C 
ENDROOT
BRANCH   1   2
ATOM      2  N   UNL     1       2.682   5.175  20.817  0.00  0.00    +0.000 NA
ATOM      3  H   UNL     1       3.457   5.269  21.514  0.00  0.00    +0.000 HD
BRANCH   2   4
ATOM      4  C   UNL     1       3.017   5.989  19.643  0.00  0.00    +0.000 C 
BRANCH   4   5
ATOM      5  C   UNL     1       2.249   7.281  19.681  0.00  0.00    +0.000 A 
ATOM      6  C   UNL     1       2.214   8.128  18.565  0.00  0.00    +0.000 A 
ATOM      7  C   UNL     1       1.490   9.322  18.606  0.00  0.00    +0.000 A 
ATOM      8  C   UNL     1       0.765   9.693  19.760  0.00  0.00    +0.000 A 
ATOM      9  C   UNL     1       0.816   8.831  20.877  0.00  0.00    +0.000 A 
ATOM     10  C   UNL     1       1.552   7.646  20.837  0.00  0.00    +0.000 A 
BRANCH   8  11
ATOM     11  C   UNL     1      -0.049  10.955  19.790  0.00  0.00    +0.000 A 
ATOM     12  C   UNL     1      -0.863  11.270  20.900  0.00  0.00    +0.000 A 
ATOM     13  C   UNL     1      -1.640  12.427  20.908  0.00  0.00    +0.000 A 
ATOM     14  C   UNL     1      -1.600  13.285  19.814  0.00  0.00    +0.000 A 
ATOM     15  N   UNL     1      -0.812  12.989  18.750  0.00  0.00    +0.000 NA
ATOM     16  C   UNL     1      -0.052  11.861  18.707  0.00  0.00    +0.000 A 
ENDBRANCH   8  11
ENDBRANCH   4   5
ENDBRANCH   2   4
ENDBRANCH   1   2
BRANCH   1  17
ATOM     17  C   UNL     1       2.716   3.576  18.925  0.00  0.00    +0.000 C 
BRANCH  17  18
ATOM     18  C   UNL     1       3.897   2.659  18.500  0.00  0.00    +0.000 C 
BRANCH  18  19
ATOM     19  N   UNL     1       4.912   2.646  19.558  0.00  0.00    +0.000 NA
ATOM     20  H   UNL     1       5.669   3.328  19.323  0.00  0.00    +0.000 HD
ATOM     21  H   UNL     1       5.339   1.692  19.632  0.00  0.00    +0.000 HD
ENDBRANCH  18  19
BRANCH  18  22
ATOM     22  C   UNL     1       4.536   3.119  17.169  0.00  0.00    +0.000 C 
BRANCH  22  23
ATOM     23  C   UNL     1       5.214   4.472  17.245  0.00  0.00    +0.000 A 
ATOM     24  C   UNL     1       4.707   5.561  16.511  0.00  0.00    +0.000 A 
ATOM     25  C   UNL     1       5.356   6.800  16.541  0.00  0.00    +0.000 A 
ATOM     26  C   UNL     1       6.514   6.969  17.308  0.00  0.00    +0.000 A 
ATOM     27  F   UNL     1       7.147   8.168  17.329  0.00  0.00    +0.000 F 
ATOM     28  C   UNL     1       7.023   5.896  18.048  0.00  0.00    +0.000 A 
ATOM     29  F   UNL     1       8.147   6.055  18.789  0.00  0.00    +0.000 F 
ATOM     30  C   UNL     1       6.378   4.653  18.015  0.00  0.00    +0.000 A 
ENDBRANCH  22  23
ENDBRANCH  18  22
ENDBRANCH  17  18
ENDBRANCH   1  17
TORSDOF 9
ENDMDL
