MODEL 1
REMARK VINA RESULT:      -8.3      0.000      0.000
REMARK  Name = 
REMARK  7 active torsions:
REMARK  status: ('A' for Active; 'I' for Inactive)
REMARK    1  A    between atoms: C_1  and  C_2
REMARK    2  A    between atoms: C_2  and  C_3
REMARK    3  A    between atoms: C_8  and  C_9
REMARK    4  A    between atoms: C_13  and  N_14
REMARK    5  A    between atoms: C_15  and  C_17
REMARK    6  A    between atoms: C_20  and  C_21
REMARK    7  A    between atoms: C_25  and  O_26
REMARK                            x       y       z     vdW  Elec       q    Type
REMARK                         _______ _______ _______ _____ _____    ______ ____
ROOT
ATOM      1  C   UNL     1       2.718   2.176  18.783  0.00  0.00    +0.000 C 
ATOM      2  C   UNL     1       3.288   3.605  18.806  0.00  0.00    +0.000 C 
ATOM      3  C   UNL     1       2.931   4.201  20.181  0.00  0.00    +0.000 C 
ATOM      4  O   UNL     1       4.725   3.508  18.717  0.00  0.00    +0.000 OA
ATOM      5  C   UNL     1       5.385   4.662  18.373  0.00  0.00    +0.000 A 
ATOM      6  C   UNL     1       6.767   4.624  18.565  0.00  0.00    +0.000 A 
ATOM      7  C   UNL     1       7.547   5.752  18.294  0.00  0.00    +0.000 A 
ATOM      8  C   UNL     1       6.945   6.919  17.821  0.00  0.00    +0.000 A 
ATOM      9  C   UNL     1       5.558   6.948  17.600  0.00  0.00    +0.000 A 
ATOM     10  C   UNL     1       4.764   5.815  17.860  0.00  0.00    +0.000 A 
ATOM     11  C   UNL     1       3.265   5.851  17.608  0.00  0.00    +0.000 C 
ATOM     12  C   UNL     1       2.759   4.381  17.580  0.00  0.00    +0.000 C 
ENDROOT
BRANCH  11  13
ATOM     13  N   UNL     1       2.626   6.724  18.602  0.00  0.00    +0.000 N 
ATOM     14  C   UNL     1       2.260   8.024  18.354  0.00  0.00    +0.000 C 
ATOM     15  O   UNL     1       2.480   8.591  17.291  0.00  0.00    +0.000 OA
ATOM     16  H   UNL     1       2.295   6.278  19.447  0.00  0.00    +0.000 HD
BRANCH  14  17
ATOM     17  C   UNL     1       1.449   8.701  19.400  0.00  0.00    +0.000 A 
ATOM     18  C   UNL     1       0.676   9.830  19.113  0.00  0.00    +0.000 A 
ATOM     19  C   UNL     1      -0.023  10.472  20.139  0.00  0.00    +0.000 A 
ATOM     20  C   UNL     1       0.040   9.984  21.451  0.00  0.00    +0.000 A 
ATOM     21  C   UNL     1       0.788   8.836  21.731  0.00  0.00    +0.000 A 
ATOM     22  C   UNL     1       1.488   8.193  20.707  0.00  0.00    +0.000 A 
BRANCH  20  23
ATOM     23  C   UNL     1      -0.652  10.669  22.502  0.00  0.00    +0.000 C 
ATOM     24  N   UNL     1      -1.219  11.211  23.358  0.00  0.00    +0.000 NA
ENDBRANCH  20  23
ENDBRANCH  14  17
ENDBRANCH  11  13
BRANCH   8  25
ATOM     25  C   UNL     1       7.740   8.086  17.569  0.00  0.00    +0.000 C 
ATOM     26  N   UNL     1       8.378   9.025  17.353  0.00  0.00    +0.000 NA
ENDBRANCH   8  25
BRANCH  12  27
ATOM     27  O   UNL     1       1.360   4.188  17.392  0.00  0.00    +0.000 OA
ATOM     28  H   UNL     1       0.907   4.205  18.259  0.00  0.00    +0.000 HD
ENDBRANCH  12  27
TORSDOF 5
ENDMDL
MODEL 2
REMARK VINA RESULT:      -7.4      3.416      8.386
REMARK  Name = 
REMARK  7 active torsions:
REMARK  status: ('A' for Active; 'I' for Inactive)
REMARK    1  A    between atoms: C_1  and  C_2
REMARK    2  A    between atoms: C_2  and  C_3
REMARK    3  A    between atoms: C_8  and  C_9
REMARK    4  A    between atoms: C_13  and  N_14
REMARK    5  A    between atoms: C_15  and  C_17
REMARK    6  A    between atoms: C_20  and  C_21
REMARK    7  A    between atoms: C_25  and  O_26
REMARK                            x       y       z     vdW  Elec       q    Type
REMARK                         _______ _______ _______ _____ _____    ______ ____
ROOT
ATOM      1  C   UNL     1      -0.663  12.640  22.623  0.00  0.00    +0.000 C 
ATOM      2  C   UNL     1      -0.814  11.808  21.337  0.00  0.00    +0.000 C 
ATOM      3  C   UNL     1      -0.861  10.330  21.770  0.00  0.00    +0.000 C 
ATOM      4  O   UNL     1      -2.084  12.142  20.741  0.00  0.00    +0.000 OA
ATOM      5  C   UNL     1      -2.247  11.777  19.427  0.00  0.00    +0.000 A 
ATOM      6  C   UNL     1      -3.560  11.853  18.958  0.00  0.00    +0.000 A 
ATOM      7  C   UNL     1      -3.863  11.465  17.650  0.00  0.00    +0.000 A 
ATOM      8  C   UNL     1      -2.851  11.008  16.805  0.00  0.00    +0.000 A 
ATOM      9  C   UNL     1      -1.525  10.960  17.267  0.00  0.00    +0.000 A 
ATOM     10  C   UNL     1      -1.206  11.358  18.580  0.00  0.00    +0.000 A 
ATOM     11  C   UNL     1       0.233  11.313  19.069  0.00  0.00    +0.000 C 
ATOM     12  C   UNL     1       0.318  12.184  20.355  0.00  0.00    +0.000 C 
ENDROOT
BRANCH  11  13
ATOM     13  N   UNL     1       0.651   9.913  19.222  0.00  0.00    +0.000 N 
ATOM     14  C   UNL     1       1.632   9.322  18.464  0.00  0.00    +0.000 C 
ATOM     15  O   UNL     1       2.214   9.898  17.554  0.00  0.00    +0.000 OA
ATOM     16  H   UNL     1       0.309   9.427  20.039  0.00  0.00    +0.000 HD
BRANCH  14  17
ATOM     17  C   UNL     1       2.068   7.963  18.878  0.00  0.00    +0.000 A 
ATOM     18  C   UNL     1       2.816   7.141  18.029  0.00  0.00    +0.000 A 
ATOM     19  C   UNL     1       3.154   5.848  18.434  0.00  0.00    +0.000 A 
ATOM     20  C   UNL     1       2.754   5.373  19.691  0.00  0.00    +0.000 A 
ATOM     21  C   UNL     1       2.033   6.206  20.552  0.00  0.00    +0.000 A 
ATOM     22  C   UNL     1       1.694   7.500  20.148  0.00  0.00    +0.000 A 
BRANCH  20  23
ATOM     23  C   UNL     1       3.074   4.033  20.083  0.00  0.00    +0.000 C 
ATOM     24  N   UNL     1       3.320   2.942  20.396  0.00  0.00    +0.000 NA
ENDBRANCH  20  23
ENDBRANCH  14  17
ENDBRANCH  11  13
BRANCH   8  25
ATOM     25  C   UNL     1      -3.165  10.584  15.471  0.00  0.00    +0.000 C 
ATOM     26  N   UNL     1      -3.406  10.245  14.393  0.00  0.00    +0.000 NA
ENDBRANCH   8  25
BRANCH  12  27
ATOM     27  O   UNL     1       1.584  12.248  21.003  0.00  0.00    +0.000 OA
ATOM     28  H   UNL     1       2.294  12.060  20.357  0.00  0.00    +0.000 HD
ENDBRANCH  12  27
TORSDOF 5
ENDMDL
MODEL 3
REMARK VINA RESULT:      -7.3      3.449      8.448
REMARK  Name = 
REMARK  7 active torsions:
REMARK  status: ('A' for Active; 'I' for Inactive)
REMARK    1  A    between atoms: C_1  and  C_2
REMARK    2  A    between atoms: C_2  and  C_3
REMARK    3  A    between atoms: C_8  and  C_9
REMARK    4  A    between atoms: C_13  and  N_14
REMARK    5  A    between atoms: C_15  and  C_17
REMARK    6  A    between atoms: C_20  and  C_21
REMARK    7  A    between atoms: C_25  and  O_26
REMARK                            x       y       z     vdW  Elec       q    Type
REMARK                         _______ _______ _______ _____ _____    ______ ____
ROOT
ATOM      1  C   UNL     1      -0.704  12.482  22.647  0.00  0.00    +0.000 C 
ATOM      2  C   UNL     1      -0.828  11.722  21.315  0.00  0.00    +0.000 C 
ATOM      3  C   UNL     1      -0.826  10.221  21.661  0.00  0.00    +0.000 C 
ATOM      4  O   UNL     1      -2.109  12.048  20.738  0.00  0.00    +0.000 OA
ATOM      5  C   UNL     1      -2.261  11.754  19.405  0.00  0.00    +0.000 A 
ATOM      6  C   UNL     1      -3.576  11.812  18.940  0.00  0.00    +0.000 A 
ATOM      7  C   UNL     1      -3.867  11.491  17.611  0.00  0.00    +0.000 A 
ATOM      8  C   UNL     1      -2.841  11.118  16.742  0.00  0.00    +0.000 A 
ATOM      9  C   UNL     1      -1.515  11.088  17.202  0.00  0.00    +0.000 A 
ATOM     10  C   UNL     1      -1.208  11.419  18.536  0.00  0.00    +0.000 A 
ATOM     11  C   UNL     1       0.232  11.394  19.023  0.00  0.00    +0.000 C 
ATOM     12  C   UNL     1       0.290  12.192  20.357  0.00  0.00    +0.000 C 
ENDROOT
BRANCH  11  13
ATOM     13  N   UNL     1       0.697  10.003  19.095  0.00  0.00    +0.000 N 
ATOM     14  C   UNL     1       1.691   9.487  18.299  0.00  0.00    +0.000 C 
ATOM     15  O   UNL     1       2.246  10.131  17.419  0.00  0.00    +0.000 OA
ATOM     16  H   UNL     1       0.378   9.461  19.886  0.00  0.00    +0.000 HD
BRANCH  14  17
ATOM     17  C   UNL     1       2.174   8.122  18.634  0.00  0.00    +0.000 A 
ATOM     18  C   UNL     1       1.881   7.520  19.862  0.00  0.00    +0.000 A 
ATOM     19  C   UNL     1       2.405   6.260  20.161  0.00  0.00    +0.000 A 
ATOM     20  C   UNL     1       3.216   5.593  19.232  0.00  0.00    +0.000 A 
ATOM     21  C   UNL     1       3.483   6.182  17.992  0.00  0.00    +0.000 A 
ATOM     22  C   UNL     1       2.960   7.442  17.692  0.00  0.00    +0.000 A 
BRANCH  20  23
ATOM     23  C   UNL     1       3.779   4.318  19.561  0.00  0.00    +0.000 C 
ATOM     24  N   UNL     1       4.229   3.277  19.814  0.00  0.00    +0.000 NA
ENDBRANCH  20  23
ENDBRANCH  14  17
ENDBRANCH  11  13
BRANCH   8  25
ATOM     25  C   UNL     1      -3.143  10.761  15.385  0.00  0.00    +0.000 C 
ATOM     26  N   UNL     1      -3.380  10.485  14.289  0.00  0.00    +0.000 NA
ENDBRANCH   8  25
BRANCH  12  27
ATOM     27  O   UNL     1       1.554  12.260  21.010  0.00  0.00    +0.000 OA
ATOM     28  H   UNL     1       1.428  12.195  21.978  0.00  0.00    +0.000 HD
ENDBRANCH  12  27
TORSDOF 5
ENDMDL
MODEL 4
REMARK VINA RESULT:      -7.1      3.061      4.376
REMARK  Name = 
REMARK  7 active torsions:
REMARK  status: ('A' for Active; 'I' for Inactive)
REMARK    1  A    between atoms: C_1  and  C_2
REMARK    2  A    between atoms: C_2  and  C_3
REMARK    3  A    between atoms: C_8  and  C_9
REMARK    4  A    between atoms: C_13  and  N_14
REMARK    5  A    between atoms: C_15  and  C_17
REMARK    6  A    between atoms: C_20  and  C_21
REMARK    7  A    between atoms: C_25  and  O_26
REMARK                            x       y       z     vdW  Elec       q    Type
REMARK                         _______ _______ _______ _____ _____    ______ ____
ROOT
ATOM      1  C   UNL     1       8.388   5.513  19.136  0.00  0.00    +0.000 C 
ATOM      2  C   UNL     1       7.286   5.513  18.061  0.00  0.00    +0.000 C 
ATOM      3  C   UNL     1       6.775   6.962  17.953  0.00  0.00    +0.000 C 
ATOM      4  O   UNL     1       7.897   5.157  16.804  0.00  0.00    +0.000 OA
ATOM      5  C   UNL     1       7.038   4.764  15.808  0.00  0.00    +0.000 A 
ATOM      6  C   UNL     1       7.609   4.696  14.536  0.00  0.00    +0.000 A 
ATOM      7  C   UNL     1       6.826   4.351  13.430  0.00  0.00    +0.000 A 
ATOM      8  C   UNL     1       5.470   4.065  13.597  0.00  0.00    +0.000 A 
ATOM      9  C   UNL     1       4.902   4.105  14.881  0.00  0.00    +0.000 A 
ATOM     10  C   UNL     1       5.683   4.440  16.003  0.00  0.00    +0.000 A 
ATOM     11  C   UNL     1       5.063   4.470  17.391  0.00  0.00    +0.000 C 
ATOM     12  C   UNL     1       6.225   4.451  18.424  0.00  0.00    +0.000 C 
ENDROOT
BRANCH  11  13
ATOM     13  N   UNL     1       4.145   5.613  17.489  0.00  0.00    +0.000 N 
ATOM     14  C   UNL     1       3.263   5.798  18.525  0.00  0.00    +0.000 C 
ATOM     15  O   UNL     1       3.126   4.996  19.440  0.00  0.00    +0.000 OA
ATOM     16  H   UNL     1       4.303   6.374  16.842  0.00  0.00    +0.000 HD
BRANCH  14  17
ATOM     17  C   UNL     1       2.550   7.101  18.571  0.00  0.00    +0.000 A 
ATOM     18  C   UNL     1       2.526   7.964  17.470  0.00  0.00    +0.000 A 
ATOM     19  C   UNL     1       1.895   9.206  17.575  0.00  0.00    +0.000 A 
ATOM     20  C   UNL     1       1.279   9.588  18.775  0.00  0.00    +0.000 A 
ATOM     21  C   UNL     1       1.277   8.712  19.865  0.00  0.00    +0.000 A 
ATOM     22  C   UNL     1       1.907   7.469  19.762  0.00  0.00    +0.000 A 
BRANCH  20  23
ATOM     23  C   UNL     1       0.666  10.878  18.884  0.00  0.00    +0.000 C 
ATOM     24  N   UNL     1       0.166  11.924  18.957  0.00  0.00    +0.000 NA
ENDBRANCH  20  23
ENDBRANCH  14  17
ENDBRANCH  11  13
BRANCH   8  25
ATOM     25  C   UNL     1       4.660   3.738  12.459  0.00  0.00    +0.000 C 
ATOM     26  N   UNL     1       4.015   3.465  11.540  0.00  0.00    +0.000 NA
ENDBRANCH   8  25
BRANCH  12  27
ATOM     27  O   UNL     1       5.861   4.513  19.800  0.00  0.00    +0.000 OA
ATOM     28  H   UNL     1       6.230   3.740  20.272  0.00  0.00    +0.000 HD
ENDBRANCH  12  27
TORSDOF 5
ENDMDL
MODEL 5
REMARK VINA RESULT:      -7.0      0.705      1.166
REMARK  Name = 
REMARK  7 active torsions:
REMARK  status: ('A' for Active; 'I' for Inactive)
REMARK    1  A    between atoms: C_1  and  C_2
REMARK    2  A    between atoms: C_2  and  C_3
REMARK    3  A    between atoms: C_8  and  C_9
REMARK    4  A    between atoms: C_13  and  N_14
REMARK    5  A    between atoms: C_15  and  C_17
REMARK    6  A    between atoms: C_20  and  C_21
REMARK    7  A    between atoms: C_25  and  O_26
REMARK                            x       y       z     vdW  Elec       q    Type
REMARK                         _______ _______ _______ _____ _____    ______ ____
ROOT
ATOM      1  C   UNL     1       1.674   2.501  19.007  0.00  0.00    +0.000 C 
ATOM      2  C   UNL     1       2.436   3.838  19.019  0.00  0.00    +0.000 C 
ATOM      3  C   UNL     1       2.154   4.495  20.384  0.00  0.00    +0.000 C 
ATOM      4  O   UNL     1       3.846   3.544  18.946  0.00  0.00    +0.000 OA
ATOM      5  C   UNL     1       4.662   4.591  18.595  0.00  0.00    +0.000 A 
ATOM      6  C   UNL     1       6.024   4.365  18.801  0.00  0.00    +0.000 A 
ATOM      7  C   UNL     1       6.954   5.371  18.525  0.00  0.00    +0.000 A 
ATOM      8  C   UNL     1       6.523   6.604  18.034  0.00  0.00    +0.000 A 
ATOM      9  C   UNL     1       5.156   6.822  17.799  0.00  0.00    +0.000 A 
ATOM     10  C   UNL     1       4.211   5.812  18.064  0.00  0.00    +0.000 A 
ATOM     11  C   UNL     1       2.733   6.051  17.796  0.00  0.00    +0.000 C 
ATOM     12  C   UNL     1       2.029   4.665  17.779  0.00  0.00    +0.000 C 
ENDROOT
BRANCH  11  13
ATOM     13  N   UNL     1       2.213   7.016  18.774  0.00  0.00    +0.000 N 
ATOM     14  C   UNL     1       1.970   8.337  18.489  0.00  0.00    +0.000 C 
ATOM     15  O   UNL     1       2.215   8.845  17.402  0.00  0.00    +0.000 OA
ATOM     16  H   UNL     1       1.864   6.634  19.642  0.00  0.00    +0.000 HD
BRANCH  14  17
ATOM     17  C   UNL     1       1.261   9.126  19.530  0.00  0.00    +0.000 A 
ATOM     18  C   UNL     1       1.538   8.962  20.891  0.00  0.00    +0.000 A 
ATOM     19  C   UNL     1       0.807   9.680  21.841  0.00  0.00    +0.000 A 
ATOM     20  C   UNL     1      -0.198  10.570  21.435  0.00  0.00    +0.000 A 
ATOM     21  C   UNL     1      -0.453  10.756  20.073  0.00  0.00    +0.000 A 
ATOM     22  C   UNL     1       0.278  10.039  19.122  0.00  0.00    +0.000 A 
BRANCH  20  23
ATOM     23  C   UNL     1      -0.967  11.275  22.417  0.00  0.00    +0.000 C 
ATOM     24  N   UNL     1      -1.581  11.840  23.224  0.00  0.00    +0.000 NA
ENDBRANCH  20  23
ENDBRANCH  14  17
ENDBRANCH  11  13
BRANCH   8  25
ATOM     25  C   UNL     1       7.474   7.647  17.776  0.00  0.00    +0.000 C 
ATOM     26  N   UNL     1       8.250   8.479  17.571  0.00  0.00    +0.000 NA
ENDBRANCH   8  25
BRANCH  12  27
ATOM     27  O   UNL     1       0.619   4.664  17.580  0.00  0.00    +0.000 OA
ATOM     28  H   UNL     1       0.399   5.195  16.788  0.00  0.00    +0.000 HD
ENDBRANCH  12  27
TORSDOF 5
ENDMDL
MODEL 6
REMARK VINA RESULT:      -6.2      3.763      9.498
REMARK  Name = 
REMARK  7 active torsions:
REMARK  status: ('A' for Active; 'I' for Inactive)
REMARK    1  A    between atoms: C_1  and  C_2
REMARK    2  A    between atoms: C_2  and  C_3
REMARK    3  A    between atoms: C_8  and  C_9
REMARK    4  A    between atoms: C_13  and  N_14
REMARK    5  A    between atoms: C_15  and  C_17
REMARK    6  A    between atoms: C_20  and  C_21
REMARK    7  A    between atoms: C_25  and  O_26
REMARK                            x       y       z     vdW  Elec       q    Type
REMARK                         _______ _______ _______ _____ _____    ______ ____
ROOT
ATOM      1  C   UNL     1       1.809  15.605  19.260  0.00  0.00    +0.000 C 
ATOM      2  C   UNL     1       1.024  14.518  20.017  0.00  0.00    +0.000 C 
ATOM      3  C   UNL     1       2.054  13.467  20.472  0.00  0.00    +0.000 C 
ATOM      4  O   UNL     1       0.451  15.125  21.193  0.00  0.00    +0.000 OA
ATOM      5  C   UNL     1      -0.558  14.422  21.802  0.00  0.00    +0.000 A 
ATOM      6  C   UNL     1      -0.901  14.877  23.076  0.00  0.00    +0.000 A 
ATOM      7  C   UNL     1      -1.885  14.216  23.819  0.00  0.00    +0.000 A 
ATOM      8  C   UNL     1      -2.532  13.102  23.283  0.00  0.00    +0.000 A 
ATOM      9  C   UNL     1      -2.207  12.662  21.990  0.00  0.00    +0.000 A 
ATOM     10  C   UNL     1      -1.226  13.325  21.229  0.00  0.00    +0.000 A 
ATOM     11  C   UNL     1      -0.888  12.849  19.825  0.00  0.00    +0.000 C 
ATOM     12  C   UNL     1      -0.115  13.996  19.114  0.00  0.00    +0.000 C 
ENDROOT
BRANCH  11  13
ATOM     13  N   UNL     1      -0.183  11.562  19.905  0.00  0.00    +0.000 N 
ATOM     14  C   UNL     1      -0.175  10.631  18.896  0.00  0.00    +0.000 C 
ATOM     15  O   UNL     1      -0.801  10.769  17.852  0.00  0.00    +0.000 OA
ATOM     16  H   UNL     1       0.459  11.448  20.678  0.00  0.00    +0.000 HD
BRANCH  14  17
ATOM     17  C   UNL     1       0.745   9.476  19.060  0.00  0.00    +0.000 A 
ATOM     18  C   UNL     1       1.473   8.958  17.984  0.00  0.00    +0.000 A 
ATOM     19  C   UNL     1       2.281   7.833  18.169  0.00  0.00    +0.000 A 
ATOM     20  C   UNL     1       2.371   7.227  19.429  0.00  0.00    +0.000 A 
ATOM     21  C   UNL     1       1.668   7.764  20.512  0.00  0.00    +0.000 A 
ATOM     22  C   UNL     1       0.859   8.889  20.329  0.00  0.00    +0.000 A 
BRANCH  20  23
ATOM     23  C   UNL     1       3.174   6.053  19.601  0.00  0.00    +0.000 C 
ATOM     24  N   UNL     1       3.811   5.092  19.739  0.00  0.00    +0.000 NA
ENDBRANCH  20  23
ENDBRANCH  14  17
ENDBRANCH  11  13
BRANCH   8  25
ATOM     25  C   UNL     1      -3.522  12.407  24.055  0.00  0.00    +0.000 C 
ATOM     26  N   UNL     1      -4.325  11.843  24.666  0.00  0.00    +0.000 NA
ENDBRANCH   8  25
BRANCH  12  27
ATOM     27  O   UNL     1       0.334  13.740  17.787  0.00  0.00    +0.000 OA
ATOM     28  H   UNL     1       1.214  13.314  17.814  0.00  0.00    +0.000 HD
ENDBRANCH  12  27
TORSDOF 5
ENDMDL
MODEL 7
REMARK VINA RESULT:      -6.1      4.428     10.225
REMARK  Name = 
REMARK  7 active torsions:
REMARK  status: ('A' for Active; 'I' for Inactive)
REMARK    1  A    between atoms: C_1  and  C_2
REMARK    2  A    between atoms: C_2  and  C_3
REMARK    3  A    between atoms: C_8  and  C_9
REMARK    4  A    between atoms: C_13  and  N_14
REMARK    5  A    between atoms: C_15  and  C_17
REMARK    6  A    between atoms: C_20  and  C_21
REMARK    7  A    between atoms: C_25  and  O_26
REMARK                            x       y       z     vdW  Elec       q    Type
REMARK                         _______ _______ _______ _____ _____    ______ ____
ROOT
ATOM      1  C   UNL     1      -1.270  14.465  24.091  0.00  0.00    +0.000 C 
ATOM      2  C   UNL     1      -1.838  13.577  22.970  0.00  0.00    +0.000 C 
ATOM      3  C   UNL     1      -1.355  12.142  23.256  0.00  0.00    +0.000 C 
ATOM      4  O   UNL     1      -3.277  13.597  23.077  0.00  0.00    +0.000 OA
ATOM      5  C   UNL     1      -3.968  13.159  21.975  0.00  0.00    +0.000 A 
ATOM      6  C   UNL     1      -5.326  12.921  22.193  0.00  0.00    +0.000 A 
ATOM      7  C   UNL     1      -6.130  12.430  21.160  0.00  0.00    +0.000 A 
ATOM      8  C   UNL     1      -5.577  12.184  19.903  0.00  0.00    +0.000 A 
ATOM      9  C   UNL     1      -4.217  12.452  19.675  0.00  0.00    +0.000 A 
ATOM     10  C   UNL     1      -3.400  12.956  20.705  0.00  0.00    +0.000 A 
ATOM     11  C   UNL     1      -1.931  13.253  20.447  0.00  0.00    +0.000 C 
ATOM     12  C   UNL     1      -1.427  14.164  21.602  0.00  0.00    +0.000 C 
ENDROOT
BRANCH  11  13
ATOM     13  N   UNL     1      -1.204  11.989  20.271  0.00  0.00    +0.000 N 
ATOM     14  C   UNL     1      -0.332  11.746  19.238  0.00  0.00    +0.000 C 
ATOM     15  O   UNL     1      -0.122  12.547  18.336  0.00  0.00    +0.000 OA
ATOM     16  H   UNL     1      -1.228  11.344  21.049  0.00  0.00    +0.000 HD
BRANCH  14  17
ATOM     17  C   UNL     1       0.467  10.495  19.318  0.00  0.00    +0.000 A 
ATOM     18  C   UNL     1       1.204  10.024  18.227  0.00  0.00    +0.000 A 
ATOM     19  C   UNL     1       1.893   8.813  18.325  0.00  0.00    +0.000 A 
ATOM     20  C   UNL     1       1.856   8.072  19.515  0.00  0.00    +0.000 A 
ATOM     21  C   UNL     1       1.145   8.560  20.615  0.00  0.00    +0.000 A 
ATOM     22  C   UNL     1       0.455   9.771  20.519  0.00  0.00    +0.000 A 
BRANCH  20  23
ATOM     23  C   UNL     1       2.537   6.815  19.594  0.00  0.00    +0.000 C 
ATOM     24  N   UNL     1       3.081   5.790  19.646  0.00  0.00    +0.000 NA
ENDBRANCH  20  23
ENDBRANCH  14  17
ENDBRANCH  11  13
BRANCH   8  25
ATOM     25  C   UNL     1      -6.394  11.655  18.849  0.00  0.00    +0.000 C 
ATOM     26  N   UNL     1      -7.044  11.231  17.993  0.00  0.00    +0.000 NA
ENDBRANCH   8  25
BRANCH  12  27
ATOM     27  O   UNL     1      -0.052  14.534  21.574  0.00  0.00    +0.000 OA
ATOM     28  H   UNL     1       0.502  13.751  21.764  0.00  0.00    +0.000 HD
ENDBRANCH  12  27
TORSDOF 5
ENDMDL
MODEL 8
REMARK VINA RESULT:      -6.0      3.704      8.784
REMARK  Name = 
REMARK  7 active torsions:
REMARK  status: ('A' for Active; 'I' for Inactive)
REMARK    1  A    between atoms: C_1  and  C_2
REMARK    2  A    between atoms: C_2  and  C_3
REMARK    3  A    between atoms: C_8  and  C_9
REMARK    4  A    between atoms: C_13  and  N_14
REMARK    5  A    between atoms: C_15  and  C_17
REMARK    6  A    between atoms: C_20  and  C_21
REMARK    7  A    between atoms: C_25  and  O_26
REMARK                            x       y       z     vdW  Elec       q    Type
REMARK                         _______ _______ _______ _____ _____    ______ ____
ROOT
ATOM      1  C   UNL     1       1.970  14.034  21.172  0.00  0.00    +0.000 C 
ATOM      2  C   UNL     1       0.937  13.027  20.636  0.00  0.00    +0.000 C 
ATOM      3  C   UNL     1       1.100  11.741  21.469  0.00  0.00    +0.000 C 
ATOM      4  O   UNL     1      -0.377  13.564  20.891  0.00  0.00    +0.000 OA
ATOM      5  C   UNL     1      -1.408  12.993  20.185  0.00  0.00    +0.000 A 
ATOM      6  C   UNL     1      -2.684  13.325  20.644  0.00  0.00    +0.000 A 
ATOM      7  C   UNL     1      -3.815  12.772  20.037  0.00  0.00    +0.000 A 
ATOM      8  C   UNL     1      -3.672  11.892  18.964  0.00  0.00    +0.000 A 
ATOM      9  C   UNL     1      -2.389  11.581  18.484  0.00  0.00    +0.000 A 
ATOM     10  C   UNL     1      -1.243  12.139  19.080  0.00  0.00    +0.000 A 
ATOM     11  C   UNL     1       0.142  11.806  18.548  0.00  0.00    +0.000 C 
ATOM     12  C   UNL     1       1.129  12.868  19.111  0.00  0.00    +0.000 C 
ENDROOT
BRANCH  11  13
ATOM     13  N   UNL     1       0.462  10.409  18.867  0.00  0.00    +0.000 N 
ATOM     14  C   UNL     1       1.470   9.698  18.262  0.00  0.00    +0.000 C 
ATOM     15  O   UNL     1       2.163  10.153  17.360  0.00  0.00    +0.000 OA
ATOM     16  H   UNL     1       0.022  10.023  19.691  0.00  0.00    +0.000 HD
BRANCH  14  17
ATOM     17  C   UNL     1       1.787   8.366  18.839  0.00  0.00    +0.000 A 
ATOM     18  C   UNL     1       2.381   7.357  18.074  0.00  0.00    +0.000 A 
ATOM     19  C   UNL     1       2.608   6.099  18.638  0.00  0.00    +0.000 A 
ATOM     20  C   UNL     1       2.250   5.846  19.969  0.00  0.00    +0.000 A 
ATOM     21  C   UNL     1       1.685   6.865  20.743  0.00  0.00    +0.000 A 
ATOM     22  C   UNL     1       1.457   8.123  20.180  0.00  0.00    +0.000 A 
BRANCH  20  23
ATOM     23  C   UNL     1       2.453   4.543  20.528  0.00  0.00    +0.000 C 
ATOM     24  N   UNL     1       2.632   3.485  20.973  0.00  0.00    +0.000 NA
ENDBRANCH  20  23
ENDBRANCH  14  17
ENDBRANCH  11  13
BRANCH   8  25
ATOM     25  C   UNL     1      -4.831  11.302  18.358  0.00  0.00    +0.000 C 
ATOM     26  N   UNL     1      -5.771  10.839  17.871  0.00  0.00    +0.000 NA
ENDBRANCH   8  25
BRANCH  12  27
ATOM     27  O   UNL     1       2.501  12.717  18.762  0.00  0.00    +0.000 OA
ATOM     28  H   UNL     1       2.868  11.926  19.206  0.00  0.00    +0.000 HD
ENDBRANCH  12  27
TORSDOF 5
ENDMDL
MODEL 9
REMARK VINA RESULT:      -6.0      5.939      8.572
REMARK  Name = 
REMARK  7 active torsions:
REMARK  status: ('A' for Active; 'I' for Inactive)
REMARK    1  A    between atoms: C_1  and  C_2
REMARK    2  A    between atoms: C_2  and  C_3
REMARK    3  A    between atoms: C_8  and  C_9
REMARK    4  A    between atoms: C_13  and  N_14
REMARK    5  A    between atoms: C_15  and  C_17
REMARK    6  A    between atoms: C_20  and  C_21
REMARK    7  A    between atoms: C_25  and  O_26
REMARK                            x       y       z     vdW  Elec       q    Type
REMARK                         _______ _______ _______ _____ _____    ______ ____
ROOT
ATOM      1  C   UNL     1       0.856   9.544  20.077  0.00  0.00    +0.000 C 
ATOM      2  C   UNL     1       0.361  10.999  20.004  0.00  0.00    +0.000 C 
ATOM      3  C   UNL     1      -0.387  11.278  21.321  0.00  0.00    +0.000 C 
ATOM      4  O   UNL     1       1.520  11.858  19.955  0.00  0.00    +0.000 OA
ATOM      5  C   UNL     1       1.296  13.147  19.539  0.00  0.00    +0.000 A 
ATOM      6  C   UNL     1       2.356  14.026  19.765  0.00  0.00    +0.000 A 
ATOM      7  C   UNL     1       2.235  15.377  19.426  0.00  0.00    +0.000 A 
ATOM      8  C   UNL     1       1.053  15.849  18.853  0.00  0.00    +0.000 A 
ATOM      9  C   UNL     1      -0.003  14.959  18.599  0.00  0.00    +0.000 A 
ATOM     10  C   UNL     1       0.112  13.595  18.926  0.00  0.00    +0.000 A 
ATOM     11  C   UNL     1      -1.032  12.635  18.638  0.00  0.00    +0.000 C 
ATOM     12  C   UNL     1      -0.461  11.190  18.710  0.00  0.00    +0.000 C 
ENDROOT
BRANCH  11  13
ATOM     13  N   UNL     1      -2.149  12.923  19.548  0.00  0.00    +0.000 N 
ATOM     14  C   UNL     1      -3.430  12.468  19.354  0.00  0.00    +0.000 C 
ATOM     15  O   UNL     1      -3.769  11.821  18.371  0.00  0.00    +0.000 OA
ATOM     16  H   UNL     1      -1.908  13.333  20.440  0.00  0.00    +0.000 HD
BRANCH  14  17
ATOM     17  C   UNL     1      -4.391  12.683  20.466  0.00  0.00    +0.000 A 
ATOM     18  C   UNL     1      -3.995  13.255  21.679  0.00  0.00    +0.000 A 
ATOM     19  C   UNL     1      -4.917  13.384  22.721  0.00  0.00    +0.000 A 
ATOM     20  C   UNL     1      -6.239  12.950  22.553  0.00  0.00    +0.000 A 
ATOM     21  C   UNL     1      -6.642  12.407  21.330  0.00  0.00    +0.000 A 
ATOM     22  C   UNL     1      -5.722  12.277  20.286  0.00  0.00    +0.000 A 
BRANCH  20  23
ATOM     23  C   UNL     1      -7.168  13.054  23.639  0.00  0.00    +0.000 C 
ATOM     24  N   UNL     1      -7.916  13.123  24.524  0.00  0.00    +0.000 NA
ENDBRANCH  20  23
ENDBRANCH  14  17
ENDBRANCH  11  13
BRANCH   8  25
ATOM     25  C   UNL     1       0.917  17.241  18.530  0.00  0.00    +0.000 C 
ATOM     26  N   UNL     1       0.820  18.363  18.271  0.00  0.00    +0.000 NA
ENDBRANCH   8  25
BRANCH  12  27
ATOM     27  O   UNL     1      -1.385  10.125  18.507  0.00  0.00    +0.000 OA
ATOM     28  H   UNL     1      -2.289  10.429  18.722  0.00  0.00    +0.000 HD
ENDBRANCH  12  27
TORSDOF 5
ENDMDL
