MODEL 1
REMARK VINA RESULT:      -8.0      0.000      0.000
REMARK  Name = 
REMARK  6 active torsions:
REMARK  status: ('A' for Active; 'I' for Inactive)
REMARK    1  A    between atoms: C_1  and  N_2
REMARK    2  A    between atoms: C_6  and  N_7
REMARK    3  A    between atoms: C_8  and  C_10
REMARK    4  A    between atoms: C_14  and  N_15
REMARK    5  A    between atoms: C_17  and  N_18
REMARK    6  A    between atoms: N_21  and  C_22
REMARK                            x       y       z     vdW  Elec       q    Type
REMARK                         _______ _______ _______ _____ _____    ______ ____
ROOT
ATOM      1  N   UNL     1       0.414   9.777  21.232  0.00  0.00    +0.000 N 
ATOM      2  C   UNL     1      -0.352  10.908  21.312  0.00  0.00    +0.000 A 
ATOM      3  C   UNL     1      -0.901  10.953  22.567  0.00  0.00    +0.000 A 
ATOM      4  C   UNL     1      -0.341   9.841  23.222  0.00  0.00    +0.000 A 
ATOM      5  N   UNL     1       0.468   9.133  22.425  0.00  0.00    +0.000 NA
ENDROOT
BRANCH   1  10
ATOM      6  C   UNL     1       2.287   7.502  18.921  0.00  0.00    +0.000 A 
ATOM      7  C   UNL     1       2.434   8.364  17.815  0.00  0.00    +0.000 A 
ATOM      8  C   UNL     1       1.906   9.655  17.837  0.00  0.00    +0.000 A 
ATOM      9  C   UNL     1       1.228  10.105  18.963  0.00  0.00    +0.000 A 
ATOM     10  C   UNL     1       1.076   9.268  20.075  0.00  0.00    +0.000 A 
ATOM     11  C   UNL     1       1.608   7.956  20.054  0.00  0.00    +0.000 A 
BRANCH   6  13
ATOM     12  N   UNL     1       2.091   4.974  18.609  0.00  0.00    +0.000 N 
ATOM     13  C   UNL     1       2.910   6.152  18.795  0.00  0.00    +0.000 C 
ATOM     14  O   UNL     1       4.126   6.050  18.820  0.00  0.00    +0.000 OA
ATOM     15  H   UNL     1       1.102   5.058  18.445  0.00  0.00    +0.000 HD
BRANCH  12  21
ATOM     16  C   UNL     1       2.574   3.052  21.039  0.00  0.00    +0.000 C 
ATOM     17  N   UNL     1       2.876   2.838  19.645  0.00  0.00    +0.000 N 
ATOM     18  N   UNL     1       3.398   1.647  19.285  0.00  0.00    +0.000 NA
ATOM     19  C   UNL     1       3.540   1.748  17.966  0.00  0.00    +0.000 A 
ATOM     20  C   UNL     1       3.120   2.995  17.482  0.00  0.00    +0.000 A 
ATOM     21  C   UNL     1       2.651   3.689  18.582  0.00  0.00    +0.000 A 
ENDBRANCH  12  21
ENDBRANCH   6  13
ENDBRANCH   1  10
BRANCH   3  22
ATOM     22  N   UNL     1      -1.788  11.894  23.060  0.00  0.00    +0.000 N 
ATOM     23  C   UNL     1      -1.413  13.176  23.419  0.00  0.00    +0.000 C 
ATOM     24  O   UNL     1      -0.282  13.644  23.283  0.00  0.00    +0.000 OA
ATOM     25  N   UNL     1      -2.461  13.873  23.994  0.00  0.00    +0.000 N 
ATOM     26  H   UNL     1      -2.775  11.685  23.008  0.00  0.00    +0.000 HD
ATOM     27  H   UNL     1      -3.042  13.314  24.606  0.00  0.00    +0.000 HD
BRANCH  25  28
ATOM     28  C   UNL     1      -2.287  15.220  24.409  0.00  0.00    +0.000 A 
ATOM     29  C   UNL     1      -1.737  15.514  25.661  0.00  0.00    +0.000 A 
ATOM     30  C   UNL     1      -1.602  16.840  26.076  0.00  0.00    +0.000 A 
ATOM     31  C   UNL     1      -2.025  17.876  25.245  0.00  0.00    +0.000 A 
ATOM     32  C   UNL     1      -2.565  17.591  23.992  0.00  0.00    +0.000 A 
ATOM     33  C   UNL     1      -2.681  16.267  23.565  0.00  0.00    +0.000 A 
ATOM     34 CL   UNL     1      -3.395  15.948  22.024  0.00  0.00    +0.000 Cl
ENDBRANCH  25  28
ENDBRANCH   3  22
TORSDOF 5
ENDMDL
MODEL 2
REMARK VINA RESULT:      -8.0      3.495      4.241
REMARK  Name = 
REMARK  6 active torsions:
REMARK  status: ('A' for Active; 'I' for Inactive)
REMARK    1  A    between atoms: C_1  and  N_2
REMARK    2  A    between atoms: C_6  and  N_7
REMARK    3  A    between atoms: C_8  and  C_10
REMARK    4  A    between atoms: C_14  and  N_15
REMARK    5  A    between atoms: C_17  and  N_18
REMARK    6  A    between atoms: N_21  and  C_22
REMARK                            x       y       z     vdW  Elec       q    Type
REMARK                         _______ _______ _______ _____ _____    ______ ____
ROOT
ATOM      1  N   UNL     1       0.763  10.082  19.085  0.00  0.00    +0.000 N 
ATOM      2  C   UNL     1      -0.561  10.413  19.179  0.00  0.00    +0.000 A 
ATOM      3  C   UNL     1      -0.677  11.754  18.916  0.00  0.00    +0.000 A 
ATOM      4  C   UNL     1       0.632  12.148  18.584  0.00  0.00    +0.000 A 
ATOM      5  N   UNL     1       1.506  11.139  18.669  0.00  0.00    +0.000 NA
ENDROOT
BRANCH   1  10
ATOM      6  C   UNL     1       2.728   6.910  18.777  0.00  0.00    +0.000 A 
ATOM      7  C   UNL     1       2.418   6.322  20.020  0.00  0.00    +0.000 A 
ATOM      8  C   UNL     1       1.596   6.977  20.937  0.00  0.00    +0.000 A 
ATOM      9  C   UNL     1       1.068   8.224  20.625  0.00  0.00    +0.000 A 
ATOM     10  C   UNL     1       1.357   8.822  19.393  0.00  0.00    +0.000 A 
ATOM     11  C   UNL     1       2.195   8.162  18.462  0.00  0.00    +0.000 A 
BRANCH   6  13
ATOM     12  N   UNL     1       4.879   6.624  17.429  0.00  0.00    +0.000 N 
ATOM     13  C   UNL     1       3.599   6.111  17.867  0.00  0.00    +0.000 C 
ATOM     14  O   UNL     1       3.237   4.999  17.515  0.00  0.00    +0.000 OA
ATOM     15  H   UNL     1       5.253   7.472  17.820  0.00  0.00    +0.000 HD
BRANCH  12  21
ATOM     16  C   UNL     1       7.530   5.044  17.986  0.00  0.00    +0.000 C 
ATOM     17  N   UNL     1       6.841   5.237  16.734  0.00  0.00    +0.000 N 
ATOM     18  N   UNL     1       7.344   4.640  15.634  0.00  0.00    +0.000 NA
ATOM     19  C   UNL     1       6.493   4.980  14.669  0.00  0.00    +0.000 A 
ATOM     20  C   UNL     1       5.456   5.797  15.142  0.00  0.00    +0.000 A 
ATOM     21  C   UNL     1       5.669   5.929  16.502  0.00  0.00    +0.000 A 
ENDBRANCH  12  21
ENDBRANCH   6  13
ENDBRANCH   1  10
BRANCH   3  22
ATOM     22  N   UNL     1      -1.830  12.519  18.958  0.00  0.00    +0.000 N 
ATOM     23  C   UNL     1      -2.576  12.704  20.108  0.00  0.00    +0.000 C 
ATOM     24  O   UNL     1      -2.274  12.274  21.221  0.00  0.00    +0.000 OA
ATOM     25  N   UNL     1      -3.740  13.407  19.853  0.00  0.00    +0.000 N 
ATOM     26  H   UNL     1      -2.047  13.090  18.154  0.00  0.00    +0.000 HD
ATOM     27  H   UNL     1      -4.190  13.159  18.980  0.00  0.00    +0.000 HD
BRANCH  25  28
ATOM     28  C   UNL     1      -4.635  13.724  20.911  0.00  0.00    +0.000 A 
ATOM     29  C   UNL     1      -4.373  14.800  21.766  0.00  0.00    +0.000 A 
ATOM     30  C   UNL     1      -5.238  15.083  22.825  0.00  0.00    +0.000 A 
ATOM     31  C   UNL     1      -6.361  14.286  23.038  0.00  0.00    +0.000 A 
ATOM     32  C   UNL     1      -6.633  13.218  22.184  0.00  0.00    +0.000 A 
ATOM     33  C   UNL     1      -5.782  12.946  21.111  0.00  0.00    +0.000 A 
ATOM     34 CL   UNL     1      -6.126  11.588  20.098  0.00  0.00    +0.000 Cl
ENDBRANCH  25  28
ENDBRANCH   3  22
TORSDOF 5
ENDMDL
MODEL 3
REMARK VINA RESULT:      -8.0      1.723      2.031
REMARK  Name = 
REMARK  6 active torsions:
REMARK  status: ('A' for Active; 'I' for Inactive)
REMARK    1  A    between atoms: C_1  and  N_2
REMARK    2  A    between atoms: C_6  and  N_7
REMARK    3  A    between atoms: C_8  and  C_10
REMARK    4  A    between atoms: C_14  and  N_15
REMARK    5  A    between atoms: C_17  and  N_18
REMARK    6  A    between atoms: N_21  and  C_22
REMARK                            x       y       z     vdW  Elec       q    Type
REMARK                         _______ _______ _______ _____ _____    ______ ____
ROOT
ATOM      1  N   UNL     1       0.334  10.012  21.276  0.00  0.00    +0.000 N 
ATOM      2  C   UNL     1       0.018  11.334  21.429  0.00  0.00    +0.000 A 
ATOM      3  C   UNL     1      -0.713  11.458  22.583  0.00  0.00    +0.000 A 
ATOM      4  C   UNL     1      -0.721  10.158  23.119  0.00  0.00    +0.000 A 
ATOM      5  N   UNL     1      -0.077   9.280  22.342  0.00  0.00    +0.000 NA
ENDROOT
BRANCH   1  10
ATOM      6  C   UNL     1       2.137   7.532  19.126  0.00  0.00    +0.000 A 
ATOM      7  C   UNL     1       2.324   8.317  17.971  0.00  0.00    +0.000 A 
ATOM      8  C   UNL     1       1.844   9.626  17.908  0.00  0.00    +0.000 A 
ATOM      9  C   UNL     1       1.175  10.169  18.998  0.00  0.00    +0.000 A 
ATOM     10  C   UNL     1       0.985   9.409  20.158  0.00  0.00    +0.000 A 
ATOM     11  C   UNL     1       1.467   8.079  20.223  0.00  0.00    +0.000 A 
BRANCH   6  13
ATOM     12  N   UNL     1       2.085   5.114  18.302  0.00  0.00    +0.000 N 
ATOM     13  C   UNL     1       2.710   6.155  19.090  0.00  0.00    +0.000 C 
ATOM     14  O   UNL     1       3.735   5.917  19.709  0.00  0.00    +0.000 OA
ATOM     15  H   UNL     1       1.327   5.330  17.678  0.00  0.00    +0.000 HD
BRANCH  12  21
ATOM     16  C   UNL     1       1.344   2.868  20.360  0.00  0.00    +0.000 C 
ATOM     17  N   UNL     1       2.242   2.799  19.234  0.00  0.00    +0.000 N 
ATOM     18  N   UNL     1       2.833   1.616  18.965  0.00  0.00    +0.000 NA
ATOM     19  C   UNL     1       3.564   1.865  17.880  0.00  0.00    +0.000 A 
ATOM     20  C   UNL     1       3.452   3.198  17.461  0.00  0.00    +0.000 A 
ATOM     21  C   UNL     1       2.555   3.794  18.328  0.00  0.00    +0.000 A 
ENDBRANCH  12  21
ENDBRANCH   6  13
ENDBRANCH   1  10
BRANCH   3  22
ATOM     22  N   UNL     1      -1.287  12.611  23.091  0.00  0.00    +0.000 N 
ATOM     23  C   UNL     1      -2.543  13.058  22.724  0.00  0.00    +0.000 C 
ATOM     24  O   UNL     1      -3.311  12.461  21.968  0.00  0.00    +0.000 OA
ATOM     25  N   UNL     1      -2.829  14.292  23.281  0.00  0.00    +0.000 N 
ATOM     26  H   UNL     1      -0.835  13.058  23.875  0.00  0.00    +0.000 HD
ATOM     27  H   UNL     1      -2.041  14.927  23.304  0.00  0.00    +0.000 HD
BRANCH  25  28
ATOM     28  C   UNL     1      -4.085  14.913  23.046  0.00  0.00    +0.000 A 
ATOM     29  C   UNL     1      -5.186  14.625  23.861  0.00  0.00    +0.000 A 
ATOM     30  C   UNL     1      -6.425  15.212  23.601  0.00  0.00    +0.000 A 
ATOM     31  C   UNL     1      -6.572  16.081  22.522  0.00  0.00    +0.000 A 
ATOM     32  C   UNL     1      -5.477  16.379  21.711  0.00  0.00    +0.000 A 
ATOM     33  C   UNL     1      -4.231  15.811  21.981  0.00  0.00    +0.000 A 
ATOM     34 CL   UNL     1      -2.906  16.169  20.930  0.00  0.00    +0.000 Cl
ENDBRANCH  25  28
ENDBRANCH   3  22
TORSDOF 5
ENDMDL
MODEL 4
REMARK VINA RESULT:      -7.9      2.807      3.609
REMARK  Name = 
REMARK  6 active torsions:
REMARK  status: ('A' for Active; 'I' for Inactive)
REMARK    1  A    between atoms: C_1  and  N_2
REMARK    2  A    between atoms: C_6  and  N_7
REMARK    3  A    between atoms: C_8  and  C_10
REMARK    4  A    between atoms: C_14  and  N_15
REMARK    5  A    between atoms: C_17  and  N_18
REMARK    6  A    between atoms: N_21  and  C_22
REMARK                            x       y       z     vdW  Elec       q    Type
REMARK                         _______ _______ _______ _____ _____    ______ ____
ROOT
ATOM      1  N   UNL     1       0.788   8.843  20.856  0.00  0.00    +0.000 N 
ATOM      2  C   UNL     1      -0.085   8.956  21.904  0.00  0.00    +0.000 A 
ATOM      3  C   UNL     1      -0.383  10.285  22.059  0.00  0.00    +0.000 A 
ATOM      4  C   UNL     1       0.294  10.909  20.995  0.00  0.00    +0.000 A 
ATOM      5  N   UNL     1       0.992  10.041  20.254  0.00  0.00    +0.000 NA
ENDROOT
BRANCH   1  10
ATOM      6  C   UNL     1       2.936   6.501  18.875  0.00  0.00    +0.000 A 
ATOM      7  C   UNL     1       2.651   5.296  19.550  0.00  0.00    +0.000 A 
ATOM      8  C   UNL     1       1.785   5.275  20.644  0.00  0.00    +0.000 A 
ATOM      9  C   UNL     1       1.189   6.453  21.076  0.00  0.00    +0.000 A 
ATOM     10  C   UNL     1       1.451   7.659  20.415  0.00  0.00    +0.000 A 
ATOM     11  C   UNL     1       2.333   7.685  19.308  0.00  0.00    +0.000 A 
BRANCH   6  13
ATOM     12  N   UNL     1       4.607   5.190  17.456  0.00  0.00    +0.000 N 
ATOM     13  C   UNL     1       3.859   6.402  17.708  0.00  0.00    +0.000 C 
ATOM     14  O   UNL     1       3.957   7.348  16.941  0.00  0.00    +0.000 OA
ATOM     15  H   UNL     1       4.431   4.359  17.993  0.00  0.00    +0.000 HD
BRANCH  12  21
ATOM     16  C   UNL     1       7.420   6.569  17.324  0.00  0.00    +0.000 C 
ATOM     17  N   UNL     1       6.785   5.720  16.347  0.00  0.00    +0.000 N 
ATOM     18  N   UNL     1       7.474   5.416  15.228  0.00  0.00    +0.000 NA
ATOM     19  C   UNL     1       6.649   4.618  14.553  0.00  0.00    +0.000 A 
ATOM     20  C   UNL     1       5.436   4.418  15.228  0.00  0.00    +0.000 A 
ATOM     21  C   UNL     1       5.548   5.111  16.419  0.00  0.00    +0.000 A 
ENDBRANCH  12  21
ENDBRANCH   6  13
ENDBRANCH   1  10
BRANCH   3  22
ATOM     22  N   UNL     1      -1.180  10.857  23.035  0.00  0.00    +0.000 N 
ATOM     23  C   UNL     1      -2.124  11.831  22.769  0.00  0.00    +0.000 C 
ATOM     24  O   UNL     1      -2.409  12.250  21.647  0.00  0.00    +0.000 OA
ATOM     25  N   UNL     1      -2.696  12.319  23.931  0.00  0.00    +0.000 N 
ATOM     26  H   UNL     1      -1.179  10.434  23.952  0.00  0.00    +0.000 HD
ATOM     27  H   UNL     1      -2.044  12.427  24.698  0.00  0.00    +0.000 HD
BRANCH  25  28
ATOM     28  C   UNL     1      -3.711  13.311  23.871  0.00  0.00    +0.000 A 
ATOM     29  C   UNL     1      -5.047  12.952  23.662  0.00  0.00    +0.000 A 
ATOM     30  C   UNL     1      -6.033  13.936  23.568  0.00  0.00    +0.000 A 
ATOM     31  C   UNL     1      -5.686  15.281  23.674  0.00  0.00    +0.000 A 
ATOM     32  C   UNL     1      -4.358  15.646  23.892  0.00  0.00    +0.000 A 
ATOM     33  C   UNL     1      -3.373  14.664  24.009  0.00  0.00    +0.000 A 
ATOM     34 CL   UNL     1      -1.731  15.153  24.236  0.00  0.00    +0.000 Cl
ENDBRANCH  25  28
ENDBRANCH   3  22
TORSDOF 5
ENDMDL
MODEL 5
REMARK VINA RESULT:      -7.9      7.476     10.741
REMARK  Name = 
REMARK  6 active torsions:
REMARK  status: ('A' for Active; 'I' for Inactive)
REMARK    1  A    between atoms: C_1  and  N_2
REMARK    2  A    between atoms: C_6  and  N_7
REMARK    3  A    between atoms: C_8  and  C_10
REMARK    4  A    between atoms: C_14  and  N_15
REMARK    5  A    between atoms: C_17  and  N_18
REMARK    6  A    between atoms: N_21  and  C_22
REMARK                            x       y       z     vdW  Elec       q    Type
REMARK                         _______ _______ _______ _____ _____    ______ ____
ROOT
ATOM      1  N   UNL     1       3.661  15.999  18.635  0.00  0.00    +0.000 N 
ATOM      2  C   UNL     1       4.485  15.024  18.144  0.00  0.00    +0.000 A 
ATOM      3  C   UNL     1       5.755  15.538  18.089  0.00  0.00    +0.000 A 
ATOM      4  C   UNL     1       5.626  16.821  18.653  0.00  0.00    +0.000 A 
ATOM      5  N   UNL     1       4.364  17.101  19.001  0.00  0.00    +0.000 NA
ENDROOT
BRANCH   1  10
ATOM      6  C   UNL     1       0.163  14.683  18.871  0.00  0.00    +0.000 A 
ATOM      7  C   UNL     1      -0.543  15.903  18.898  0.00  0.00    +0.000 A 
ATOM      8  C   UNL     1       0.132  17.123  18.859  0.00  0.00    +0.000 A 
ATOM      9  C   UNL     1       1.520  17.143  18.789  0.00  0.00    +0.000 A 
ATOM     10  C   UNL     1       2.240  15.944  18.753  0.00  0.00    +0.000 A 
ATOM     11  C   UNL     1       1.558  14.704  18.797  0.00  0.00    +0.000 A 
BRANCH   6  13
ATOM     12  N   UNL     1      -1.090  12.812  17.665  0.00  0.00    +0.000 N 
ATOM     13  C   UNL     1      -0.662  13.441  18.896  0.00  0.00    +0.000 C 
ATOM     14  O   UNL     1      -0.950  12.936  19.969  0.00  0.00    +0.000 OA
ATOM     15  H   UNL     1      -0.744  13.134  16.778  0.00  0.00    +0.000 HD
BRANCH  12  21
ATOM     16  C   UNL     1      -0.282   9.793  17.925  0.00  0.00    +0.000 C 
ATOM     17  N   UNL     1      -1.597  10.366  17.775  0.00  0.00    +0.000 N 
ATOM     18  N   UNL     1      -2.657   9.531  17.787  0.00  0.00    +0.000 NA
ATOM     19  C   UNL     1      -3.704  10.344  17.656  0.00  0.00    +0.000 A 
ATOM     20  C   UNL     1      -3.320  11.689  17.552  0.00  0.00    +0.000 A 
ATOM     21  C   UNL     1      -1.942  11.699  17.669  0.00  0.00    +0.000 A 
ENDBRANCH  12  21
ENDBRANCH   6  13
ENDBRANCH   1  10
BRANCH   3  22
ATOM     22  N   UNL     1       6.891  14.915  17.601  0.00  0.00    +0.000 N 
ATOM     23  C   UNL     1       7.869  14.374  18.415  0.00  0.00    +0.000 C 
ATOM     24  O   UNL     1       7.815  14.323  19.644  0.00  0.00    +0.000 OA
ATOM     25  N   UNL     1       8.952  13.922  17.681  0.00  0.00    +0.000 N 
ATOM     26  H   UNL     1       6.929  14.712  16.612  0.00  0.00    +0.000 HD
ATOM     27  H   UNL     1       9.200  14.519  16.901  0.00  0.00    +0.000 HD
BRANCH  25  28
ATOM     28  C   UNL     1      10.054  13.307  18.331  0.00  0.00    +0.000 A 
ATOM     29  C   UNL     1      10.068  11.926  18.556  0.00  0.00    +0.000 A 
ATOM     30  C   UNL     1      11.139  11.334  19.228  0.00  0.00    +0.000 A 
ATOM     31  C   UNL     1      12.195  12.120  19.685  0.00  0.00    +0.000 A 
ATOM     32  C   UNL     1      12.192  13.495  19.456  0.00  0.00    +0.000 A 
ATOM     33  C   UNL     1      11.134  14.088  18.765  0.00  0.00    +0.000 A 
ATOM     34 CL   UNL     1      11.142  15.801  18.536  0.00  0.00    +0.000 Cl
ENDBRANCH  25  28
ENDBRANCH   3  22
TORSDOF 5
ENDMDL
MODEL 6
REMARK VINA RESULT:      -7.8      3.301      4.075
REMARK  Name = 
REMARK  6 active torsions:
REMARK  status: ('A' for Active; 'I' for Inactive)
REMARK    1  A    between atoms: C_1  and  N_2
REMARK    2  A    between atoms: C_6  and  N_7
REMARK    3  A    between atoms: C_8  and  C_10
REMARK    4  A    between atoms: C_14  and  N_15
REMARK    5  A    between atoms: C_17  and  N_18
REMARK    6  A    between atoms: N_21  and  C_22
REMARK                            x       y       z     vdW  Elec       q    Type
REMARK                         _______ _______ _______ _____ _____    ______ ____
ROOT
ATOM      1  N   UNL     1       0.772  10.078  19.125  0.00  0.00    +0.000 N 
ATOM      2  C   UNL     1      -0.550  10.407  19.244  0.00  0.00    +0.000 A 
ATOM      3  C   UNL     1      -0.673  11.746  18.977  0.00  0.00    +0.000 A 
ATOM      4  C   UNL     1       0.628  12.141  18.618  0.00  0.00    +0.000 A 
ATOM      5  N   UNL     1       1.506  11.133  18.690  0.00  0.00    +0.000 NA
ENDROOT
BRANCH   1  10
ATOM      6  C   UNL     1       2.744   6.911  18.794  0.00  0.00    +0.000 A 
ATOM      7  C   UNL     1       2.452   6.323  20.042  0.00  0.00    +0.000 A 
ATOM      8  C   UNL     1       1.639   6.976  20.969  0.00  0.00    +0.000 A 
ATOM      9  C   UNL     1       1.104   8.221  20.662  0.00  0.00    +0.000 A 
ATOM     10  C   UNL     1       1.374   8.820  19.426  0.00  0.00    +0.000 A 
ATOM     11  C   UNL     1       2.202   8.161  18.485  0.00  0.00    +0.000 A 
BRANCH   6  13
ATOM     12  N   UNL     1       4.892   6.618  17.443  0.00  0.00    +0.000 N 
ATOM     13  C   UNL     1       3.606   6.115  17.873  0.00  0.00    +0.000 C 
ATOM     14  O   UNL     1       3.230   5.012  17.506  0.00  0.00    +0.000 OA
ATOM     15  H   UNL     1       5.276   7.455  17.847  0.00  0.00    +0.000 HD
BRANCH  12  21
ATOM     16  C   UNL     1       7.538   5.021  17.975  0.00  0.00    +0.000 C 
ATOM     17  N   UNL     1       6.844   5.227  16.728  0.00  0.00    +0.000 N 
ATOM     18  N   UNL     1       7.339   4.635  15.621  0.00  0.00    +0.000 NA
ATOM     19  C   UNL     1       6.484   4.987  14.663  0.00  0.00    +0.000 A 
ATOM     20  C   UNL     1       5.453   5.805  15.148  0.00  0.00    +0.000 A 
ATOM     21  C   UNL     1       5.674   5.926  16.507  0.00  0.00    +0.000 A 
ENDBRANCH  12  21
ENDBRANCH   6  13
ENDBRANCH   1  10
BRANCH   3  22
ATOM     22  N   UNL     1      -1.826  12.510  19.039  0.00  0.00    +0.000 N 
ATOM     23  C   UNL     1      -2.532  12.725  20.209  0.00  0.00    +0.000 C 
ATOM     24  O   UNL     1      -2.189  12.327  21.322  0.00  0.00    +0.000 OA
ATOM     25  N   UNL     1      -3.707  13.418  19.977  0.00  0.00    +0.000 N 
ATOM     26  H   UNL     1      -2.074  13.058  18.228  0.00  0.00    +0.000 HD
ATOM     27  H   UNL     1      -4.186  13.145  19.127  0.00  0.00    +0.000 HD
BRANCH  25  28
ATOM     28  C   UNL     1      -4.564  13.762  21.056  0.00  0.00    +0.000 A 
ATOM     29  C   UNL     1      -5.557  12.876  21.487  0.00  0.00    +0.000 A 
ATOM     30  C   UNL     1      -6.418  13.237  22.525  0.00  0.00    +0.000 A 
ATOM     31  C   UNL     1      -6.296  14.487  23.128  0.00  0.00    +0.000 A 
ATOM     32  C   UNL     1      -5.303  15.372  22.710  0.00  0.00    +0.000 A 
ATOM     33  C   UNL     1      -4.426  15.006  21.688  0.00  0.00    +0.000 A 
ATOM     34 CL   UNL     1      -3.234  16.142  21.165  0.00  0.00    +0.000 Cl
ENDBRANCH  25  28
ENDBRANCH   3  22
TORSDOF 5
ENDMDL
MODEL 7
REMARK VINA RESULT:      -7.8      2.021      2.419
REMARK  Name = 
REMARK  6 active torsions:
REMARK  status: ('A' for Active; 'I' for Inactive)
REMARK    1  A    between atoms: C_1  and  N_2
REMARK    2  A    between atoms: C_6  and  N_7
REMARK    3  A    between atoms: C_8  and  C_10
REMARK    4  A    between atoms: C_14  and  N_15
REMARK    5  A    between atoms: C_17  and  N_18
REMARK    6  A    between atoms: N_21  and  C_22
REMARK                            x       y       z     vdW  Elec       q    Type
REMARK                         _______ _______ _______ _____ _____    ______ ____
ROOT
ATOM      1  N   UNL     1       0.335   9.942  21.302  0.00  0.00    +0.000 N 
ATOM      2  C   UNL     1      -0.165  11.211  21.408  0.00  0.00    +0.000 A 
ATOM      3  C   UNL     1      -0.836  11.297  22.600  0.00  0.00    +0.000 A 
ATOM      4  C   UNL     1      -0.619  10.044  23.202  0.00  0.00    +0.000 A 
ATOM      5  N   UNL     1       0.102   9.224  22.430  0.00  0.00    +0.000 NA
ENDROOT
BRANCH   1  10
ATOM      6  C   UNL     1       2.177   7.531  19.107  0.00  0.00    +0.000 A 
ATOM      7  C   UNL     1       2.370   8.348  17.974  0.00  0.00    +0.000 A 
ATOM      8  C   UNL     1       1.882   9.655  17.941  0.00  0.00    +0.000 A 
ATOM      9  C   UNL     1       1.198  10.164  19.038  0.00  0.00    +0.000 A 
ATOM     10  C   UNL     1       1.002   9.373  20.176  0.00  0.00    +0.000 A 
ATOM     11  C   UNL     1       1.493   8.045  20.211  0.00  0.00    +0.000 A 
BRANCH   6  13
ATOM     12  N   UNL     1       2.083   5.102  18.320  0.00  0.00    +0.000 N 
ATOM     13  C   UNL     1       2.760   6.160  19.039  0.00  0.00    +0.000 C 
ATOM     14  O   UNL     1       3.836   5.940  19.573  0.00  0.00    +0.000 OA
ATOM     15  H   UNL     1       1.273   5.301  17.760  0.00  0.00    +0.000 HD
BRANCH  12  21
ATOM     16  C   UNL     1       1.396   2.822  20.361  0.00  0.00    +0.000 C 
ATOM     17  N   UNL     1       2.279   2.778  19.222  0.00  0.00    +0.000 N 
ATOM     18  N   UNL     1       2.879   1.605  18.930  0.00  0.00    +0.000 NA
ATOM     19  C   UNL     1       3.592   1.875  17.839  0.00  0.00    +0.000 A 
ATOM     20  C   UNL     1       3.459   3.212  17.437  0.00  0.00    +0.000 A 
ATOM     21  C   UNL     1       2.568   3.787  18.325  0.00  0.00    +0.000 A 
ENDBRANCH  12  21
ENDBRANCH   6  13
ENDBRANCH   1  10
BRANCH   3  22
ATOM     22  N   UNL     1      -1.545  12.383  23.086  0.00  0.00    +0.000 N 
ATOM     23  C   UNL     1      -2.676  12.887  22.470  0.00  0.00    +0.000 C 
ATOM     24  O   UNL     1      -3.214  12.400  21.476  0.00  0.00    +0.000 OA
ATOM     25  N   UNL     1      -3.120  14.044  23.086  0.00  0.00    +0.000 N 
ATOM     26  H   UNL     1      -1.316  12.722  24.009  0.00  0.00    +0.000 HD
ATOM     27  H   UNL     1      -2.377  14.662  23.388  0.00  0.00    +0.000 HD
BRANCH  25  28
ATOM     28  C   UNL     1      -4.288  14.704  22.619  0.00  0.00    +0.000 A 
ATOM     29  C   UNL     1      -4.189  15.799  21.754  0.00  0.00    +0.000 A 
ATOM     30  C   UNL     1      -5.340  16.465  21.329  0.00  0.00    +0.000 A 
ATOM     31  C   UNL     1      -6.592  16.045  21.773  0.00  0.00    +0.000 A 
ATOM     32  C   UNL     1      -6.699  14.948  22.628  0.00  0.00    +0.000 A 
ATOM     33  C   UNL     1      -5.552  14.266  23.038  0.00  0.00    +0.000 A 
ATOM     34 CL   UNL     1      -5.717  12.938  24.131  0.00  0.00    +0.000 Cl
ENDBRANCH  25  28
ENDBRANCH   3  22
TORSDOF 5
ENDMDL
MODEL 8
REMARK VINA RESULT:      -7.8      2.525      2.968
REMARK  Name = 
REMARK  6 active torsions:
REMARK  status: ('A' for Active; 'I' for Inactive)
REMARK    1  A    between atoms: C_1  and  N_2
REMARK    2  A    between atoms: C_6  and  N_7
REMARK    3  A    between atoms: C_8  and  C_10
REMARK    4  A    between atoms: C_14  and  N_15
REMARK    5  A    between atoms: C_17  and  N_18
REMARK    6  A    between atoms: N_21  and  C_22
REMARK                            x       y       z     vdW  Elec       q    Type
REMARK                         _______ _______ _______ _____ _____    ______ ____
ROOT
ATOM      1  N   UNL     1       0.295  11.007  20.736  0.00  0.00    +0.000 N 
ATOM      2  C   UNL     1      -0.856  10.776  21.440  0.00  0.00    +0.000 A 
ATOM      3  C   UNL     1      -1.055  11.843  22.278  0.00  0.00    +0.000 A 
ATOM      4  C   UNL     1      -0.011  12.728  21.954  0.00  0.00    +0.000 A 
ATOM      5  N   UNL     1       0.802  12.236  21.011  0.00  0.00    +0.000 NA
ENDROOT
BRANCH   1  10
ATOM      6  C   UNL     1       1.828   7.911  19.292  0.00  0.00    +0.000 A 
ATOM      7  C   UNL     1       2.301   8.433  18.071  0.00  0.00    +0.000 A 
ATOM      8  C   UNL     1       2.095   9.772  17.736  0.00  0.00    +0.000 A 
ATOM      9  C   UNL     1       1.418  10.608  18.616  0.00  0.00    +0.000 A 
ATOM     10  C   UNL     1       0.946  10.112  19.837  0.00  0.00    +0.000 A 
ATOM     11  C   UNL     1       1.150   8.753  20.178  0.00  0.00    +0.000 A 
BRANCH   6  13
ATOM     12  N   UNL     1       2.420   5.567  18.466  0.00  0.00    +0.000 N 
ATOM     13  C   UNL     1       2.123   6.473  19.555  0.00  0.00    +0.000 C 
ATOM     14  O   UNL     1       2.144   6.067  20.706  0.00  0.00    +0.000 OA
ATOM     15  H   UNL     1       2.546   5.914  17.531  0.00  0.00    +0.000 HD
BRANCH  12  21
ATOM     16  C   UNL     1       5.114   4.086  19.083  0.00  0.00    +0.000 C 
ATOM     17  N   UNL     1       3.790   3.532  18.949  0.00  0.00    +0.000 N 
ATOM     18  N   UNL     1       3.634   2.207  19.151  0.00  0.00    +0.000 NA
ATOM     19  C   UNL     1       2.327   2.011  18.984  0.00  0.00    +0.000 A 
ATOM     20  C   UNL     1       1.650   3.198  18.668  0.00  0.00    +0.000 A 
ATOM     21  C   UNL     1       2.608   4.195  18.685  0.00  0.00    +0.000 A 
ENDBRANCH  12  21
ENDBRANCH   6  13
ENDBRANCH   1  10
BRANCH   3  22
ATOM     22  N   UNL     1      -2.067  11.998  23.210  0.00  0.00    +0.000 N 
ATOM     23  C   UNL     1      -3.283  12.589  22.918  0.00  0.00    +0.000 C 
ATOM     24  O   UNL     1      -3.628  12.979  21.803  0.00  0.00    +0.000 OA
ATOM     25  N   UNL     1      -4.066  12.730  24.050  0.00  0.00    +0.000 N 
ATOM     26  H   UNL     1      -1.970  11.521  24.095  0.00  0.00    +0.000 HD
ATOM     27  H   UNL     1      -3.549  12.994  24.880  0.00  0.00    +0.000 HD
BRANCH  25  28
ATOM     28  C   UNL     1      -5.367  13.293  23.959  0.00  0.00    +0.000 A 
ATOM     29  C   UNL     1      -6.494  12.470  23.860  0.00  0.00    +0.000 A 
ATOM     30  C   UNL     1      -7.766  13.032  23.733  0.00  0.00    +0.000 A 
ATOM     31  C   UNL     1      -7.915  14.417  23.697  0.00  0.00    +0.000 A 
ATOM     32  C   UNL     1      -6.797  15.243  23.804  0.00  0.00    +0.000 A 
ATOM     33  C   UNL     1      -5.526  14.686  23.953  0.00  0.00    +0.000 A 
ATOM     34 CL   UNL     1      -4.158  15.738  24.040  0.00  0.00    +0.000 Cl
ENDBRANCH  25  28
ENDBRANCH   3  22
TORSDOF 5
ENDMDL
MODEL 9
REMARK VINA RESULT:      -7.8      3.639      4.362
REMARK  Name = 
REMARK  6 active torsions:
REMARK  status: ('A' for Active; 'I' for Inactive)
REMARK    1  A    between atoms: C_1  and  N_2
REMARK    2  A    between atoms: C_6  and  N_7
REMARK    3  A    between atoms: C_8  and  C_10
REMARK    4  A    between atoms: C_14  and  N_15
REMARK    5  A    between atoms: C_17  and  N_18
REMARK    6  A    between atoms: N_21  and  C_22
REMARK                            x       y       z     vdW  Elec       q    Type
REMARK                         _______ _______ _______ _____ _____    ______ ____
ROOT
ATOM      1  N   UNL     1       0.393  10.473  19.060  0.00  0.00    +0.000 N 
ATOM      2  C   UNL     1      -0.968  10.573  18.959  0.00  0.00    +0.000 A 
ATOM      3  C   UNL     1      -1.286  11.906  18.906  0.00  0.00    +0.000 A 
ATOM      4  C   UNL     1      -0.036  12.552  18.894  0.00  0.00    +0.000 A 
ATOM      5  N   UNL     1       0.985  11.691  18.971  0.00  0.00    +0.000 NA
ENDROOT
BRANCH   1  10
ATOM      6  C   UNL     1       2.750   7.623  18.474  0.00  0.00    +0.000 A 
ATOM      7  C   UNL     1       2.547   6.903  19.670  0.00  0.00    +0.000 A 
ATOM      8  C   UNL     1       1.666   7.369  20.646  0.00  0.00    +0.000 A 
ATOM      9  C   UNL     1       0.973   8.556  20.441  0.00  0.00    +0.000 A 
ATOM     10  C   UNL     1       1.153   9.282  19.258  0.00  0.00    +0.000 A 
ATOM     11  C   UNL     1       2.051   8.814  18.267  0.00  0.00    +0.000 A 
BRANCH   6  13
ATOM     12  N   UNL     1       4.391   5.787  17.795  0.00  0.00    +0.000 N 
ATOM     13  C   UNL     1       3.699   7.020  17.493  0.00  0.00    +0.000 C 
ATOM     14  O   UNL     1       3.866   7.563  16.412  0.00  0.00    +0.000 OA
ATOM     15  H   UNL     1       4.159   5.256  18.617  0.00  0.00    +0.000 HD
BRANCH  12  21
ATOM     16  C   UNL     1       7.423   6.564  17.605  0.00  0.00    +0.000 C 
ATOM     17  N   UNL     1       6.690   5.596  16.828  0.00  0.00    +0.000 N 
ATOM     18  N   UNL     1       7.368   4.872  15.913  0.00  0.00    +0.000 NA
ATOM     19  C   UNL     1       6.441   4.071  15.392  0.00  0.00    +0.000 A 
ATOM     20  C   UNL     1       5.177   4.283  15.960  0.00  0.00    +0.000 A 
ATOM     21  C   UNL     1       5.355   5.256  16.926  0.00  0.00    +0.000 A 
ENDBRANCH  12  21
ENDBRANCH   6  13
ENDBRANCH   1  10
BRANCH   3  22
ATOM     22  N   UNL     1      -2.552  12.464  18.860  0.00  0.00    +0.000 N 
ATOM     23  C   UNL     1      -3.337  12.658  19.982  0.00  0.00    +0.000 C 
ATOM     24  O   UNL     1      -2.984  12.424  21.138  0.00  0.00    +0.000 OA
ATOM     25  N   UNL     1      -4.599  13.116  19.649  0.00  0.00    +0.000 N 
ATOM     26  H   UNL     1      -2.850  12.887  17.993  0.00  0.00    +0.000 HD
ATOM     27  H   UNL     1      -4.986  12.691  18.816  0.00  0.00    +0.000 HD
BRANCH  25  28
ATOM     28  C   UNL     1      -5.551  13.402  20.665  0.00  0.00    +0.000 A 
ATOM     29  C   UNL     1      -6.423  12.409  21.125  0.00  0.00    +0.000 A 
ATOM     30  C   UNL     1      -7.379  12.709  22.096  0.00  0.00    +0.000 A 
ATOM     31  C   UNL     1      -7.473  14.002  22.606  0.00  0.00    +0.000 A 
ATOM     32  C   UNL     1      -6.602  14.995  22.159  0.00  0.00    +0.000 A 
ATOM     33  C   UNL     1      -5.630  14.694  21.203  0.00  0.00    +0.000 A 
ATOM     34 CL   UNL     1      -4.594  15.957  20.640  0.00  0.00    +0.000 Cl
ENDBRANCH  25  28
ENDBRANCH   3  22
TORSDOF 5
ENDMDL
