MODEL 1
REMARK VINA RESULT:      -6.6      0.000      0.000
REMARK  Name = 
REMARK  6 active torsions:
REMARK  status: ('A' for Active; 'I' for Inactive)
REMARK    1  A    between atoms: C_1  and  C_2
REMARK    2  A    between atoms: C_2  and  C_3
REMARK    3  A    between atoms: C_3  and  C_4
REMARK    4  A    between atoms: C_4  and  C_5
REMARK    5  A    between atoms: N_7  and  C_8
REMARK    6  A    between atoms: C_8  and  C_9
REMARK                            x       y       z     vdW  Elec       q    Type
REMARK                         _______ _______ _______ _____ _____    ______ ____
ROOT
ATOM      1  C   UNL     1       6.806   4.570  15.994  0.00  0.00    +0.000 C 
ATOM      2  O   UNL     1       7.764   4.401  16.742  0.00  0.00    +0.000 OA
ATOM      3  N   UNL     1       5.521   4.733  16.456  0.00  0.00    +0.000 N 
ATOM      4  H   UNL     1       4.754   4.796  15.798  0.00  0.00    +0.000 HD
ENDROOT
BRANCH   1   5
ATOM      5  C   UNL     1       6.954   4.676  14.486  0.00  0.00    +0.000 C 
BRANCH   5   6
ATOM      6  C   UNL     1       6.099   3.614  13.795  0.00  0.00    +0.000 C 
BRANCH   6   8
ATOM      7  C   UNL     1       4.910   3.139  11.636  0.00  0.00    +0.000 C 
ATOM      8  C   UNL     1       6.174   3.700  12.272  0.00  0.00    +0.000 C 
ENDBRANCH   6   8
ENDBRANCH   5   6
ENDBRANCH   1   5
BRANCH   3   9
ATOM      9  C   UNL     1       5.214   4.630  17.865  0.00  0.00    +0.000 C 
BRANCH   9  10
ATOM     10  C   UNL     1       3.874   3.981  18.109  0.00  0.00    +0.000 A 
ATOM     11  C   UNL     1       3.802   2.696  18.676  0.00  0.00    +0.000 A 
ATOM     12  C   UNL     1       2.568   2.092  18.917  0.00  0.00    +0.000 A 
ATOM     13  C   UNL     1       1.401   2.768  18.586  0.00  0.00    +0.000 A 
ATOM     14  F   UNL     1       0.214   2.192  18.819  0.00  0.00    +0.000 F 
ATOM     15  C   UNL     1       1.447   4.036  18.014  0.00  0.00    +0.000 A 
ATOM     16  C   UNL     1       2.682   4.640  17.772  0.00  0.00    +0.000 A 
ENDBRANCH   9  10
ENDBRANCH   3   9
TORSDOF 5
ENDMDL
MODEL 2
REMARK VINA RESULT:      -6.4      1.621      2.373
REMARK  Name = 
REMARK  6 active torsions:
REMARK  status: ('A' for Active; 'I' for Inactive)
REMARK    1  A    between atoms: C_1  and  C_2
REMARK    2  A    between atoms: C_2  and  C_3
REMARK    3  A    between atoms: C_3  and  C_4
REMARK    4  A    between atoms: C_4  and  C_5
REMARK    5  A    between atoms: N_7  and  C_8
REMARK    6  A    between atoms: C_8  and  C_9
REMARK                            x       y       z     vdW  Elec       q    Type
REMARK                         _______ _______ _______ _____ _____    ______ ____
ROOT
ATOM      1  C   UNL     1       6.355   5.457  18.640  0.00  0.00    +0.000 C 
ATOM      2  O   UNL     1       6.669   5.211  19.800  0.00  0.00    +0.000 OA
ATOM      3  N   UNL     1       5.097   5.882  18.284  0.00  0.00    +0.000 N 
ATOM      4  H   UNL     1       4.864   6.002  17.305  0.00  0.00    +0.000 HD
ENDROOT
BRANCH   1   5
ATOM      5  C   UNL     1       7.343   5.376  17.490  0.00  0.00    +0.000 C 
BRANCH   5   6
ATOM      6  C   UNL     1       6.865   4.360  16.452  0.00  0.00    +0.000 C 
BRANCH   6   8
ATOM      7  C   UNL     1       6.205   4.003  14.057  0.00  0.00    +0.000 C 
ATOM      8  C   UNL     1       6.992   4.879  15.021  0.00  0.00    +0.000 C 
ENDBRANCH   6   8
ENDBRANCH   5   6
ENDBRANCH   1   5
BRANCH   3   9
ATOM      9  C   UNL     1       4.037   5.983  19.262  0.00  0.00    +0.000 C 
BRANCH   9  10
ATOM     10  C   UNL     1       3.004   4.895  19.096  0.00  0.00    +0.000 A 
ATOM     11  C   UNL     1       2.036   4.679  20.092  0.00  0.00    +0.000 A 
ATOM     12  C   UNL     1       1.069   3.685  19.944  0.00  0.00    +0.000 A 
ATOM     13  C   UNL     1       1.072   2.896  18.800  0.00  0.00    +0.000 A 
ATOM     14  F   UNL     1       0.144   1.942  18.652  0.00  0.00    +0.000 F 
ATOM     15  C   UNL     1       2.028   3.083  17.806  0.00  0.00    +0.000 A 
ATOM     16  C   UNL     1       2.995   4.078  17.956  0.00  0.00    +0.000 A 
ENDBRANCH   9  10
ENDBRANCH   3   9
TORSDOF 5
ENDMDL
MODEL 3
REMARK VINA RESULT:      -6.3      2.178      3.032
REMARK  Name = 
REMARK  6 active torsions:
REMARK  status: ('A' for Active; 'I' for Inactive)
REMARK    1  A    between atoms: C_1  and  C_2
REMARK    2  A    between atoms: C_2  and  C_3
REMARK    3  A    between atoms: C_3  and  C_4
REMARK    4  A    between atoms: C_4  and  C_5
REMARK    5  A    between atoms: N_7  and  C_8
REMARK    6  A    between atoms: C_8  and  C_9
REMARK                            x       y       z     vdW  Elec       q    Type
REMARK                         _______ _______ _______ _____ _____    ______ ____
ROOT
ATOM      1  C   UNL     1       6.509   4.094  13.664  0.00  0.00    +0.000 C 
ATOM      2  O   UNL     1       7.161   5.132  13.614  0.00  0.00    +0.000 OA
ATOM      3  N   UNL     1       6.080   3.541  14.847  0.00  0.00    +0.000 N 
ATOM      4  H   UNL     1       5.608   2.645  14.842  0.00  0.00    +0.000 HD
ENDROOT
BRANCH   1   5
ATOM      5  C   UNL     1       6.059   3.350  12.418  0.00  0.00    +0.000 C 
BRANCH   5   6
ATOM      6  C   UNL     1       4.749   3.938  11.895  0.00  0.00    +0.000 C 
BRANCH   6   8
ATOM      7  C   UNL     1       3.157   3.709   9.968  0.00  0.00    +0.000 C 
ATOM      8  C   UNL     1       3.980   2.961  11.008  0.00  0.00    +0.000 C 
ENDBRANCH   6   8
ENDBRANCH   5   6
ENDBRANCH   1   5
BRANCH   3   9
ATOM      9  C   UNL     1       6.451   4.117  16.120  0.00  0.00    +0.000 C 
BRANCH   9  10
ATOM     10  C   UNL     1       5.310   4.869  16.759  0.00  0.00    +0.000 A 
ATOM     11  C   UNL     1       4.241   4.169  17.345  0.00  0.00    +0.000 A 
ATOM     12  C   UNL     1       3.187   4.854  17.950  0.00  0.00    +0.000 A 
ATOM     13  C   UNL     1       3.194   6.243  17.964  0.00  0.00    +0.000 A 
ATOM     14  F   UNL     1       2.185   6.904  18.546  0.00  0.00    +0.000 F 
ATOM     15  C   UNL     1       4.236   6.958  17.380  0.00  0.00    +0.000 A 
ATOM     16  C   UNL     1       5.290   6.272  16.774  0.00  0.00    +0.000 A 
ENDBRANCH   9  10
ENDBRANCH   3   9
TORSDOF 5
ENDMDL
MODEL 4
REMARK VINA RESULT:      -6.3      2.460      3.751
REMARK  Name = 
REMARK  6 active torsions:
REMARK  status: ('A' for Active; 'I' for Inactive)
REMARK    1  A    between atoms: C_1  and  C_2
REMARK    2  A    between atoms: C_2  and  C_3
REMARK    3  A    between atoms: C_3  and  C_4
REMARK    4  A    between atoms: C_4  and  C_5
REMARK    5  A    between atoms: N_7  and  C_8
REMARK    6  A    between atoms: C_8  and  C_9
REMARK                            x       y       z     vdW  Elec       q    Type
REMARK                         _______ _______ _______ _____ _____    ______ ____
ROOT
ATOM      1  C   UNL     1       5.918   4.183  16.615  0.00  0.00    +0.000 C 
ATOM      2  O   UNL     1       5.715   3.505  15.613  0.00  0.00    +0.000 OA
ATOM      3  N   UNL     1       4.934   4.468  17.531  0.00  0.00    +0.000 N 
ATOM      4  H   UNL     1       5.131   5.094  18.304  0.00  0.00    +0.000 HD
ENDROOT
BRANCH   1   5
ATOM      5  C   UNL     1       7.291   4.724  16.973  0.00  0.00    +0.000 C 
BRANCH   5   6
ATOM      6  C   UNL     1       7.281   6.252  16.950  0.00  0.00    +0.000 C 
BRANCH   6   8
ATOM      7  C   UNL     1       7.897   5.785  19.337  0.00  0.00    +0.000 C 
ATOM      8  C   UNL     1       7.733   6.862  18.275  0.00  0.00    +0.000 C 
ENDBRANCH   6   8
ENDBRANCH   5   6
ENDBRANCH   1   5
BRANCH   3   9
ATOM      9  C   UNL     1       3.567   4.048  17.317  0.00  0.00    +0.000 C 
BRANCH   9  10
ATOM     10  C   UNL     1       2.882   3.660  18.604  0.00  0.00    +0.000 A 
ATOM     11  C   UNL     1       1.504   3.884  18.770  0.00  0.00    +0.000 A 
ATOM     12  C   UNL     1       0.859   3.518  19.951  0.00  0.00    +0.000 A 
ATOM     13  C   UNL     1       1.592   2.933  20.975  0.00  0.00    +0.000 A 
ATOM     14  F   UNL     1       0.976   2.577  22.110  0.00  0.00    +0.000 F 
ATOM     15  C   UNL     1       2.959   2.711  20.840  0.00  0.00    +0.000 A 
ATOM     16  C   UNL     1       3.605   3.078  19.658  0.00  0.00    +0.000 A 
ENDBRANCH   9  10
ENDBRANCH   3   9
TORSDOF 5
ENDMDL
MODEL 5
REMARK VINA RESULT:      -6.3      3.711      6.473
REMARK  Name = 
REMARK  6 active torsions:
REMARK  status: ('A' for Active; 'I' for Inactive)
REMARK    1  A    between atoms: C_1  and  C_2
REMARK    2  A    between atoms: C_2  and  C_3
REMARK    3  A    between atoms: C_3  and  C_4
REMARK    4  A    between atoms: C_4  and  C_5
REMARK    5  A    between atoms: N_7  and  C_8
REMARK    6  A    between atoms: C_8  and  C_9
REMARK                            x       y       z     vdW  Elec       q    Type
REMARK                         _______ _______ _______ _____ _____    ______ ____
ROOT
ATOM      1  C   UNL     1       2.435   2.971  17.808  0.00  0.00    +0.000 C 
ATOM      2  O   UNL     1       2.821   1.809  17.730  0.00  0.00    +0.000 OA
ATOM      3  N   UNL     1       3.132   4.025  17.266  0.00  0.00    +0.000 N 
ATOM      4  H   UNL     1       2.811   4.973  17.420  0.00  0.00    +0.000 HD
ENDROOT
BRANCH   1   5
ATOM      5  C   UNL     1       1.117   3.354  18.460  0.00  0.00    +0.000 C 
BRANCH   5   6
ATOM      6  C   UNL     1       1.371   4.068  19.787  0.00  0.00    +0.000 C 
BRANCH   6   8
ATOM      7  C   UNL     1       2.664   2.744  21.483  0.00  0.00    +0.000 C 
ATOM      8  C   UNL     1       1.277   3.128  20.987  0.00  0.00    +0.000 C 
ENDBRANCH   6   8
ENDBRANCH   5   6
ENDBRANCH   1   5
BRANCH   3   9
ATOM      9  C   UNL     1       4.418   3.826  16.637  0.00  0.00    +0.000 C 
BRANCH   9  10
ATOM     10  C   UNL     1       5.493   4.686  17.255  0.00  0.00    +0.000 A 
ATOM     11  C   UNL     1       6.222   5.589  16.461  0.00  0.00    +0.000 A 
ATOM     12  C   UNL     1       7.209   6.397  17.024  0.00  0.00    +0.000 A 
ATOM     13  C   UNL     1       7.476   6.301  18.384  0.00  0.00    +0.000 A 
ATOM     14  F   UNL     1       8.421   7.078  18.930  0.00  0.00    +0.000 F 
ATOM     15  C   UNL     1       6.776   5.407  19.188  0.00  0.00    +0.000 A 
ATOM     16  C   UNL     1       5.788   4.597  18.624  0.00  0.00    +0.000 A 
ENDBRANCH   9  10
ENDBRANCH   3   9
TORSDOF 5
ENDMDL
MODEL 6
REMARK VINA RESULT:      -6.2      3.689      6.383
REMARK  Name = 
REMARK  6 active torsions:
REMARK  status: ('A' for Active; 'I' for Inactive)
REMARK    1  A    between atoms: C_1  and  C_2
REMARK    2  A    between atoms: C_2  and  C_3
REMARK    3  A    between atoms: C_3  and  C_4
REMARK    4  A    between atoms: C_4  and  C_5
REMARK    5  A    between atoms: N_7  and  C_8
REMARK    6  A    between atoms: C_8  and  C_9
REMARK                            x       y       z     vdW  Elec       q    Type
REMARK                         _______ _______ _______ _____ _____    ______ ____
ROOT
ATOM      1  C   UNL     1       2.735   3.149  17.885  0.00  0.00    +0.000 C 
ATOM      2  O   UNL     1       3.195   2.041  18.147  0.00  0.00    +0.000 OA
ATOM      3  N   UNL     1       3.409   4.071  17.120  0.00  0.00    +0.000 N 
ATOM      4  H   UNL     1       3.021   4.999  16.993  0.00  0.00    +0.000 HD
ENDROOT
BRANCH   1   5
ATOM      5  C   UNL     1       1.350   3.586  18.329  0.00  0.00    +0.000 C 
BRANCH   5   6
ATOM      6  C   UNL     1       0.977   2.903  19.645  0.00  0.00    +0.000 C 
BRANCH   6   8
ATOM      7  C   UNL     1       1.569   5.161  20.564  0.00  0.00    +0.000 C 
ATOM      8  C   UNL     1       1.472   3.673  20.867  0.00  0.00    +0.000 C 
ENDBRANCH   6   8
ENDBRANCH   5   6
ENDBRANCH   1   5
BRANCH   3   9
ATOM      9  C   UNL     1       4.750   3.814  16.646  0.00  0.00    +0.000 C 
BRANCH   9  10
ATOM     10  C   UNL     1       5.755   4.775  17.232  0.00  0.00    +0.000 A 
ATOM     11  C   UNL     1       6.133   4.669  18.582  0.00  0.00    +0.000 A 
ATOM     12  C   UNL     1       7.070   5.544  19.131  0.00  0.00    +0.000 A 
ATOM     13  C   UNL     1       7.628   6.534  18.332  0.00  0.00    +0.000 A 
ATOM     14  F   UNL     1       8.531   7.375  18.855  0.00  0.00    +0.000 F 
ATOM     15  C   UNL     1       7.261   6.667  16.996  0.00  0.00    +0.000 A 
ATOM     16  C   UNL     1       6.323   5.791  16.448  0.00  0.00    +0.000 A 
ENDBRANCH   9  10
ENDBRANCH   3   9
TORSDOF 5
ENDMDL
MODEL 7
REMARK VINA RESULT:      -6.2      1.153      1.647
REMARK  Name = 
REMARK  6 active torsions:
REMARK  status: ('A' for Active; 'I' for Inactive)
REMARK    1  A    between atoms: C_1  and  C_2
REMARK    2  A    between atoms: C_2  and  C_3
REMARK    3  A    between atoms: C_3  and  C_4
REMARK    4  A    between atoms: C_4  and  C_5
REMARK    5  A    between atoms: N_7  and  C_8
REMARK    6  A    between atoms: C_8  and  C_9
REMARK                            x       y       z     vdW  Elec       q    Type
REMARK                         _______ _______ _______ _____ _____    ______ ____
ROOT
ATOM      1  C   UNL     1       6.639   4.485  14.793  0.00  0.00    +0.000 C 
ATOM      2  O   UNL     1       7.442   5.360  15.103  0.00  0.00    +0.000 OA
ATOM      3  N   UNL     1       5.735   3.956  15.683  0.00  0.00    +0.000 N 
ATOM      4  H   UNL     1       5.143   3.184  15.400  0.00  0.00    +0.000 HD
ENDROOT
BRANCH   1   5
ATOM      5  C   UNL     1       6.525   3.943  13.379  0.00  0.00    +0.000 C 
BRANCH   5   6
ATOM      6  C   UNL     1       5.060   3.690  13.026  0.00  0.00    +0.000 C 
BRANCH   6   8
ATOM      7  C   UNL     1       5.774   1.900  11.417  0.00  0.00    +0.000 C 
ATOM      8  C   UNL     1       4.885   3.119  11.620  0.00  0.00    +0.000 C 
ENDBRANCH   6   8
ENDBRANCH   5   6
ENDBRANCH   1   5
BRANCH   3   9
ATOM      9  C   UNL     1       5.737   4.348  17.075  0.00  0.00    +0.000 C 
BRANCH   9  10
ATOM     10  C   UNL     1       4.530   3.826  17.815  0.00  0.00    +0.000 A 
ATOM     11  C   UNL     1       3.318   3.614  17.134  0.00  0.00    +0.000 A 
ATOM     12  C   UNL     1       2.200   3.120  17.806  0.00  0.00    +0.000 A 
ATOM     13  C   UNL     1       2.288   2.842  19.164  0.00  0.00    +0.000 A 
ATOM     14  F   UNL     1       1.218   2.364  19.812  0.00  0.00    +0.000 F 
ATOM     15  C   UNL     1       3.473   3.054  19.862  0.00  0.00    +0.000 A 
ATOM     16  C   UNL     1       4.592   3.550  19.189  0.00  0.00    +0.000 A 
ENDBRANCH   9  10
ENDBRANCH   3   9
TORSDOF 5
ENDMDL
MODEL 8
REMARK VINA RESULT:      -6.2      3.552      6.435
REMARK  Name = 
REMARK  6 active torsions:
REMARK  status: ('A' for Active; 'I' for Inactive)
REMARK    1  A    between atoms: C_1  and  C_2
REMARK    2  A    between atoms: C_2  and  C_3
REMARK    3  A    between atoms: C_3  and  C_4
REMARK    4  A    between atoms: C_4  and  C_5
REMARK    5  A    between atoms: N_7  and  C_8
REMARK    6  A    between atoms: C_8  and  C_9
REMARK                            x       y       z     vdW  Elec       q    Type
REMARK                         _______ _______ _______ _____ _____    ______ ____
ROOT
ATOM      1  C   UNL     1       3.526   3.620  17.810  0.00  0.00    +0.000 C 
ATOM      2  O   UNL     1       4.150   2.909  18.590  0.00  0.00    +0.000 OA
ATOM      3  N   UNL     1       4.093   4.165  16.682  0.00  0.00    +0.000 N 
ATOM      4  H   UNL     1       3.558   4.805  16.108  0.00  0.00    +0.000 HD
ENDROOT
BRANCH   1   5
ATOM      5  C   UNL     1       2.046   3.920  17.981  0.00  0.00    +0.000 C 
BRANCH   5   6
ATOM      6  C   UNL     1       1.338   2.734  18.635  0.00  0.00    +0.000 C 
BRANCH   6   8
ATOM      7  C   UNL     1       1.321   4.324  20.577  0.00  0.00    +0.000 C 
ATOM      8  C   UNL     1       0.652   3.111  19.946  0.00  0.00    +0.000 C 
ENDBRANCH   6   8
ENDBRANCH   5   6
ENDBRANCH   1   5
BRANCH   3   9
ATOM      9  C   UNL     1       5.500   3.993  16.395  0.00  0.00    +0.000 C 
BRANCH   9  10
ATOM     10  C   UNL     1       6.348   5.049  17.060  0.00  0.00    +0.000 A 
ATOM     11  C   UNL     1       6.294   6.383  16.619  0.00  0.00    +0.000 A 
ATOM     12  C   UNL     1       7.065   7.369  17.234  0.00  0.00    +0.000 A 
ATOM     13  C   UNL     1       7.900   7.023  18.289  0.00  0.00    +0.000 A 
ATOM     14  F   UNL     1       8.639   7.968  18.885  0.00  0.00    +0.000 F 
ATOM     15  C   UNL     1       7.979   5.708  18.736  0.00  0.00    +0.000 A 
ATOM     16  C   UNL     1       7.208   4.721  18.119  0.00  0.00    +0.000 A 
ENDBRANCH   9  10
ENDBRANCH   3   9
TORSDOF 5
ENDMDL
MODEL 9
REMARK VINA RESULT:      -6.2      1.269      1.384
REMARK  Name = 
REMARK  6 active torsions:
REMARK  status: ('A' for Active; 'I' for Inactive)
REMARK    1  A    between atoms: C_1  and  C_2
REMARK    2  A    between atoms: C_2  and  C_3
REMARK    3  A    between atoms: C_3  and  C_4
REMARK    4  A    between atoms: C_4  and  C_5
REMARK    5  A    between atoms: N_7  and  C_8
REMARK    6  A    between atoms: C_8  and  C_9
REMARK                            x       y       z     vdW  Elec       q    Type
REMARK                         _______ _______ _______ _____ _____    ______ ____
ROOT
ATOM      1  C   UNL     1       6.152   5.046  16.818  0.00  0.00    +0.000 C 
ATOM      2  O   UNL     1       5.657   6.164  16.922  0.00  0.00    +0.000 OA
ATOM      3  N   UNL     1       5.958   4.057  17.752  0.00  0.00    +0.000 N 
ATOM      4  H   UNL     1       6.447   3.174  17.660  0.00  0.00    +0.000 HD
ENDROOT
BRANCH   1   5
ATOM      5  C   UNL     1       6.979   4.626  15.615  0.00  0.00    +0.000 C 
BRANCH   5   6
ATOM      6  C   UNL     1       6.132   3.785  14.659  0.00  0.00    +0.000 C 
BRANCH   6   8
ATOM      7  C   UNL     1       5.516   3.327  12.270  0.00  0.00    +0.000 C 
ATOM      8  C   UNL     1       6.534   3.974  13.198  0.00  0.00    +0.000 C 
ENDBRANCH   6   8
ENDBRANCH   5   6
ENDBRANCH   1   5
BRANCH   3   9
ATOM      9  C   UNL     1       5.218   4.311  18.968  0.00  0.00    +0.000 C 
BRANCH   9  10
ATOM     10  C   UNL     1       3.828   3.726  18.921  0.00  0.00    +0.000 A 
ATOM     11  C   UNL     1       3.442   2.903  17.848  0.00  0.00    +0.000 A 
ATOM     12  C   UNL     1       2.163   2.347  17.800  0.00  0.00    +0.000 A 
ATOM     13  C   UNL     1       1.263   2.618  18.823  0.00  0.00    +0.000 A 
ATOM     14  F   UNL     1       0.036   2.083  18.782  0.00  0.00    +0.000 F 
ATOM     15  C   UNL     1       1.618   3.438  19.889  0.00  0.00    +0.000 A 
ATOM     16  C   UNL     1       2.898   3.995  19.936  0.00  0.00    +0.000 A 
ENDBRANCH   9  10
ENDBRANCH   3   9
TORSDOF 5
ENDMDL
