MODEL 1
REMARK VINA RESULT:      -8.8      0.000      0.000
REMARK  Name = 
REMARK  5 active torsions:
REMARK  status: ('A' for Active; 'I' for Inactive)
REMARK    1  A    between atoms: C_1  and  C_2
REMARK    2  A    between atoms: N_4  and  C_5
REMARK    3  A    between atoms: C_9  and  N_10
REMARK    4  A    between atoms: C_11  and  C_13
REMARK    5  A    between atoms: C_17  and  C_19
REMARK                            x       y       z     vdW  Elec       q    Type
REMARK                         _______ _______ _______ _____ _____    ______ ____
ROOT
ATOM      1  N   UNL     1       2.819   6.969  18.304  0.00  0.00    +0.000 N 
ATOM      2  C   UNL     1       2.969   5.926  19.210  0.00  0.00    +0.000 C 
ATOM      3  O   UNL     1       2.476   5.876  20.333  0.00  0.00    +0.000 OA
ATOM      4  H   UNL     1       3.215   6.839  17.383  0.00  0.00    +0.000 HD
ENDROOT
BRANCH   2   5
ATOM      5  C   UNL     1       3.882   4.804  18.699  0.00  0.00    +0.000 C 
ATOM      6  C   UNL     1       5.304   4.857  19.292  0.00  0.00    +0.000 C 
ATOM      7  C   UNL     1       6.305   5.709  18.499  0.00  0.00    +0.000 C 
ATOM      8  N   UNL     1       6.184   5.495  17.064  0.00  0.00    +0.000 N 
ATOM      9  C   UNL     1       7.160   4.742  16.386  0.00  0.00    +0.000 C 
ATOM     10  O   UNL     1       8.070   4.194  17.005  0.00  0.00    +0.000 OA
ATOM     11  C   UNL     1       4.844   5.764  16.552  0.00  0.00    +0.000 C 
ATOM     12  C   UNL     1       3.879   4.753  17.161  0.00  0.00    +0.000 C 
BRANCH   9  13
ATOM     13  C   UNL     1       7.053   4.597  14.938  0.00  0.00    +0.000 A 
ATOM     14  C   UNL     1       6.284   3.742  14.170  0.00  0.00    +0.000 A 
ATOM     15  C   UNL     1       6.551   4.050  12.812  0.00  0.00    +0.000 A 
ATOM     16  C   UNL     1       7.509   5.033  12.828  0.00  0.00    +0.000 A 
ATOM     17  O   UNL     1       7.849   5.340  14.105  0.00  0.00    +0.000 OA
ENDBRANCH   9  13
ENDBRANCH   2   5
BRANCH   1  22
ATOM     18  C   UNL     1       0.770   9.586  19.991  0.00  0.00    +0.000 A 
ATOM     19  C   UNL     1       0.896  10.645  19.091  0.00  0.00    +0.000 A 
ATOM     20  C   UNL     1       1.660  10.504  17.936  0.00  0.00    +0.000 A 
ATOM     21  C   UNL     1       2.308   9.302  17.665  0.00  0.00    +0.000 A 
ATOM     22  C   UNL     1       2.217   8.229  18.551  0.00  0.00    +0.000 A 
ATOM     23  C   UNL     1       1.451   8.385  19.724  0.00  0.00    +0.000 A 
BRANCH  18  27
ATOM     24  C   UNL     1      -0.630   9.658  23.500  0.00  0.00    +0.000 C 
ATOM     25  C   UNL     1       0.465   9.628  22.467  0.00  0.00    +0.000 C 
ATOM     26  O   UNL     1       1.641   9.572  22.815  0.00  0.00    +0.000 OA
ATOM     27  N   UNL     1      -0.014   9.685  21.166  0.00  0.00    +0.000 N 
ATOM     28  H   UNL     1      -0.994   9.907  21.047  0.00  0.00    +0.000 HD
ENDBRANCH  18  27
ENDBRANCH   1  22
TORSDOF 4
ENDMDL
MODEL 2
REMARK VINA RESULT:      -8.7      1.380      2.258
REMARK  Name = 
REMARK  5 active torsions:
REMARK  status: ('A' for Active; 'I' for Inactive)
REMARK    1  A    between atoms: C_1  and  C_2
REMARK    2  A    between atoms: N_4  and  C_5
REMARK    3  A    between atoms: C_9  and  N_10
REMARK    4  A    between atoms: C_11  and  C_13
REMARK    5  A    between atoms: C_17  and  C_19
REMARK                            x       y       z     vdW  Elec       q    Type
REMARK                         _______ _______ _______ _____ _____    ______ ____
ROOT
ATOM      1  N   UNL     1       2.849   6.362  19.169  0.00  0.00    +0.000 N 
ATOM      2  C   UNL     1       2.502   5.023  19.040  0.00  0.00    +0.000 C 
ATOM      3  O   UNL     1       1.402   4.540  19.289  0.00  0.00    +0.000 OA
ATOM      4  H   UNL     1       3.770   6.633  18.850  0.00  0.00    +0.000 HD
ENDROOT
BRANCH   2   5
ATOM      5  C   UNL     1       3.669   4.135  18.588  0.00  0.00    +0.000 C 
ATOM      6  C   UNL     1       5.009   4.500  19.257  0.00  0.00    +0.000 C 
ATOM      7  C   UNL     1       5.837   5.557  18.514  0.00  0.00    +0.000 C 
ATOM      8  N   UNL     1       5.846   5.330  17.076  0.00  0.00    +0.000 N 
ATOM      9  C   UNL     1       7.001   4.816  16.458  0.00  0.00    +0.000 C 
ATOM     10  O   UNL     1       7.975   4.481  17.130  0.00  0.00    +0.000 OA
ATOM     11  C   UNL     1       4.510   5.297  16.490  0.00  0.00    +0.000 C 
ATOM     12  C   UNL     1       3.762   4.093  17.051  0.00  0.00    +0.000 C 
BRANCH   9  13
ATOM     13  C   UNL     1       7.008   4.660  15.008  0.00  0.00    +0.000 A 
ATOM     14  C   UNL     1       6.305   3.795  14.188  0.00  0.00    +0.000 A 
ATOM     15  C   UNL     1       6.678   4.093  12.853  0.00  0.00    +0.000 A 
ATOM     16  C   UNL     1       7.627   5.081  12.937  0.00  0.00    +0.000 A 
ATOM     17  O   UNL     1       7.865   5.399  14.233  0.00  0.00    +0.000 OA
ENDBRANCH   9  13
ENDBRANCH   2   5
BRANCH   1  22
ATOM     18  C   UNL     1       1.175   9.666  19.592  0.00  0.00    +0.000 A 
ATOM     19  C   UNL     1       0.626   9.526  20.866  0.00  0.00    +0.000 A 
ATOM     20  C   UNL     1       0.797   8.346  21.584  0.00  0.00    +0.000 A 
ATOM     21  C   UNL     1       1.520   7.289  21.037  0.00  0.00    +0.000 A 
ATOM     22  C   UNL     1       2.067   7.389  19.757  0.00  0.00    +0.000 A 
ATOM     23  C   UNL     1       1.878   8.583  19.033  0.00  0.00    +0.000 A 
BRANCH  18  27
ATOM     24  C   UNL     1       0.984  13.206  18.283  0.00  0.00    +0.000 C 
ATOM     25  C   UNL     1       1.333  12.138  19.285  0.00  0.00    +0.000 C 
ATOM     26  O   UNL     1       1.834  12.442  20.362  0.00  0.00    +0.000 OA
ATOM     27  N   UNL     1       1.039  10.857  18.838  0.00  0.00    +0.000 N 
ATOM     28  H   UNL     1       0.794  10.756  17.862  0.00  0.00    +0.000 HD
ENDBRANCH  18  27
ENDBRANCH   1  22
TORSDOF 4
ENDMDL
MODEL 3
REMARK VINA RESULT:      -8.3      1.805      2.522
REMARK  Name = 
REMARK  5 active torsions:
REMARK  status: ('A' for Active; 'I' for Inactive)
REMARK    1  A    between atoms: C_1  and  C_2
REMARK    2  A    between atoms: N_4  and  C_5
REMARK    3  A    between atoms: C_9  and  N_10
REMARK    4  A    between atoms: C_11  and  C_13
REMARK    5  A    between atoms: C_17  and  C_19
REMARK                            x       y       z     vdW  Elec       q    Type
REMARK                         _______ _______ _______ _____ _____    ______ ____
ROOT
ATOM      1  N   UNL     1       2.671   6.604  19.045  0.00  0.00    +0.000 N 
ATOM      2  C   UNL     1       2.414   5.257  19.272  0.00  0.00    +0.000 C 
ATOM      3  O   UNL     1       1.401   4.799  19.791  0.00  0.00    +0.000 OA
ATOM      4  H   UNL     1       3.513   6.833  18.534  0.00  0.00    +0.000 HD
ENDROOT
BRANCH   2   5
ATOM      5  C   UNL     1       3.567   4.339  18.848  0.00  0.00    +0.000 C 
ATOM      6  C   UNL     1       4.914   4.710  19.500  0.00  0.00    +0.000 C 
ATOM      7  C   UNL     1       5.753   5.730  18.718  0.00  0.00    +0.000 C 
ATOM      8  N   UNL     1       5.755   5.451  17.289  0.00  0.00    +0.000 N 
ATOM      9  C   UNL     1       6.901   4.901  16.687  0.00  0.00    +0.000 C 
ATOM     10  O   UNL     1       7.873   4.577  17.367  0.00  0.00    +0.000 OA
ATOM     11  C   UNL     1       4.417   5.414  16.708  0.00  0.00    +0.000 C 
ATOM     12  C   UNL     1       3.655   4.241  17.315  0.00  0.00    +0.000 C 
BRANCH   9  13
ATOM     13  C   UNL     1       6.902   4.692  15.243  0.00  0.00    +0.000 A 
ATOM     14  C   UNL     1       6.214   3.781  14.461  0.00  0.00    +0.000 A 
ATOM     15  C   UNL     1       6.570   4.039  13.113  0.00  0.00    +0.000 A 
ATOM     16  C   UNL     1       7.495   5.052  13.153  0.00  0.00    +0.000 A 
ATOM     17  O   UNL     1       7.735   5.423  14.435  0.00  0.00    +0.000 OA
ENDBRANCH   9  13
ENDBRANCH   2   5
BRANCH   1  22
ATOM     18  C   UNL     1       0.463   9.606  18.948  0.00  0.00    +0.000 A 
ATOM     19  C   UNL     1       0.442   9.965  20.296  0.00  0.00    +0.000 A 
ATOM     20  C   UNL     1       1.143   9.218  21.238  0.00  0.00    +0.000 A 
ATOM     21  C   UNL     1       1.877   8.102  20.845  0.00  0.00    +0.000 A 
ATOM     22  C   UNL     1       1.906   7.705  19.508  0.00  0.00    +0.000 A 
ATOM     23  C   UNL     1       1.182   8.460  18.563  0.00  0.00    +0.000 A 
BRANCH  18  27
ATOM     24  C   UNL     1      -1.990  11.124  16.508  0.00  0.00    +0.000 C 
ATOM     25  C   UNL     1      -1.582  10.286  17.690  0.00  0.00    +0.000 C 
ATOM     26  O   UNL     1      -2.423   9.646  18.314  0.00  0.00    +0.000 OA
ATOM     27  N   UNL     1      -0.222  10.351  17.958  0.00  0.00    +0.000 N 
ATOM     28  H   UNL     1       0.310  11.057  17.467  0.00  0.00    +0.000 HD
ENDBRANCH  18  27
ENDBRANCH   1  22
TORSDOF 4
ENDMDL
MODEL 4
REMARK VINA RESULT:      -8.1      4.693      6.641
REMARK  Name = 
REMARK  5 active torsions:
REMARK  status: ('A' for Active; 'I' for Inactive)
REMARK    1  A    between atoms: C_1  and  C_2
REMARK    2  A    between atoms: N_4  and  C_5
REMARK    3  A    between atoms: C_9  and  N_10
REMARK    4  A    between atoms: C_11  and  C_13
REMARK    5  A    between atoms: C_17  and  C_19
REMARK                            x       y       z     vdW  Elec       q    Type
REMARK                         _______ _______ _______ _____ _____    ______ ____
ROOT
ATOM      1  N   UNL     1       8.669   8.179  18.727  0.00  0.00    +0.000 N 
ATOM      2  C   UNL     1       7.730   7.665  17.840  0.00  0.00    +0.000 C 
ATOM      3  O   UNL     1       7.079   8.315  17.029  0.00  0.00    +0.000 OA
ATOM      4  H   UNL     1       9.189   7.514  19.284  0.00  0.00    +0.000 HD
ENDROOT
BRANCH   2   5
ATOM      5  C   UNL     1       7.519   6.152  17.989  0.00  0.00    +0.000 C 
ATOM      6  C   UNL     1       7.026   5.474  16.695  0.00  0.00    +0.000 C 
ATOM      7  C   UNL     1       5.501   5.430  16.527  0.00  0.00    +0.000 C 
ATOM      8  N   UNL     1       4.827   5.076  17.768  0.00  0.00    +0.000 N 
ATOM      9  C   UNL     1       4.276   3.790  17.920  0.00  0.00    +0.000 C 
ATOM     10  O   UNL     1       4.427   2.936  17.048  0.00  0.00    +0.000 OA
ATOM     11  C   UNL     1       5.143   5.976  18.872  0.00  0.00    +0.000 C 
ATOM     12  C   UNL     1       6.625   5.840  19.203  0.00  0.00    +0.000 C 
BRANCH   9  13
ATOM     13  C   UNL     1       3.549   3.480  19.146  0.00  0.00    +0.000 A 
ATOM     14  C   UNL     1       3.866   2.638  20.196  0.00  0.00    +0.000 A 
ATOM     15  C   UNL     1       2.813   2.738  21.141  0.00  0.00    +0.000 A 
ATOM     16  C   UNL     1       1.889   3.589  20.589  0.00  0.00    +0.000 A 
ATOM     17  O   UNL     1       2.303   4.008  19.367  0.00  0.00    +0.000 OA
ENDBRANCH   9  13
ENDBRANCH   2   5
BRANCH   1  22
ATOM     18  C   UNL     1       9.263  11.321  20.641  0.00  0.00    +0.000 A 
ATOM     19  C   UNL     1       9.362  12.250  19.605  0.00  0.00    +0.000 A 
ATOM     20  C   UNL     1       9.242  11.846  18.279  0.00  0.00    +0.000 A 
ATOM     21  C   UNL     1       9.022  10.506  17.970  0.00  0.00    +0.000 A 
ATOM     22  C   UNL     1       8.936   9.548  18.981  0.00  0.00    +0.000 A 
ATOM     23  C   UNL     1       9.070   9.965  20.320  0.00  0.00    +0.000 A 
BRANCH  18  27
ATOM     24  C   UNL     1       8.725  12.422  24.216  0.00  0.00    +0.000 C 
ATOM     25  C   UNL     1       8.294  11.940  22.856  0.00  0.00    +0.000 C 
ATOM     26  O   UNL     1       7.103  11.788  22.604  0.00  0.00    +0.000 OA
ATOM     27  N   UNL     1       9.361  11.697  22.003  0.00  0.00    +0.000 N 
ATOM     28  H   UNL     1      10.286  11.699  22.413  0.00  0.00    +0.000 HD
ENDBRANCH  18  27
ENDBRANCH   1  22
TORSDOF 4
ENDMDL
MODEL 5
REMARK VINA RESULT:      -8.1      1.602      2.498
REMARK  Name = 
REMARK  5 active torsions:
REMARK  status: ('A' for Active; 'I' for Inactive)
REMARK    1  A    between atoms: C_1  and  C_2
REMARK    2  A    between atoms: N_4  and  C_5
REMARK    3  A    between atoms: C_9  and  N_10
REMARK    4  A    between atoms: C_11  and  C_13
REMARK    5  A    between atoms: C_17  and  C_19
REMARK                            x       y       z     vdW  Elec       q    Type
REMARK                         _______ _______ _______ _____ _____    ______ ____
ROOT
ATOM      1  N   UNL     1       2.418   7.141  19.968  0.00  0.00    +0.000 N 
ATOM      2  C   UNL     1       3.076   7.179  18.744  0.00  0.00    +0.000 C 
ATOM      3  O   UNL     1       3.086   8.127  17.965  0.00  0.00    +0.000 OA
ATOM      4  H   UNL     1       2.563   6.323  20.544  0.00  0.00    +0.000 HD
ENDROOT
BRANCH   2   5
ATOM      5  C   UNL     1       3.789   5.865  18.397  0.00  0.00    +0.000 C 
ATOM      6  C   UNL     1       5.168   5.723  19.071  0.00  0.00    +0.000 C 
ATOM      7  C   UNL     1       6.344   6.296  18.269  0.00  0.00    +0.000 C 
ATOM      8  N   UNL     1       6.252   5.963  16.855  0.00  0.00    +0.000 N 
ATOM      9  C   UNL     1       7.101   4.981  16.312  0.00  0.00    +0.000 C 
ATOM     10  O   UNL     1       7.866   4.345  17.035  0.00  0.00    +0.000 OA
ATOM     11  C   UNL     1       5.009   6.414  16.237  0.00  0.00    +0.000 C 
ATOM     12  C   UNL     1       3.847   5.660  16.873  0.00  0.00    +0.000 C 
BRANCH   9  13
ATOM     13  C   UNL     1       7.036   4.712  14.880  0.00  0.00    +0.000 A 
ATOM     14  C   UNL     1       6.302   3.779  14.169  0.00  0.00    +0.000 A 
ATOM     15  C   UNL     1       6.601   3.975  12.796  0.00  0.00    +0.000 A 
ATOM     16  C   UNL     1       7.541   4.975  12.753  0.00  0.00    +0.000 A 
ATOM     17  O   UNL     1       7.842   5.395  14.006  0.00  0.00    +0.000 OA
ENDBRANCH   9  13
ENDBRANCH   2   5
BRANCH   1  22
ATOM     18  C   UNL     1       0.258  10.176  20.083  0.00  0.00    +0.000 A 
ATOM     19  C   UNL     1      -0.204  10.126  21.398  0.00  0.00    +0.000 A 
ATOM     20  C   UNL     1       0.186   9.092  22.245  0.00  0.00    +0.000 A 
ATOM     21  C   UNL     1       1.043   8.095  21.788  0.00  0.00    +0.000 A 
ATOM     22  C   UNL     1       1.509   8.105  20.473  0.00  0.00    +0.000 A 
ATOM     23  C   UNL     1       1.099   9.149  19.619  0.00  0.00    +0.000 A 
BRANCH  18  27
ATOM     24  C   UNL     1      -0.262  13.423  18.220  0.00  0.00    +0.000 C 
ATOM     25  C   UNL     1       0.392  12.518  19.230  0.00  0.00    +0.000 C 
ATOM     26  O   UNL     1       1.274  12.950  19.967  0.00  0.00    +0.000 OA
ATOM     27  N   UNL     1      -0.101  11.222  19.197  0.00  0.00    +0.000 N 
ATOM     28  H   UNL     1      -0.698  10.977  18.418  0.00  0.00    +0.000 HD
ENDBRANCH  18  27
ENDBRANCH   1  22
TORSDOF 4
ENDMDL
MODEL 6
REMARK VINA RESULT:      -8.0      2.061      2.444
REMARK  Name = 
REMARK  5 active torsions:
REMARK  status: ('A' for Active; 'I' for Inactive)
REMARK    1  A    between atoms: C_1  and  C_2
REMARK    2  A    between atoms: N_4  and  C_5
REMARK    3  A    between atoms: C_9  and  N_10
REMARK    4  A    between atoms: C_11  and  C_13
REMARK    5  A    between atoms: C_17  and  C_19
REMARK                            x       y       z     vdW  Elec       q    Type
REMARK                         _______ _______ _______ _____ _____    ______ ____
ROOT
ATOM      1  N   UNL     1       2.605   7.414  18.009  0.00  0.00    +0.000 N 
ATOM      2  C   UNL     1       2.837   6.519  19.047  0.00  0.00    +0.000 C 
ATOM      3  O   UNL     1       2.453   6.648  20.205  0.00  0.00    +0.000 OA
ATOM      4  H   UNL     1       2.912   7.139  17.086  0.00  0.00    +0.000 HD
ENDROOT
BRANCH   2   5
ATOM      5  C   UNL     1       3.695   5.316  18.631  0.00  0.00    +0.000 C 
ATOM      6  C   UNL     1       5.090   5.305  19.288  0.00  0.00    +0.000 C 
ATOM      7  C   UNL     1       6.180   6.052  18.507  0.00  0.00    +0.000 C 
ATOM      8  N   UNL     1       6.110   5.778  17.078  0.00  0.00    +0.000 N 
ATOM      9  C   UNL     1       7.062   4.931  16.482  0.00  0.00    +0.000 C 
ATOM     10  O   UNL     1       7.905   4.355  17.168  0.00  0.00    +0.000 OA
ATOM     11  C   UNL     1       4.815   6.108  16.492  0.00  0.00    +0.000 C 
ATOM     12  C   UNL     1       3.758   5.192  17.098  0.00  0.00    +0.000 C 
BRANCH   9  13
ATOM     13  C   UNL     1       7.011   4.724  15.039  0.00  0.00    +0.000 A 
ATOM     14  C   UNL     1       6.268   3.838  14.279  0.00  0.00    +0.000 A 
ATOM     15  C   UNL     1       6.590   4.087  12.920  0.00  0.00    +0.000 A 
ATOM     16  C   UNL     1       7.550   5.068  12.932  0.00  0.00    +0.000 A 
ATOM     17  O   UNL     1       7.842   5.428  14.206  0.00  0.00    +0.000 OA
ENDBRANCH   9  13
ENDBRANCH   2   5
BRANCH   1  22
ATOM     18  C   UNL     1      -0.000  10.063  18.308  0.00  0.00    +0.000 A 
ATOM     19  C   UNL     1       0.781  11.216  18.232  0.00  0.00    +0.000 A 
ATOM     20  C   UNL     1       2.163  11.125  18.091  0.00  0.00    +0.000 A 
ATOM     21  C   UNL     1       2.782   9.880  18.024  0.00  0.00    +0.000 A 
ATOM     22  C   UNL     1       2.033   8.707  18.115  0.00  0.00    +0.000 A 
ATOM     23  C   UNL     1       0.636   8.808  18.270  0.00  0.00    +0.000 A 
BRANCH  18  27
ATOM     24  C   UNL     1      -3.745  10.247  17.835  0.00  0.00    +0.000 C 
ATOM     25  C   UNL     1      -2.319  10.067  17.386  0.00  0.00    +0.000 C 
ATOM     26  O   UNL     1      -2.063   9.889  16.199  0.00  0.00    +0.000 OA
ATOM     27  N   UNL     1      -1.410  10.114  18.433  0.00  0.00    +0.000 N 
ATOM     28  H   UNL     1      -1.788  10.090  19.371  0.00  0.00    +0.000 HD
ENDBRANCH  18  27
ENDBRANCH   1  22
TORSDOF 4
ENDMDL
MODEL 7
REMARK VINA RESULT:      -7.8      2.603      9.464
REMARK  Name = 
REMARK  5 active torsions:
REMARK  status: ('A' for Active; 'I' for Inactive)
REMARK    1  A    between atoms: C_1  and  C_2
REMARK    2  A    between atoms: N_4  and  C_5
REMARK    3  A    between atoms: C_9  and  N_10
REMARK    4  A    between atoms: C_11  and  C_13
REMARK    5  A    between atoms: C_17  and  C_19
REMARK                            x       y       z     vdW  Elec       q    Type
REMARK                         _______ _______ _______ _____ _____    ______ ____
ROOT
ATOM      1  N   UNL     1       2.250   6.829  19.456  0.00  0.00    +0.000 N 
ATOM      2  C   UNL     1       1.880   8.075  18.964  0.00  0.00    +0.000 C 
ATOM      3  O   UNL     1       1.604   8.332  17.797  0.00  0.00    +0.000 OA
ATOM      4  H   UNL     1       2.371   6.745  20.456  0.00  0.00    +0.000 HD
ENDROOT
BRANCH   2   5
ATOM      5  C   UNL     1       1.890   9.176  20.033  0.00  0.00    +0.000 C 
ATOM      6  C   UNL     1       1.408   8.690  21.414  0.00  0.00    +0.000 C 
ATOM      7  C   UNL     1      -0.104   8.804  21.651  0.00  0.00    +0.000 C 
ATOM      8  N   UNL     1      -0.637  10.067  21.161  0.00  0.00    +0.000 N 
ATOM      9  C   UNL     1      -0.995  11.075  22.076  0.00  0.00    +0.000 C 
ATOM     10  O   UNL     1      -0.787  10.931  23.279  0.00  0.00    +0.000 OA
ATOM     11  C   UNL     1      -0.375  10.292  19.744  0.00  0.00    +0.000 C 
ATOM     12  C   UNL     1       1.131  10.423  19.542  0.00  0.00    +0.000 C 
BRANCH   9  13
ATOM     13  C   UNL     1      -1.589  12.305  21.566  0.00  0.00    +0.000 A 
ATOM     14  C   UNL     1      -1.044  13.564  21.384  0.00  0.00    +0.000 A 
ATOM     15  C   UNL     1      -2.063  14.381  20.831  0.00  0.00    +0.000 A 
ATOM     16  C   UNL     1      -3.184  13.593  20.760  0.00  0.00    +0.000 A 
ATOM     17  O   UNL     1      -2.920  12.352  21.240  0.00  0.00    +0.000 OA
ENDBRANCH   9  13
ENDBRANCH   2   5
BRANCH   1  22
ATOM     18  C   UNL     1       4.109   4.481  17.237  0.00  0.00    +0.000 A 
ATOM     19  C   UNL     1       3.170   3.461  17.080  0.00  0.00    +0.000 A 
ATOM     20  C   UNL     1       1.931   3.539  17.709  0.00  0.00    +0.000 A 
ATOM     21  C   UNL     1       1.613   4.638  18.503  0.00  0.00    +0.000 A 
ATOM     22  C   UNL     1       2.536   5.667  18.695  0.00  0.00    +0.000 A 
ATOM     23  C   UNL     1       3.792   5.574  18.064  0.00  0.00    +0.000 A 
BRANCH  18  27
ATOM     24  C   UNL     1       7.163   4.966  15.064  0.00  0.00    +0.000 C 
ATOM     25  C   UNL     1       5.811   5.328  15.620  0.00  0.00    +0.000 C 
ATOM     26  O   UNL     1       5.220   6.322  15.209  0.00  0.00    +0.000 OA
ATOM     27  N   UNL     1       5.373   4.447  16.598  0.00  0.00    +0.000 N 
ATOM     28  H   UNL     1       6.047   3.781  16.952  0.00  0.00    +0.000 HD
ENDBRANCH  18  27
ENDBRANCH   1  22
TORSDOF 4
ENDMDL
MODEL 8
REMARK VINA RESULT:      -7.8      1.925      2.884
REMARK  Name = 
REMARK  5 active torsions:
REMARK  status: ('A' for Active; 'I' for Inactive)
REMARK    1  A    between atoms: C_1  and  C_2
REMARK    2  A    between atoms: N_4  and  C_5
REMARK    3  A    between atoms: C_9  and  N_10
REMARK    4  A    between atoms: C_11  and  C_13
REMARK    5  A    between atoms: C_17  and  C_19
REMARK                            x       y       z     vdW  Elec       q    Type
REMARK                         _______ _______ _______ _____ _____    ______ ____
ROOT
ATOM      1  N   UNL     1       1.842   7.508  20.484  0.00  0.00    +0.000 N 
ATOM      2  C   UNL     1       2.214   7.368  19.152  0.00  0.00    +0.000 C 
ATOM      3  O   UNL     1       2.069   8.213  18.274  0.00  0.00    +0.000 OA
ATOM      4  H   UNL     1       2.096   6.760  21.115  0.00  0.00    +0.000 HD
ENDROOT
BRANCH   2   5
ATOM      5  C   UNL     1       2.807   5.990  18.830  0.00  0.00    +0.000 C 
ATOM      6  C   UNL     1       3.998   5.611  19.732  0.00  0.00    +0.000 C 
ATOM      7  C   UNL     1       5.372   6.059  19.215  0.00  0.00    +0.000 C 
ATOM      8  N   UNL     1       5.515   5.829  17.784  0.00  0.00    +0.000 N 
ATOM      9  C   UNL     1       6.322   4.772  17.325  0.00  0.00    +0.000 C 
ATOM     10  O   UNL     1       6.842   3.990  18.119  0.00  0.00    +0.000 OA
ATOM     11  C   UNL     1       4.486   6.490  16.989  0.00  0.00    +0.000 C 
ATOM     12  C   UNL     1       3.134   5.871  17.330  0.00  0.00    +0.000 C 
BRANCH   9  13
ATOM     13  C   UNL     1       6.503   4.602  15.888  0.00  0.00    +0.000 A 
ATOM     14  C   UNL     1       5.909   3.724  14.999  0.00  0.00    +0.000 A 
ATOM     15  C   UNL     1       6.436   4.013  13.715  0.00  0.00    +0.000 A 
ATOM     16  C   UNL     1       7.361   5.010  13.901  0.00  0.00    +0.000 A 
ATOM     17  O   UNL     1       7.440   5.342  15.213  0.00  0.00    +0.000 OA
ENDBRANCH   9  13
ENDBRANCH   2   5
BRANCH   1  22
ATOM     18  C   UNL     1       0.342  10.898  20.879  0.00  0.00    +0.000 A 
ATOM     19  C   UNL     1      -0.293  10.766  22.114  0.00  0.00    +0.000 A 
ATOM     20  C   UNL     1      -0.237   9.564  22.813  0.00  0.00    +0.000 A 
ATOM     21  C   UNL     1       0.455   8.477  22.287  0.00  0.00    +0.000 A 
ATOM     22  C   UNL     1       1.087   8.568  21.047  0.00  0.00    +0.000 A 
ATOM     23  C   UNL     1       1.015   9.786  20.340  0.00  0.00    +0.000 A 
BRANCH  18  27
ATOM     24  C   UNL     1      -0.260  13.752  18.477  0.00  0.00    +0.000 C 
ATOM     25  C   UNL     1      -0.565  12.431  19.131  0.00  0.00    +0.000 C 
ATOM     26  O   UNL     1      -1.526  11.764  18.759  0.00  0.00    +0.000 OA
ATOM     27  N   UNL     1       0.324  12.110  20.147  0.00  0.00    +0.000 N 
ATOM     28  H   UNL     1       0.955  12.839  20.453  0.00  0.00    +0.000 HD
ENDBRANCH  18  27
ENDBRANCH   1  22
TORSDOF 4
ENDMDL
MODEL 9
REMARK VINA RESULT:      -7.8      1.884      2.779
REMARK  Name = 
REMARK  5 active torsions:
REMARK  status: ('A' for Active; 'I' for Inactive)
REMARK    1  A    between atoms: C_1  and  C_2
REMARK    2  A    between atoms: N_4  and  C_5
REMARK    3  A    between atoms: C_9  and  N_10
REMARK    4  A    between atoms: C_11  and  C_13
REMARK    5  A    between atoms: C_17  and  C_19
REMARK                            x       y       z     vdW  Elec       q    Type
REMARK                         _______ _______ _______ _____ _____    ______ ____
ROOT
ATOM      1  N   UNL     1       1.818   7.591  20.429  0.00  0.00    +0.000 N 
ATOM      2  C   UNL     1       2.196   7.448  19.099  0.00  0.00    +0.000 C 
ATOM      3  O   UNL     1       2.076   8.301  18.224  0.00  0.00    +0.000 OA
ATOM      4  H   UNL     1       2.052   6.834  21.057  0.00  0.00    +0.000 HD
ENDROOT
BRANCH   2   5
ATOM      5  C   UNL     1       2.761   6.059  18.773  0.00  0.00    +0.000 C 
ATOM      6  C   UNL     1       3.916   5.636  19.703  0.00  0.00    +0.000 C 
ATOM      7  C   UNL     1       5.315   6.055  19.230  0.00  0.00    +0.000 C 
ATOM      8  N   UNL     1       5.492   5.840  17.800  0.00  0.00    +0.000 N 
ATOM      9  C   UNL     1       6.283   4.768  17.349  0.00  0.00    +0.000 C 
ATOM     10  O   UNL     1       6.760   3.962  18.145  0.00  0.00    +0.000 OA
ATOM     11  C   UNL     1       4.503   6.539  16.986  0.00  0.00    +0.000 C 
ATOM     12  C   UNL     1       3.127   5.952  17.282  0.00  0.00    +0.000 C 
BRANCH   9  13
ATOM     13  C   UNL     1       6.500   4.613  15.915  0.00  0.00    +0.000 A 
ATOM     14  C   UNL     1       5.946   3.728  15.007  0.00  0.00    +0.000 A 
ATOM     15  C   UNL     1       6.494   4.038  13.736  0.00  0.00    +0.000 A 
ATOM     16  C   UNL     1       7.391   5.055  13.950  0.00  0.00    +0.000 A 
ATOM     17  O   UNL     1       7.434   5.379  15.266  0.00  0.00    +0.000 OA
ENDBRANCH   9  13
ENDBRANCH   2   5
BRANCH   1  22
ATOM     18  C   UNL     1       0.506  11.045  20.916  0.00  0.00    +0.000 A 
ATOM     19  C   UNL     1      -0.248  10.883  22.078  0.00  0.00    +0.000 A 
ATOM     20  C   UNL     1      -0.334   9.639  22.697  0.00  0.00    +0.000 A 
ATOM     21  C   UNL     1       0.334   8.541  22.163  0.00  0.00    +0.000 A 
ATOM     22  C   UNL     1       1.083   8.664  20.992  0.00  0.00    +0.000 A 
ATOM     23  C   UNL     1       1.154   9.924  20.365  0.00  0.00    +0.000 A 
BRANCH  18  27
ATOM     24  C   UNL     1       1.402  14.527  19.752  0.00  0.00    +0.000 C 
ATOM     25  C   UNL     1       1.596  13.259  20.540  0.00  0.00    +0.000 C 
ATOM     26  O   UNL     1       2.540  13.152  21.317  0.00  0.00    +0.000 OA
ATOM     27  N   UNL     1       0.633  12.298  20.267  0.00  0.00    +0.000 N 
ATOM     28  H   UNL     1       0.026  12.467  19.475  0.00  0.00    +0.000 HD
ENDBRANCH  18  27
ENDBRANCH   1  22
TORSDOF 4
ENDMDL
