MODEL 1
REMARK VINA RESULT:      -8.1      0.000      0.000
REMARK  Name = 
REMARK  5 active torsions:
REMARK  status: ('A' for Active; 'I' for Inactive)
REMARK    1  A    between atoms: C_1  and  C_2
REMARK    2  A    between atoms: C_5  and  C_6
REMARK    3  A    between atoms: C_8  and  C_9
REMARK    4  A    between atoms: C_11  and  C_12
REMARK    5  A    between atoms: C_20  and  C_21
REMARK                            x       y       z     vdW  Elec       q    Type
REMARK                         _______ _______ _______ _____ _____    ______ ____
ROOT
ATOM      1  C   UNL     1       1.430   8.830  18.851  0.00  0.00    +0.000 A 
ATOM      2  O   UNL     1       2.088   8.186  17.830  0.00  0.00    +0.000 OA
ATOM      3  C   UNL     1       2.742   7.150  18.441  0.00  0.00    +0.000 A 
ATOM      4  N   UNL     1       2.534   7.072  19.742  0.00  0.00    +0.000 NA
ATOM      5  C   UNL     1       1.702   8.136  20.015  0.00  0.00    +0.000 A 
ATOM      6  C   UNL     1       1.236   8.390  21.394  0.00  0.00    +0.000 C 
ENDROOT
BRANCH   3   7
ATOM      7  C   UNL     1       3.597   6.306  17.609  0.00  0.00    +0.000 A 
ATOM      8  C   UNL     1       4.565   6.838  16.742  0.00  0.00    +0.000 A 
ATOM      9  C   UNL     1       5.385   5.992  15.987  0.00  0.00    +0.000 A 
ATOM     10  C   UNL     1       5.241   4.614  16.097  0.00  0.00    +0.000 A 
ATOM     11  F   UNL     1       6.035   3.807  15.383  0.00  0.00    +0.000 F 
ATOM     12  C   UNL     1       4.285   4.063  16.940  0.00  0.00    +0.000 A 
ATOM     13  C   UNL     1       3.465   4.907  17.691  0.00  0.00    +0.000 A 
ENDBRANCH   3   7
BRANCH   1  16
ATOM     14  C   UNL     1      -1.277  11.210  18.425  0.00  0.00    +0.000 A 
ATOM     15  N   UNL     1      -0.753   9.998  18.426  0.00  0.00    +0.000 NA
ATOM     16  C   UNL     1       0.600  10.057  18.713  0.00  0.00    +0.000 A 
ATOM     17  C   UNL     1       1.113  11.324  18.876  0.00  0.00    +0.000 A 
ATOM     18  S   UNL     1      -0.131  12.480  18.672  0.00  0.00    +0.000 S 
BRANCH  14  23
ATOM     19  C   UNL     1      -6.923  12.319  17.640  0.00  0.00    +0.000 C 
ATOM     20  C   UNL     1      -5.457  12.056  17.823  0.00  0.00    +0.000 A 
ATOM     21  C   UNL     1      -4.684  11.558  16.771  0.00  0.00    +0.000 A 
ATOM     22  C   UNL     1      -3.324  11.288  16.956  0.00  0.00    +0.000 A 
ATOM     23  C   UNL     1      -2.704  11.502  18.196  0.00  0.00    +0.000 A 
ATOM     24  C   UNL     1      -3.482  12.032  19.238  0.00  0.00    +0.000 A 
ATOM     25  C   UNL     1      -4.844  12.300  19.056  0.00  0.00    +0.000 A 
ENDBRANCH  14  23
ENDBRANCH   1  16
TORSDOF 3
ENDMDL
MODEL 2
REMARK VINA RESULT:      -8.1      0.246      1.383
REMARK  Name = 
REMARK  5 active torsions:
REMARK  status: ('A' for Active; 'I' for Inactive)
REMARK    1  A    between atoms: C_1  and  C_2
REMARK    2  A    between atoms: C_5  and  C_6
REMARK    3  A    between atoms: C_8  and  C_9
REMARK    4  A    between atoms: C_11  and  C_12
REMARK    5  A    between atoms: C_20  and  C_21
REMARK                            x       y       z     vdW  Elec       q    Type
REMARK                         _______ _______ _______ _____ _____    ______ ____
ROOT
ATOM      1  C   UNL     1       1.276   8.908  19.022  0.00  0.00    +0.000 A 
ATOM      2  O   UNL     1       1.927   8.231  18.017  0.00  0.00    +0.000 OA
ATOM      3  C   UNL     1       2.576   7.208  18.656  0.00  0.00    +0.000 A 
ATOM      4  N   UNL     1       2.372   7.170  19.959  0.00  0.00    +0.000 NA
ATOM      5  C   UNL     1       1.549   8.246  20.204  0.00  0.00    +0.000 A 
ATOM      6  C   UNL     1       1.089   8.544  21.577  0.00  0.00    +0.000 C 
ENDROOT
BRANCH   3   7
ATOM      7  C   UNL     1       3.423   6.335  17.847  0.00  0.00    +0.000 A 
ATOM      8  C   UNL     1       3.216   4.947  17.768  0.00  0.00    +0.000 A 
ATOM      9  C   UNL     1       4.030   4.152  16.954  0.00  0.00    +0.000 A 
ATOM     10  C   UNL     1       5.053   4.740  16.219  0.00  0.00    +0.000 A 
ATOM     11  F   UNL     1       5.824   3.978  15.432  0.00  0.00    +0.000 F 
ATOM     12  C   UNL     1       5.285   6.107  16.287  0.00  0.00    +0.000 A 
ATOM     13  C   UNL     1       4.473   6.900  17.100  0.00  0.00    +0.000 A 
ENDBRANCH   3   7
BRANCH   1  16
ATOM     14  C   UNL     1      -1.419  11.292  18.551  0.00  0.00    +0.000 A 
ATOM     15  N   UNL     1      -0.904  10.077  18.589  0.00  0.00    +0.000 NA
ATOM     16  C   UNL     1       0.453  10.135  18.851  0.00  0.00    +0.000 A 
ATOM     17  C   UNL     1       0.979  11.404  18.957  0.00  0.00    +0.000 A 
ATOM     18  S   UNL     1      -0.259  12.561  18.730  0.00  0.00    +0.000 S 
BRANCH  14  23
ATOM     19  C   UNL     1      -7.019  12.486  17.581  0.00  0.00    +0.000 C 
ATOM     20  C   UNL     1      -5.581  12.155  17.852  0.00  0.00    +0.000 A 
ATOM     21  C   UNL     1      -5.013  12.408  19.103  0.00  0.00    +0.000 A 
ATOM     22  C   UNL     1      -3.664  12.123  19.341  0.00  0.00    +0.000 A 
ATOM     23  C   UNL     1      -2.848  11.587  18.335  0.00  0.00    +0.000 A 
ATOM     24  C   UNL     1      -3.435  11.307  17.090  0.00  0.00    +0.000 A 
ATOM     25  C   UNL     1      -4.784  11.594  16.849  0.00  0.00    +0.000 A 
ENDBRANCH  14  23
ENDBRANCH   1  16
TORSDOF 3
ENDMDL
MODEL 3
REMARK VINA RESULT:      -7.9      3.705      5.887
REMARK  Name = 
REMARK  5 active torsions:
REMARK  status: ('A' for Active; 'I' for Inactive)
REMARK    1  A    between atoms: C_1  and  C_2
REMARK    2  A    between atoms: C_5  and  C_6
REMARK    3  A    between atoms: C_8  and  C_9
REMARK    4  A    between atoms: C_11  and  C_12
REMARK    5  A    between atoms: C_20  and  C_21
REMARK                            x       y       z     vdW  Elec       q    Type
REMARK                         _______ _______ _______ _____ _____    ______ ____
ROOT
ATOM      1  C   UNL     1       5.256   5.288  17.881  0.00  0.00    +0.000 A 
ATOM      2  O   UNL     1       5.166   5.002  16.539  0.00  0.00    +0.000 OA
ATOM      3  C   UNL     1       6.466   4.886  16.124  0.00  0.00    +0.000 A 
ATOM      4  N   UNL     1       7.356   5.049  17.085  0.00  0.00    +0.000 NA
ATOM      5  C   UNL     1       6.600   5.307  18.206  0.00  0.00    +0.000 A 
ATOM      6  C   UNL     1       7.249   5.549  19.512  0.00  0.00    +0.000 C 
ENDROOT
BRANCH   3   7
ATOM      7  C   UNL     1       6.703   4.644  14.703  0.00  0.00    +0.000 A 
ATOM      8  C   UNL     1       5.975   3.692  13.970  0.00  0.00    +0.000 A 
ATOM      9  C   UNL     1       6.212   3.516  12.602  0.00  0.00    +0.000 A 
ATOM     10  C   UNL     1       7.175   4.288  11.964  0.00  0.00    +0.000 A 
ATOM     11  F   UNL     1       7.391   4.125  10.653  0.00  0.00    +0.000 F 
ATOM     12  C   UNL     1       7.915   5.228  12.668  0.00  0.00    +0.000 A 
ATOM     13  C   UNL     1       7.680   5.403  14.033  0.00  0.00    +0.000 A 
ENDBRANCH   3   7
BRANCH   1  16
ATOM     14  C   UNL     1       2.504   6.762  19.732  0.00  0.00    +0.000 A 
ATOM     15  N   UNL     1       3.545   6.805  18.921  0.00  0.00    +0.000 NA
ATOM     16  C   UNL     1       4.110   5.548  18.793  0.00  0.00    +0.000 A 
ATOM     17  C   UNL     1       3.526   4.560  19.555  0.00  0.00    +0.000 A 
ATOM     18  S   UNL     1       2.229   5.216  20.454  0.00  0.00    +0.000 S 
BRANCH  14  23
ATOM     19  C   UNL     1      -0.783  11.396  20.934  0.00  0.00    +0.000 C 
ATOM     20  C   UNL     1       0.040  10.181  20.624  0.00  0.00    +0.000 A 
ATOM     21  C   UNL     1       0.192   9.161  21.567  0.00  0.00    +0.000 A 
ATOM     22  C   UNL     1       0.984   8.043  21.282  0.00  0.00    +0.000 A 
ATOM     23  C   UNL     1       1.649   7.920  20.053  0.00  0.00    +0.000 A 
ATOM     24  C   UNL     1       1.465   8.935  19.100  0.00  0.00    +0.000 A 
ATOM     25  C   UNL     1       0.675  10.056  19.384  0.00  0.00    +0.000 A 
ENDBRANCH  14  23
ENDBRANCH   1  16
TORSDOF 3
ENDMDL
MODEL 4
REMARK VINA RESULT:      -7.8      3.646      5.684
REMARK  Name = 
REMARK  5 active torsions:
REMARK  status: ('A' for Active; 'I' for Inactive)
REMARK    1  A    between atoms: C_1  and  C_2
REMARK    2  A    between atoms: C_5  and  C_6
REMARK    3  A    between atoms: C_8  and  C_9
REMARK    4  A    between atoms: C_11  and  C_12
REMARK    5  A    between atoms: C_20  and  C_21
REMARK                            x       y       z     vdW  Elec       q    Type
REMARK                         _______ _______ _______ _____ _____    ______ ____
ROOT
ATOM      1  C   UNL     1       5.200   5.352  17.866  0.00  0.00    +0.000 A 
ATOM      2  O   UNL     1       5.118   5.077  16.522  0.00  0.00    +0.000 OA
ATOM      3  C   UNL     1       6.420   4.940  16.119  0.00  0.00    +0.000 A 
ATOM      4  N   UNL     1       7.303   5.079  17.089  0.00  0.00    +0.000 NA
ATOM      5  C   UNL     1       6.540   5.343  18.205  0.00  0.00    +0.000 A 
ATOM      6  C   UNL     1       7.181   5.564  19.519  0.00  0.00    +0.000 C 
ENDROOT
BRANCH   3   7
ATOM      7  C   UNL     1       6.667   4.703  14.698  0.00  0.00    +0.000 A 
ATOM      8  C   UNL     1       7.657   5.394  13.981  0.00  0.00    +0.000 A 
ATOM      9  C   UNL     1       7.882   5.113  12.629  0.00  0.00    +0.000 A 
ATOM     10  C   UNL     1       7.119   4.142  11.990  0.00  0.00    +0.000 A 
ATOM     11  F   UNL     1       7.344   3.867  10.699  0.00  0.00    +0.000 F 
ATOM     12  C   UNL     1       6.127   3.452  12.674  0.00  0.00    +0.000 A 
ATOM     13  C   UNL     1       5.902   3.734  14.023  0.00  0.00    +0.000 A 
ENDBRANCH   3   7
BRANCH   1  16
ATOM     14  C   UNL     1       2.453   6.862  19.695  0.00  0.00    +0.000 A 
ATOM     15  N   UNL     1       3.502   6.892  18.893  0.00  0.00    +0.000 NA
ATOM     16  C   UNL     1       4.050   5.627  18.768  0.00  0.00    +0.000 A 
ATOM     17  C   UNL     1       3.445   4.647  19.524  0.00  0.00    +0.000 A 
ATOM     18  S   UNL     1       2.149   5.320  20.412  0.00  0.00    +0.000 S 
BRANCH  14  23
ATOM     19  C   UNL     1      -0.934  11.394  21.005  0.00  0.00    +0.000 C 
ATOM     20  C   UNL     1      -0.034  10.243  20.665  0.00  0.00    +0.000 A 
ATOM     21  C   UNL     1       0.571  10.156  19.409  0.00  0.00    +0.000 A 
ATOM     22  C   UNL     1       1.387   9.066  19.089  0.00  0.00    +0.000 A 
ATOM     23  C   UNL     1       1.612   8.032  20.010  0.00  0.00    +0.000 A 
ATOM     24  C   UNL     1       1.025   8.144  21.281  0.00  0.00    +0.000 A 
ATOM     25  C   UNL     1       0.205   9.233  21.603  0.00  0.00    +0.000 A 
ENDBRANCH  14  23
ENDBRANCH   1  16
TORSDOF 3
ENDMDL
MODEL 5
REMARK VINA RESULT:      -7.7      0.718      1.277
REMARK  Name = 
REMARK  5 active torsions:
REMARK  status: ('A' for Active; 'I' for Inactive)
REMARK    1  A    between atoms: C_1  and  C_2
REMARK    2  A    between atoms: C_5  and  C_6
REMARK    3  A    between atoms: C_8  and  C_9
REMARK    4  A    between atoms: C_11  and  C_12
REMARK    5  A    between atoms: C_20  and  C_21
REMARK                            x       y       z     vdW  Elec       q    Type
REMARK                         _______ _______ _______ _____ _____    ______ ____
ROOT
ATOM      1  C   UNL     1       1.664   8.723  18.864  0.00  0.00    +0.000 A 
ATOM      2  O   UNL     1       2.327   8.119  17.821  0.00  0.00    +0.000 OA
ATOM      3  C   UNL     1       2.892   7.001  18.374  0.00  0.00    +0.000 A 
ATOM      4  N   UNL     1       2.624   6.838  19.656  0.00  0.00    +0.000 NA
ATOM      5  C   UNL     1       1.845   7.927  19.979  0.00  0.00    +0.000 A 
ATOM      6  C   UNL     1       1.336   8.105  21.355  0.00  0.00    +0.000 C 
ENDROOT
BRANCH   3   7
ATOM      7  C   UNL     1       3.731   6.171  17.513  0.00  0.00    +0.000 A 
ATOM      8  C   UNL     1       3.688   4.767  17.546  0.00  0.00    +0.000 A 
ATOM      9  C   UNL     1       4.485   4.011  16.680  0.00  0.00    +0.000 A 
ATOM     10  C   UNL     1       5.328   4.654  15.781  0.00  0.00    +0.000 A 
ATOM     11  F   UNL     1       6.082   3.928  14.945  0.00  0.00    +0.000 F 
ATOM     12  C   UNL     1       5.397   6.039  15.735  0.00  0.00    +0.000 A 
ATOM     13  C   UNL     1       4.603   6.794  16.601  0.00  0.00    +0.000 A 
ENDBRANCH   3   7
BRANCH   1  16
ATOM     14  C   UNL     1      -0.884  11.307  18.872  0.00  0.00    +0.000 A 
ATOM     15  N   UNL     1      -0.465  10.055  18.896  0.00  0.00    +0.000 NA
ATOM     16  C   UNL     1       0.914  10.005  18.790  0.00  0.00    +0.000 A 
ATOM     17  C   UNL     1       1.536  11.223  18.629  0.00  0.00    +0.000 A 
ATOM     18  S   UNL     1       0.367  12.470  18.616  0.00  0.00    +0.000 S 
BRANCH  14  23
ATOM     19  C   UNL     1      -6.429  12.907  19.521  0.00  0.00    +0.000 C 
ATOM     20  C   UNL     1      -4.995  12.512  19.327  0.00  0.00    +0.000 A 
ATOM     21  C   UNL     1      -4.607  11.747  18.225  0.00  0.00    +0.000 A 
ATOM     22  C   UNL     1      -3.272  11.358  18.065  0.00  0.00    +0.000 A 
ATOM     23  C   UNL     1      -2.295  11.717  19.005  0.00  0.00    +0.000 A 
ATOM     24  C   UNL     1      -2.688  12.512  20.093  0.00  0.00    +0.000 A 
ATOM     25  C   UNL     1      -4.024  12.900  20.257  0.00  0.00    +0.000 A 
ENDBRANCH  14  23
ENDBRANCH   1  16
TORSDOF 3
ENDMDL
MODEL 6
REMARK VINA RESULT:      -7.5      2.558      3.947
REMARK  Name = 
REMARK  5 active torsions:
REMARK  status: ('A' for Active; 'I' for Inactive)
REMARK    1  A    between atoms: C_1  and  C_2
REMARK    2  A    between atoms: C_5  and  C_6
REMARK    3  A    between atoms: C_8  and  C_9
REMARK    4  A    between atoms: C_11  and  C_12
REMARK    5  A    between atoms: C_20  and  C_21
REMARK                            x       y       z     vdW  Elec       q    Type
REMARK                         _______ _______ _______ _____ _____    ______ ____
ROOT
ATOM      1  C   UNL     1       1.348   8.972  18.996  0.00  0.00    +0.000 A 
ATOM      2  O   UNL     1       2.006   8.291  17.999  0.00  0.00    +0.000 OA
ATOM      3  C   UNL     1       2.596   7.232  18.636  0.00  0.00    +0.000 A 
ATOM      4  N   UNL     1       2.347   7.175  19.931  0.00  0.00    +0.000 NA
ATOM      5  C   UNL     1       1.556   8.277  20.172  0.00  0.00    +0.000 A 
ATOM      6  C   UNL     1       1.062   8.564  21.535  0.00  0.00    +0.000 C 
ENDROOT
BRANCH   3   7
ATOM      7  C   UNL     1       3.436   6.344  17.836  0.00  0.00    +0.000 A 
ATOM      8  C   UNL     1       3.265   4.949  17.830  0.00  0.00    +0.000 A 
ATOM      9  C   UNL     1       4.071   4.138  17.024  0.00  0.00    +0.000 A 
ATOM     10  C   UNL     1       5.049   4.717  16.223  0.00  0.00    +0.000 A 
ATOM     11  F   UNL     1       5.811   3.939  15.443  0.00  0.00    +0.000 F 
ATOM     12  C   UNL     1       5.245   6.091  16.219  0.00  0.00    +0.000 A 
ATOM     13  C   UNL     1       4.441   6.901  17.025  0.00  0.00    +0.000 A 
ENDBRANCH   3   7
BRANCH   1  16
ATOM     14  C   UNL     1       0.295  12.433  18.711  0.00  0.00    +0.000 A 
ATOM     15  N   UNL     1       1.164  11.477  18.985  0.00  0.00    +0.000 NA
ATOM     16  C   UNL     1       0.578  10.233  18.825  0.00  0.00    +0.000 A 
ATOM     17  C   UNL     1      -0.756  10.250  18.482  0.00  0.00    +0.000 A 
ATOM     18  S   UNL     1      -1.296  11.867  18.349  0.00  0.00    +0.000 S 
BRANCH  14  23
ATOM     19  C   UNL     1       1.408  18.133  18.777  0.00  0.00    +0.000 C 
ATOM     20  C   UNL     1       1.137  16.658  18.787  0.00  0.00    +0.000 A 
ATOM     21  C   UNL     1       2.174  15.739  18.605  0.00  0.00    +0.000 A 
ATOM     22  C   UNL     1       1.911  14.365  18.588  0.00  0.00    +0.000 A 
ATOM     23  C   UNL     1       0.606  13.875  18.743  0.00  0.00    +0.000 A 
ATOM     24  C   UNL     1      -0.426  14.804  18.956  0.00  0.00    +0.000 A 
ATOM     25  C   UNL     1      -0.165  16.180  18.971  0.00  0.00    +0.000 A 
ENDBRANCH  14  23
ENDBRANCH   1  16
TORSDOF 3
ENDMDL
MODEL 7
REMARK VINA RESULT:      -7.5      2.517      3.867
REMARK  Name = 
REMARK  5 active torsions:
REMARK  status: ('A' for Active; 'I' for Inactive)
REMARK    1  A    between atoms: C_1  and  C_2
REMARK    2  A    between atoms: C_5  and  C_6
REMARK    3  A    between atoms: C_8  and  C_9
REMARK    4  A    between atoms: C_11  and  C_12
REMARK    5  A    between atoms: C_20  and  C_21
REMARK                            x       y       z     vdW  Elec       q    Type
REMARK                         _______ _______ _______ _____ _____    ______ ____
ROOT
ATOM      1  C   UNL     1       1.391   8.916  18.925  0.00  0.00    +0.000 A 
ATOM      2  O   UNL     1       2.042   8.245  17.916  0.00  0.00    +0.000 OA
ATOM      3  C   UNL     1       2.648   7.188  18.541  0.00  0.00    +0.000 A 
ATOM      4  N   UNL     1       2.418   7.123  19.838  0.00  0.00    +0.000 NA
ATOM      5  C   UNL     1       1.622   8.217  20.095  0.00  0.00    +0.000 A 
ATOM      6  C   UNL     1       1.144   8.494  21.466  0.00  0.00    +0.000 C 
ENDROOT
BRANCH   3   7
ATOM      7  C   UNL     1       3.485   6.311  17.725  0.00  0.00    +0.000 A 
ATOM      8  C   UNL     1       4.540   6.797  16.935  0.00  0.00    +0.000 A 
ATOM      9  C   UNL     1       5.338   5.918  16.195  0.00  0.00    +0.000 A 
ATOM     10  C   UNL     1       5.084   4.552  16.241  0.00  0.00    +0.000 A 
ATOM     11  F   UNL     1       5.856   3.712  15.540  0.00  0.00    +0.000 F 
ATOM     12  C   UNL     1       4.041   4.047  17.005  0.00  0.00    +0.000 A 
ATOM     13  C   UNL     1       3.244   4.925  17.743  0.00  0.00    +0.000 A 
ENDBRANCH   3   7
BRANCH   1  16
ATOM     14  C   UNL     1       0.297  12.370  18.719  0.00  0.00    +0.000 A 
ATOM     15  N   UNL     1       1.170  11.417  18.988  0.00  0.00    +0.000 NA
ATOM     16  C   UNL     1       0.608  10.171  18.770  0.00  0.00    +0.000 A 
ATOM     17  C   UNL     1      -0.714  10.181  18.386  0.00  0.00    +0.000 A 
ATOM     18  S   UNL     1      -1.274  11.793  18.288  0.00  0.00    +0.000 S 
BRANCH  14  23
ATOM     19  C   UNL     1       1.538  18.029  19.121  0.00  0.00    +0.000 C 
ATOM     20  C   UNL     1       1.201  16.573  18.990  0.00  0.00    +0.000 A 
ATOM     21  C   UNL     1      -0.115  16.128  19.138  0.00  0.00    +0.000 A 
ATOM     22  C   UNL     1      -0.419  14.765  19.043  0.00  0.00    +0.000 A 
ATOM     23  C   UNL     1       0.584  13.814  18.806  0.00  0.00    +0.000 A 
ATOM     24  C   UNL     1       1.899  14.273  18.628  0.00  0.00    +0.000 A 
ATOM     25  C   UNL     1       2.206  15.636  18.725  0.00  0.00    +0.000 A 
ENDBRANCH  14  23
ENDBRANCH   1  16
TORSDOF 3
ENDMDL
MODEL 8
REMARK VINA RESULT:      -7.4      4.260      9.154
REMARK  Name = 
REMARK  5 active torsions:
REMARK  status: ('A' for Active; 'I' for Inactive)
REMARK    1  A    between atoms: C_1  and  C_2
REMARK    2  A    between atoms: C_5  and  C_6
REMARK    3  A    between atoms: C_8  and  C_9
REMARK    4  A    between atoms: C_11  and  C_12
REMARK    5  A    between atoms: C_20  and  C_21
REMARK                            x       y       z     vdW  Elec       q    Type
REMARK                         _______ _______ _______ _____ _____    ______ ____
ROOT
ATOM      1  C   UNL     1       0.494  10.876  18.962  0.00  0.00    +0.000 A 
ATOM      2  O   UNL     1       1.088  12.093  19.201  0.00  0.00    +0.000 OA
ATOM      3  C   UNL     1       0.188  13.013  18.733  0.00  0.00    +0.000 A 
ATOM      4  N   UNL     1      -0.920  12.486  18.249  0.00  0.00    +0.000 NA
ATOM      5  C   UNL     1      -0.737  11.128  18.387  0.00  0.00    +0.000 A 
ATOM      6  C   UNL     1      -1.783  10.180  17.948  0.00  0.00    +0.000 C 
ENDROOT
BRANCH   3   7
ATOM      7  C   UNL     1       0.571  14.422  18.789  0.00  0.00    +0.000 A 
ATOM      8  C   UNL     1       1.906  14.845  18.675  0.00  0.00    +0.000 A 
ATOM      9  C   UNL     1       2.224  16.207  18.701  0.00  0.00    +0.000 A 
ATOM     10  C   UNL     1       1.212  17.149  18.842  0.00  0.00    +0.000 A 
ATOM     11  F   UNL     1       1.519  18.453  18.855  0.00  0.00    +0.000 F 
ATOM     12  C   UNL     1      -0.114  16.757  18.967  0.00  0.00    +0.000 A 
ATOM     13  C   UNL     1      -0.432  15.398  18.943  0.00  0.00    +0.000 A 
ENDBRANCH   3   7
BRANCH   1  16
ATOM     14  C   UNL     1       2.271   7.715  18.819  0.00  0.00    +0.000 A 
ATOM     15  N   UNL     1       1.780   8.824  18.297  0.00  0.00    +0.000 NA
ATOM     16  C   UNL     1       1.091   9.546  19.256  0.00  0.00    +0.000 A 
ATOM     17  C   UNL     1       1.013   8.952  20.496  0.00  0.00    +0.000 A 
ATOM     18  S   UNL     1       1.830   7.450  20.469  0.00  0.00    +0.000 S 
BRANCH  14  23
ATOM     19  C   UNL     1       5.523   3.953  15.819  0.00  0.00    +0.000 C 
ATOM     20  C   UNL     1       4.693   4.912  16.621  0.00  0.00    +0.000 A 
ATOM     21  C   UNL     1       3.621   4.457  17.393  0.00  0.00    +0.000 A 
ATOM     22  C   UNL     1       2.834   5.360  18.117  0.00  0.00    +0.000 A 
ATOM     23  C   UNL     1       3.094   6.738  18.081  0.00  0.00    +0.000 A 
ATOM     24  C   UNL     1       4.193   7.183  17.328  0.00  0.00    +0.000 A 
ATOM     25  C   UNL     1       4.980   6.281  16.600  0.00  0.00    +0.000 A 
ENDBRANCH  14  23
ENDBRANCH   1  16
TORSDOF 3
ENDMDL
MODEL 9
REMARK VINA RESULT:      -7.4      4.610      9.597
REMARK  Name = 
REMARK  5 active torsions:
REMARK  status: ('A' for Active; 'I' for Inactive)
REMARK    1  A    between atoms: C_1  and  C_2
REMARK    2  A    between atoms: C_5  and  C_6
REMARK    3  A    between atoms: C_8  and  C_9
REMARK    4  A    between atoms: C_11  and  C_12
REMARK    5  A    between atoms: C_20  and  C_21
REMARK                            x       y       z     vdW  Elec       q    Type
REMARK                         _______ _______ _______ _____ _____    ______ ____
ROOT
ATOM      1  C   UNL     1       3.432   5.900  19.498  0.00  0.00    +0.000 A 
ATOM      2  O   UNL     1       2.959   7.188  19.596  0.00  0.00    +0.000 OA
ATOM      3  C   UNL     1       1.825   7.081  20.356  0.00  0.00    +0.000 A 
ATOM      4  N   UNL     1       1.560   5.853  20.761  0.00  0.00    +0.000 NA
ATOM      5  C   UNL     1       2.573   5.093  20.220  0.00  0.00    +0.000 A 
ATOM      6  C   UNL     1       2.626   3.635  20.455  0.00  0.00    +0.000 C 
ENDROOT
BRANCH   3   7
ATOM      7  C   UNL     1       1.047   8.297  20.585  0.00  0.00    +0.000 A 
ATOM      8  C   UNL     1       0.309   8.508  21.761  0.00  0.00    +0.000 A 
ATOM      9  C   UNL     1      -0.395   9.701  21.954  0.00  0.00    +0.000 A 
ATOM     10  C   UNL     1      -0.364  10.686  20.973  0.00  0.00    +0.000 A 
ATOM     11  F   UNL     1      -1.030  11.832  21.165  0.00  0.00    +0.000 F 
ATOM     12  C   UNL     1       0.350  10.498  19.797  0.00  0.00    +0.000 A 
ATOM     13  C   UNL     1       1.051   9.306  19.604  0.00  0.00    +0.000 A 
ENDBRANCH   3   7
BRANCH   1  16
ATOM     14  C   UNL     1       5.792   4.932  16.916  0.00  0.00    +0.000 A 
ATOM     15  N   UNL     1       4.588   5.228  17.372  0.00  0.00    +0.000 NA
ATOM     16  C   UNL     1       4.634   5.472  18.734  0.00  0.00    +0.000 A 
ATOM     17  C   UNL     1       5.868   5.305  19.321  0.00  0.00    +0.000 A 
ATOM     18  S   UNL     1       7.010   4.836  18.137  0.00  0.00    +0.000 S 
BRANCH  14  23
ATOM     19  C   UNL     1       6.971   3.738  11.357  0.00  0.00    +0.000 C 
ATOM     20  C   UNL     1       6.663   4.077  12.785  0.00  0.00    +0.000 A 
ATOM     21  C   UNL     1       7.532   4.873  13.535  0.00  0.00    +0.000 A 
ATOM     22  C   UNL     1       7.253   5.163  14.875  0.00  0.00    +0.000 A 
ATOM     23  C   UNL     1       6.104   4.658  15.501  0.00  0.00    +0.000 A 
ATOM     24  C   UNL     1       5.220   3.885  14.731  0.00  0.00    +0.000 A 
ATOM     25  C   UNL     1       5.499   3.592  13.390  0.00  0.00    +0.000 A 
ENDBRANCH  14  23
ENDBRANCH   1  16
TORSDOF 3
ENDMDL
