MODEL 1
REMARK VINA RESULT:      -8.7      0.000      0.000
REMARK  Name = 
REMARK  10 active torsions:
REMARK  status: ('A' for Active; 'I' for Inactive)
REMARK    1  A    between atoms: C_1  and  O_2
REMARK    2  A    between atoms: O_2  and  C_3
REMARK    3  A    between atoms: C_5  and  C_6
REMARK    4  A    between atoms: N_10  and  C_11
REMARK    5  A    between atoms: C_14  and  C_15
REMARK    6  A    between atoms: C_26  and  C_27
REMARK    7  A    between atoms: C_29  and  O_30
REMARK    8  A    between atoms: O_30  and  C_31
REMARK    9  A    between atoms: C_32  and  O_33
REMARK   10  A    between atoms: O_33  and  C_34
REMARK                            x       y       z     vdW  Elec       q    Type
REMARK                         _______ _______ _______ _____ _____    ______ ____
ROOT
ATOM      1  C   UNL     1      -0.534  12.944  18.809  0.00  0.00    +0.000 A 
ATOM      2  N   UNL     1      -0.360  14.238  18.598  0.00  0.00    +0.000 NA
ATOM      3  N   UNL     1       0.973  14.492  18.759  0.00  0.00    +0.000 NA
ATOM      4  N   UNL     1       1.634  13.385  19.055  0.00  0.00    +0.000 NA
ATOM      5  N   UNL     1       0.729  12.378  19.013  0.00  0.00    +0.000 N 
ENDROOT
BRANCH   5   6
ATOM      6  C   UNL     1       1.134  11.014  19.091  0.00  0.00    +0.000 A 
ATOM      7  C   UNL     1       1.747  10.395  17.984  0.00  0.00    +0.000 A 
ATOM      8  C   UNL     1       2.102   9.039  18.013  0.00  0.00    +0.000 A 
ATOM      9  C   UNL     1       1.900   8.282  19.169  0.00  0.00    +0.000 A 
ATOM     10  C   UNL     1       1.298   8.918  20.271  0.00  0.00    +0.000 A 
ATOM     11  C   UNL     1       0.893  10.262  20.255  0.00  0.00    +0.000 A 
ATOM     12  C   UNL     1       0.190  10.791  21.475  0.00  0.00    +0.000 C 
BRANCH   9  13
ATOM     13  C   UNL     1       2.309   6.875  19.340  0.00  0.00    +0.000 A 
ATOM     14  N   UNL     1       1.805   6.110  20.289  0.00  0.00    +0.000 NA
ATOM     15  C   UNL     1       2.438   4.891  20.336  0.00  0.00    +0.000 A 
ATOM     16  C   UNL     1       2.184   3.875  21.279  0.00  0.00    +0.000 A 
ATOM     17  C   UNL     1       2.933   2.699  21.239  0.00  0.00    +0.000 A 
ATOM     18  C   UNL     1       3.908   2.534  20.267  0.00  0.00    +0.000 A 
ATOM     19  F   UNL     1       4.620   1.401  20.249  0.00  0.00    +0.000 F 
ATOM     20  C   UNL     1       4.169   3.511  19.305  0.00  0.00    +0.000 A 
ATOM     21  C   UNL     1       3.422   4.698  19.366  0.00  0.00    +0.000 A 
ATOM     22  S   UNL     1       3.508   6.108  18.374  0.00  0.00    +0.000 S 
ENDBRANCH   9  13
ENDBRANCH   5   6
BRANCH   1  25
ATOM     23  C   UNL     1      -4.113  12.191  19.581  0.00  0.00    +0.000 A 
ATOM     24  C   UNL     1      -2.765  12.543  19.763  0.00  0.00    +0.000 A 
ATOM     25  C   UNL     1      -1.814  12.245  18.793  0.00  0.00    +0.000 A 
ATOM     26  C   UNL     1      -2.176  11.387  17.759  0.00  0.00    +0.000 A 
ATOM     27  C   UNL     1      -3.505  11.000  17.562  0.00  0.00    +0.000 A 
ATOM     28  C   UNL     1      -4.504  11.402  18.474  0.00  0.00    +0.000 A 
BRANCH  23  30
ATOM     29  C   UNL     1      -4.606  12.710  21.837  0.00  0.00    +0.000 C 
ATOM     30  O   UNL     1      -5.052  12.630  20.481  0.00  0.00    +0.000 OA
ENDBRANCH  23  30
BRANCH  27  31
ATOM     31  O   UNL     1      -3.630  10.305  16.388  0.00  0.00    +0.000 OA
ATOM     32  C   UNL     1      -2.929  10.734  15.233  0.00  0.00    +0.000 C 
ENDBRANCH  27  31
BRANCH  28  33
ATOM     33  O   UNL     1      -5.773  10.990  18.184  0.00  0.00    +0.000 OA
ATOM     34  C   UNL     1      -6.730  11.896  17.665  0.00  0.00    +0.000 C 
ENDBRANCH  28  33
ENDBRANCH   1  25
TORSDOF 6
ENDMDL
MODEL 2
REMARK VINA RESULT:      -8.3      1.057      1.414
REMARK  Name = 
REMARK  10 active torsions:
REMARK  status: ('A' for Active; 'I' for Inactive)
REMARK    1  A    between atoms: C_1  and  O_2
REMARK    2  A    between atoms: O_2  and  C_3
REMARK    3  A    between atoms: C_5  and  C_6
REMARK    4  A    between atoms: N_10  and  C_11
REMARK    5  A    between atoms: C_14  and  C_15
REMARK    6  A    between atoms: C_26  and  C_27
REMARK    7  A    between atoms: C_29  and  O_30
REMARK    8  A    between atoms: O_30  and  C_31
REMARK    9  A    between atoms: C_32  and  O_33
REMARK   10  A    between atoms: O_33  and  C_34
REMARK                            x       y       z     vdW  Elec       q    Type
REMARK                         _______ _______ _______ _____ _____    ______ ____
ROOT
ATOM      1  C   UNL     1      -0.591  13.045  19.215  0.00  0.00    +0.000 A 
ATOM      2  N   UNL     1      -0.421  14.356  19.230  0.00  0.00    +0.000 NA
ATOM      3  N   UNL     1       0.891  14.584  19.535  0.00  0.00    +0.000 NA
ATOM      4  N   UNL     1       1.545  13.446  19.700  0.00  0.00    +0.000 NA
ATOM      5  N   UNL     1       0.661  12.457  19.424  0.00  0.00    +0.000 N 
ENDROOT
BRANCH   5   6
ATOM      6  C   UNL     1       1.080  11.100  19.312  0.00  0.00    +0.000 A 
ATOM      7  C   UNL     1       1.697  10.646  18.130  0.00  0.00    +0.000 A 
ATOM      8  C   UNL     1       2.067   9.303  17.970  0.00  0.00    +0.000 A 
ATOM      9  C   UNL     1       1.873   8.391  19.010  0.00  0.00    +0.000 A 
ATOM     10  C   UNL     1       1.267   8.861  20.190  0.00  0.00    +0.000 A 
ATOM     11  C   UNL     1       0.849  10.191  20.361  0.00  0.00    +0.000 A 
ATOM     12  C   UNL     1       0.143  10.538  21.642  0.00  0.00    +0.000 C 
BRANCH   9  13
ATOM     13  C   UNL     1       2.298   6.978  18.985  0.00  0.00    +0.000 A 
ATOM     14  N   UNL     1       2.983   6.471  17.979  0.00  0.00    +0.000 NA
ATOM     15  C   UNL     1       3.140   5.112  18.118  0.00  0.00    +0.000 A 
ATOM     16  C   UNL     1       3.763   4.264  17.181  0.00  0.00    +0.000 A 
ATOM     17  C   UNL     1       3.816   2.892  17.427  0.00  0.00    +0.000 A 
ATOM     18  C   UNL     1       3.269   2.377  18.594  0.00  0.00    +0.000 A 
ATOM     19  F   UNL     1       3.324   1.058  18.808  0.00  0.00    +0.000 F 
ATOM     20  C   UNL     1       2.664   3.194  19.551  0.00  0.00    +0.000 A 
ATOM     21  C   UNL     1       2.601   4.570  19.285  0.00  0.00    +0.000 A 
ATOM     22  S   UNL     1       1.903   5.844  20.216  0.00  0.00    +0.000 S 
ENDBRANCH   9  13
ENDBRANCH   5   6
BRANCH   1  25
ATOM     23  C   UNL     1      -4.185  12.105  19.633  0.00  0.00    +0.000 A 
ATOM     24  C   UNL     1      -2.853  12.420  19.951  0.00  0.00    +0.000 A 
ATOM     25  C   UNL     1      -1.855  12.354  18.985  0.00  0.00    +0.000 A 
ATOM     26  C   UNL     1      -2.154  11.742  17.772  0.00  0.00    +0.000 A 
ATOM     27  C   UNL     1      -3.466  11.395  17.432  0.00  0.00    +0.000 A 
ATOM     28  C   UNL     1      -4.511  11.576  18.362  0.00  0.00    +0.000 A 
BRANCH  23  30
ATOM     29  C   UNL     1      -4.716  12.786  21.836  0.00  0.00    +0.000 C 
ATOM     30  O   UNL     1      -5.170  12.324  20.562  0.00  0.00    +0.000 OA
ENDBRANCH  23  30
BRANCH  27  31
ATOM     31  O   UNL     1      -3.525  10.976  16.128  0.00  0.00    +0.000 OA
ATOM     32  C   UNL     1      -2.618   9.995  15.658  0.00  0.00    +0.000 C 
ENDBRANCH  27  31
BRANCH  28  33
ATOM     33  O   UNL     1      -5.757  11.226  17.929  0.00  0.00    +0.000 OA
ATOM     34  C   UNL     1      -6.652  12.202  17.423  0.00  0.00    +0.000 C 
ENDBRANCH  28  33
ENDBRANCH   1  25
TORSDOF 6
ENDMDL
MODEL 3
REMARK VINA RESULT:      -8.3      5.688     10.281
REMARK  Name = 
REMARK  10 active torsions:
REMARK  status: ('A' for Active; 'I' for Inactive)
REMARK    1  A    between atoms: C_1  and  O_2
REMARK    2  A    between atoms: O_2  and  C_3
REMARK    3  A    between atoms: C_5  and  C_6
REMARK    4  A    between atoms: N_10  and  C_11
REMARK    5  A    between atoms: C_14  and  C_15
REMARK    6  A    between atoms: C_26  and  C_27
REMARK    7  A    between atoms: C_29  and  O_30
REMARK    8  A    between atoms: O_30  and  C_31
REMARK    9  A    between atoms: C_32  and  O_33
REMARK   10  A    between atoms: O_33  and  C_34
REMARK                            x       y       z     vdW  Elec       q    Type
REMARK                         _______ _______ _______ _____ _____    ______ ____
ROOT
ATOM      1  C   UNL     1       3.894   3.164  18.011  0.00  0.00    +0.000 A 
ATOM      2  N   UNL     1       3.702   1.900  17.671  0.00  0.00    +0.000 NA
ATOM      3  N   UNL     1       2.499   1.525  18.198  0.00  0.00    +0.000 NA
ATOM      4  N   UNL     1       1.932   2.527  18.849  0.00  0.00    +0.000 NA
ATOM      5  N   UNL     1       2.745   3.598  18.681  0.00  0.00    +0.000 N 
ENDROOT
BRANCH   5   6
ATOM      6  C   UNL     1       2.342   4.903  19.085  0.00  0.00    +0.000 A 
ATOM      7  C   UNL     1       2.328   5.960  18.154  0.00  0.00    +0.000 A 
ATOM      8  C   UNL     1       1.993   7.266  18.539  0.00  0.00    +0.000 A 
ATOM      9  C   UNL     1       1.614   7.536  19.855  0.00  0.00    +0.000 A 
ATOM     10  C   UNL     1       1.620   6.469  20.772  0.00  0.00    +0.000 A 
ATOM     11  C   UNL     1       1.993   5.160  20.424  0.00  0.00    +0.000 A 
ATOM     12  C   UNL     1       2.031   4.133  21.522  0.00  0.00    +0.000 C 
BRANCH   9  13
ATOM     13  C   UNL     1       1.163   8.851  20.351  0.00  0.00    +0.000 A 
ATOM     14  N   UNL     1       0.561   8.990  21.516  0.00  0.00    +0.000 NA
ATOM     15  C   UNL     1       0.114  10.277  21.695  0.00  0.00    +0.000 A 
ATOM     16  C   UNL     1      -0.628  10.737  22.802  0.00  0.00    +0.000 A 
ATOM     17  C   UNL     1      -1.059  12.063  22.837  0.00  0.00    +0.000 A 
ATOM     18  C   UNL     1      -0.742  12.920  21.793  0.00  0.00    +0.000 A 
ATOM     19  F   UNL     1      -1.169  14.187  21.842  0.00  0.00    +0.000 F 
ATOM     20  C   UNL     1       0.009  12.502  20.694  0.00  0.00    +0.000 A 
ATOM     21  C   UNL     1       0.422  11.161  20.661  0.00  0.00    +0.000 A 
ATOM     22  S   UNL     1       1.318  10.311  19.455  0.00  0.00    +0.000 S 
ENDBRANCH   9  13
ENDBRANCH   5   6
BRANCH   1  25
ATOM     23  C   UNL     1       6.228   5.358  16.086  0.00  0.00    +0.000 A 
ATOM     24  C   UNL     1       5.340   4.312  16.387  0.00  0.00    +0.000 A 
ATOM     25  C   UNL     1       5.080   3.956  17.705  0.00  0.00    +0.000 A 
ATOM     26  C   UNL     1       5.892   4.486  18.703  0.00  0.00    +0.000 A 
ATOM     27  C   UNL     1       6.803   5.514  18.433  0.00  0.00    +0.000 A 
ATOM     28  C   UNL     1       6.984   5.973  17.112  0.00  0.00    +0.000 A 
BRANCH  23  30
ATOM     29  C   UNL     1       7.199   4.992  13.959  0.00  0.00    +0.000 C 
ATOM     30  O   UNL     1       6.350   5.788  14.788  0.00  0.00    +0.000 OA
ENDBRANCH  23  30
BRANCH  27  31
ATOM     31  O   UNL     1       7.350   5.983  19.599  0.00  0.00    +0.000 OA
ATOM     32  C   UNL     1       8.468   5.327  20.171  0.00  0.00    +0.000 C 
ENDBRANCH  27  31
BRANCH  28  33
ATOM     33  O   UNL     1       7.880   6.991  16.955  0.00  0.00    +0.000 OA
ATOM     34  C   UNL     1       7.619   8.277  17.490  0.00  0.00    +0.000 C 
ENDBRANCH  28  33
ENDBRANCH   1  25
TORSDOF 6
ENDMDL
MODEL 4
REMARK VINA RESULT:      -8.2      1.137      1.176
REMARK  Name = 
REMARK  10 active torsions:
REMARK  status: ('A' for Active; 'I' for Inactive)
REMARK    1  A    between atoms: C_1  and  O_2
REMARK    2  A    between atoms: O_2  and  C_3
REMARK    3  A    between atoms: C_5  and  C_6
REMARK    4  A    between atoms: N_10  and  C_11
REMARK    5  A    between atoms: C_14  and  C_15
REMARK    6  A    between atoms: C_26  and  C_27
REMARK    7  A    between atoms: C_29  and  O_30
REMARK    8  A    between atoms: O_30  and  C_31
REMARK    9  A    between atoms: C_32  and  O_33
REMARK   10  A    between atoms: O_33  and  C_34
REMARK                            x       y       z     vdW  Elec       q    Type
REMARK                         _______ _______ _______ _____ _____    ______ ____
ROOT
ATOM      1  C   UNL     1      -0.223  12.790  19.066  0.00  0.00    +0.000 A 
ATOM      2  N   UNL     1       0.008  14.088  19.170  0.00  0.00    +0.000 NA
ATOM      3  N   UNL     1       1.327  14.232  19.495  0.00  0.00    +0.000 NA
ATOM      4  N   UNL     1       1.925  13.056  19.585  0.00  0.00    +0.000 NA
ATOM      5  N   UNL     1       0.998  12.131  19.240  0.00  0.00    +0.000 N 
ENDROOT
BRANCH   5   6
ATOM      6  C   UNL     1       1.354  10.766  19.037  0.00  0.00    +0.000 A 
ATOM      7  C   UNL     1       1.942  10.360  17.823  0.00  0.00    +0.000 A 
ATOM      8  C   UNL     1       2.248   9.015  17.575  0.00  0.00    +0.000 A 
ATOM      9  C   UNL     1       2.020   8.049  18.557  0.00  0.00    +0.000 A 
ATOM     10  C   UNL     1       1.444   8.470  19.770  0.00  0.00    +0.000 A 
ATOM     11  C   UNL     1       1.088   9.803  20.029  0.00  0.00    +0.000 A 
ATOM     12  C   UNL     1       0.408  10.100  21.337  0.00  0.00    +0.000 C 
BRANCH   9  13
ATOM     13  C   UNL     1       2.379   6.622  18.438  0.00  0.00    +0.000 A 
ATOM     14  N   UNL     1       1.468   5.683  18.277  0.00  0.00    +0.000 NA
ATOM     15  C   UNL     1       2.030   4.430  18.331  0.00  0.00    +0.000 A 
ATOM     16  C   UNL     1       1.320   3.214  18.264  0.00  0.00    +0.000 A 
ATOM     17  C   UNL     1       2.012   2.008  18.376  0.00  0.00    +0.000 A 
ATOM     18  C   UNL     1       3.390   2.014  18.538  0.00  0.00    +0.000 A 
ATOM     19  F   UNL     1       4.035   0.847  18.651  0.00  0.00    +0.000 F 
ATOM     20  C   UNL     1       4.124   3.201  18.587  0.00  0.00    +0.000 A 
ATOM     21  C   UNL     1       3.415   4.408  18.491  0.00  0.00    +0.000 A 
ATOM     22  S   UNL     1       3.991   6.034  18.551  0.00  0.00    +0.000 S 
ENDBRANCH   9  13
ENDBRANCH   5   6
BRANCH   1  25
ATOM     23  C   UNL     1      -3.854  11.973  19.422  0.00  0.00    +0.000 A 
ATOM     24  C   UNL     1      -2.509  12.202  19.758  0.00  0.00    +0.000 A 
ATOM     25  C   UNL     1      -1.517  12.177  18.785  0.00  0.00    +0.000 A 
ATOM     26  C   UNL     1      -1.844  11.686  17.525  0.00  0.00    +0.000 A 
ATOM     27  C   UNL     1      -3.171  11.427  17.164  0.00  0.00    +0.000 A 
ATOM     28  C   UNL     1      -4.205  11.571  18.112  0.00  0.00    +0.000 A 
BRANCH  23  30
ATOM     29  C   UNL     1      -4.490  13.058  21.427  0.00  0.00    +0.000 C 
ATOM     30  O   UNL     1      -4.827  12.154  20.373  0.00  0.00    +0.000 OA
ENDBRANCH  23  30
BRANCH  27  31
ATOM     31  O   UNL     1      -3.251  11.125  15.830  0.00  0.00    +0.000 OA
ATOM     32  C   UNL     1      -2.762   9.884  15.353  0.00  0.00    +0.000 C 
ENDBRANCH  27  31
BRANCH  28  33
ATOM     33  O   UNL     1      -5.467  11.314  17.658  0.00  0.00    +0.000 OA
ATOM     34  C   UNL     1      -6.315  12.367  17.233  0.00  0.00    +0.000 C 
ENDBRANCH  28  33
ENDBRANCH   1  25
TORSDOF 6
ENDMDL
MODEL 5
REMARK VINA RESULT:      -8.1      1.295      1.437
REMARK  Name = 
REMARK  10 active torsions:
REMARK  status: ('A' for Active; 'I' for Inactive)
REMARK    1  A    between atoms: C_1  and  O_2
REMARK    2  A    between atoms: O_2  and  C_3
REMARK    3  A    between atoms: C_5  and  C_6
REMARK    4  A    between atoms: N_10  and  C_11
REMARK    5  A    between atoms: C_14  and  C_15
REMARK    6  A    between atoms: C_26  and  C_27
REMARK    7  A    between atoms: C_29  and  O_30
REMARK    8  A    between atoms: O_30  and  C_31
REMARK    9  A    between atoms: C_32  and  O_33
REMARK   10  A    between atoms: O_33  and  C_34
REMARK                            x       y       z     vdW  Elec       q    Type
REMARK                         _______ _______ _______ _____ _____    ______ ____
ROOT
ATOM      1  C   UNL     1      -1.130  13.142  20.707  0.00  0.00    +0.000 A 
ATOM      2  N   UNL     1      -0.973  14.431  20.957  0.00  0.00    +0.000 NA
ATOM      3  N   UNL     1       0.263  14.579  21.521  0.00  0.00    +0.000 NA
ATOM      4  N   UNL     1       0.883  13.415  21.619  0.00  0.00    +0.000 NA
ATOM      5  N   UNL     1       0.067  12.500  21.039  0.00  0.00    +0.000 N 
ENDROOT
BRANCH   5   6
ATOM      6  C   UNL     1       0.508  11.168  20.792  0.00  0.00    +0.000 A 
ATOM      7  C   UNL     1       1.150  10.849  19.580  0.00  0.00    +0.000 A 
ATOM      8  C   UNL     1       1.541   9.535  19.285  0.00  0.00    +0.000 A 
ATOM      9  C   UNL     1       1.344   8.516  20.220  0.00  0.00    +0.000 A 
ATOM     10  C   UNL     1       0.712   8.852  21.432  0.00  0.00    +0.000 A 
ATOM     11  C   UNL     1       0.272  10.151  21.735  0.00  0.00    +0.000 A 
ATOM     12  C   UNL     1      -0.458  10.352  23.034  0.00  0.00    +0.000 C 
BRANCH   9  13
ATOM     13  C   UNL     1       1.788   7.119  20.053  0.00  0.00    +0.000 A 
ATOM     14  N   UNL     1       1.463   6.174  20.914  0.00  0.00    +0.000 NA
ATOM     15  C   UNL     1       2.105   4.994  20.623  0.00  0.00    +0.000 A 
ATOM     16  C   UNL     1       2.026   3.813  21.389  0.00  0.00    +0.000 A 
ATOM     17  C   UNL     1       2.766   2.695  21.003  0.00  0.00    +0.000 A 
ATOM     18  C   UNL     1       3.559   2.749  19.866  0.00  0.00    +0.000 A 
ATOM     19  F   UNL     1       4.266   1.668  19.516  0.00  0.00    +0.000 F 
ATOM     20  C   UNL     1       3.641   3.896  19.075  0.00  0.00    +0.000 A 
ATOM     21  C   UNL     1       2.906   5.021  19.481  0.00  0.00    +0.000 A 
ATOM     22  S   UNL     1       2.807   6.591  18.772  0.00  0.00    +0.000 S 
ENDBRANCH   9  13
ENDBRANCH   5   6
BRANCH   1  25
ATOM     23  C   UNL     1      -4.759  12.467  20.116  0.00  0.00    +0.000 A 
ATOM     24  C   UNL     1      -3.550  12.712  20.789  0.00  0.00    +0.000 A 
ATOM     25  C   UNL     1      -2.329  12.524  20.152  0.00  0.00    +0.000 A 
ATOM     26  C   UNL     1      -2.322  11.863  18.927  0.00  0.00    +0.000 A 
ATOM     27  C   UNL     1      -3.508  11.585  18.240  0.00  0.00    +0.000 A 
ATOM     28  C   UNL     1      -4.755  11.888  18.826  0.00  0.00    +0.000 A 
BRANCH  23  30
ATOM     29  C   UNL     1      -5.854  13.812  21.726  0.00  0.00    +0.000 C 
ATOM     30  O   UNL     1      -5.946  12.804  20.717  0.00  0.00    +0.000 OA
ENDBRANCH  23  30
BRANCH  27  31
ATOM     31  O   UNL     1      -3.231  11.095  16.990  0.00  0.00    +0.000 OA
ATOM     32  C   UNL     1      -2.288  10.050  16.832  0.00  0.00    +0.000 C 
ENDBRANCH  27  31
BRANCH  28  33
ATOM     33  O   UNL     1      -5.853  11.596  18.068  0.00  0.00    +0.000 OA
ATOM     34  C   UNL     1      -6.767  10.591  18.471  0.00  0.00    +0.000 C 
ENDBRANCH  28  33
ENDBRANCH   1  25
TORSDOF 6
ENDMDL
MODEL 6
REMARK VINA RESULT:      -7.9      5.638     10.387
REMARK  Name = 
REMARK  10 active torsions:
REMARK  status: ('A' for Active; 'I' for Inactive)
REMARK    1  A    between atoms: C_1  and  O_2
REMARK    2  A    between atoms: O_2  and  C_3
REMARK    3  A    between atoms: C_5  and  C_6
REMARK    4  A    between atoms: N_10  and  C_11
REMARK    5  A    between atoms: C_14  and  C_15
REMARK    6  A    between atoms: C_26  and  C_27
REMARK    7  A    between atoms: C_29  and  O_30
REMARK    8  A    between atoms: O_30  and  C_31
REMARK    9  A    between atoms: C_32  and  O_33
REMARK   10  A    between atoms: O_33  and  C_34
REMARK                            x       y       z     vdW  Elec       q    Type
REMARK                         _______ _______ _______ _____ _____    ______ ____
ROOT
ATOM      1  C   UNL     1       3.737   3.294  18.106  0.00  0.00    +0.000 A 
ATOM      2  N   UNL     1       3.490   2.026  17.826  0.00  0.00    +0.000 NA
ATOM      3  N   UNL     1       2.208   1.773  18.224  0.00  0.00    +0.000 NA
ATOM      4  N   UNL     1       1.647   2.856  18.736  0.00  0.00    +0.000 NA
ATOM      5  N   UNL     1       2.555   3.854  18.601  0.00  0.00    +0.000 N 
ENDROOT
BRANCH   5   6
ATOM      6  C   UNL     1       2.210   5.210  18.871  0.00  0.00    +0.000 A 
ATOM      7  C   UNL     1       2.145   6.146  17.821  0.00  0.00    +0.000 A 
ATOM      8  C   UNL     1       1.866   7.497  18.065  0.00  0.00    +0.000 A 
ATOM      9  C   UNL     1       1.593   7.936  19.362  0.00  0.00    +0.000 A 
ATOM     10  C   UNL     1       1.649   6.988  20.401  0.00  0.00    +0.000 A 
ATOM     11  C   UNL     1       1.968   5.637  20.190  0.00  0.00    +0.000 A 
ATOM     12  C   UNL     1       2.070   4.750  21.400  0.00  0.00    +0.000 C 
BRANCH   9  13
ATOM     13  C   UNL     1       1.206   9.314  19.724  0.00  0.00    +0.000 A 
ATOM     14  N   UNL     1       1.377  10.328  18.899  0.00  0.00    +0.000 NA
ATOM     15  C   UNL     1       1.072  11.522  19.508  0.00  0.00    +0.000 A 
ATOM     16  C   UNL     1       1.214  12.796  18.923  0.00  0.00    +0.000 A 
ATOM     17  C   UNL     1       0.909  13.933  19.671  0.00  0.00    +0.000 A 
ATOM     18  C   UNL     1       0.456  13.801  20.975  0.00  0.00    +0.000 A 
ATOM     19  F   UNL     1       0.174  14.904  21.679  0.00  0.00    +0.000 F 
ATOM     20  C   UNL     1       0.283  12.553  21.577  0.00  0.00    +0.000 A 
ATOM     21  C   UNL     1       0.610  11.417  20.821  0.00  0.00    +0.000 A 
ATOM     22  S   UNL     1       0.555   9.747  21.256  0.00  0.00    +0.000 S 
ENDBRANCH   9  13
ENDBRANCH   5   6
BRANCH   1  25
ATOM     23  C   UNL     1       6.382   5.309  16.397  0.00  0.00    +0.000 A 
ATOM     24  C   UNL     1       5.384   4.344  16.610  0.00  0.00    +0.000 A 
ATOM     25  C   UNL     1       5.009   3.979  17.898  0.00  0.00    +0.000 A 
ATOM     26  C   UNL     1       5.802   4.404  18.959  0.00  0.00    +0.000 A 
ATOM     27  C   UNL     1       6.820   5.347  18.778  0.00  0.00    +0.000 A 
ATOM     28  C   UNL     1       7.125   5.822  17.486  0.00  0.00    +0.000 A 
BRANCH  23  30
ATOM     29  C   UNL     1       6.804   4.738  14.139  0.00  0.00    +0.000 C 
ATOM     30  O   UNL     1       6.625   5.759  15.124  0.00  0.00    +0.000 OA
ENDBRANCH  23  30
BRANCH  27  31
ATOM     31  O   UNL     1       7.333   5.732  19.990  0.00  0.00    +0.000 OA
ATOM     32  C   UNL     1       8.572   5.207  20.433  0.00  0.00    +0.000 C 
ENDBRANCH  27  31
BRANCH  28  33
ATOM     33  O   UNL     1       8.120   6.754  17.417  0.00  0.00    +0.000 OA
ATOM     34  C   UNL     1       7.834   8.134  17.565  0.00  0.00    +0.000 C 
ENDBRANCH  28  33
ENDBRANCH   1  25
TORSDOF 6
ENDMDL
MODEL 7
REMARK VINA RESULT:      -7.9      1.269      1.735
REMARK  Name = 
REMARK  10 active torsions:
REMARK  status: ('A' for Active; 'I' for Inactive)
REMARK    1  A    between atoms: C_1  and  O_2
REMARK    2  A    between atoms: O_2  and  C_3
REMARK    3  A    between atoms: C_5  and  C_6
REMARK    4  A    between atoms: N_10  and  C_11
REMARK    5  A    between atoms: C_14  and  C_15
REMARK    6  A    between atoms: C_26  and  C_27
REMARK    7  A    between atoms: C_29  and  O_30
REMARK    8  A    between atoms: O_30  and  C_31
REMARK    9  A    between atoms: C_32  and  O_33
REMARK   10  A    between atoms: O_33  and  C_34
REMARK                            x       y       z     vdW  Elec       q    Type
REMARK                         _______ _______ _______ _____ _____    ______ ____
ROOT
ATOM      1  C   UNL     1      -1.146  13.091  20.614  0.00  0.00    +0.000 A 
ATOM      2  N   UNL     1      -0.970  14.385  20.825  0.00  0.00    +0.000 NA
ATOM      3  N   UNL     1       0.241  14.525  21.444  0.00  0.00    +0.000 NA
ATOM      4  N   UNL     1       0.826  13.351  21.614  0.00  0.00    +0.000 NA
ATOM      5  N   UNL     1       0.017  12.435  21.028  0.00  0.00    +0.000 N 
ENDROOT
BRANCH   5   6
ATOM      6  C   UNL     1       0.436  11.084  20.850  0.00  0.00    +0.000 A 
ATOM      7  C   UNL     1       0.242  10.142  21.879  0.00  0.00    +0.000 A 
ATOM      8  C   UNL     1       0.697   8.822  21.754  0.00  0.00    +0.000 A 
ATOM      9  C   UNL     1       1.312   8.399  20.574  0.00  0.00    +0.000 A 
ATOM     10  C   UNL     1       1.488   9.347  19.550  0.00  0.00    +0.000 A 
ATOM     11  C   UNL     1       1.081  10.687  19.665  0.00  0.00    +0.000 A 
ATOM     12  C   UNL     1       1.403  11.612  18.524  0.00  0.00    +0.000 C 
BRANCH   9  13
ATOM     13  C   UNL     1       1.754   7.018  20.300  0.00  0.00    +0.000 A 
ATOM     14  N   UNL     1       1.442   6.013  21.095  0.00  0.00    +0.000 NA
ATOM     15  C   UNL     1       2.079   4.857  20.710  0.00  0.00    +0.000 A 
ATOM     16  C   UNL     1       2.013   3.624  21.389  0.00  0.00    +0.000 A 
ATOM     17  C   UNL     1       2.747   2.538  20.912  0.00  0.00    +0.000 A 
ATOM     18  C   UNL     1       3.522   2.675  19.770  0.00  0.00    +0.000 A 
ATOM     19  F   UNL     1       4.224   1.623  19.332  0.00  0.00    +0.000 F 
ATOM     20  C   UNL     1       3.592   3.877  19.063  0.00  0.00    +0.000 A 
ATOM     21  C   UNL     1       2.863   4.968  19.561  0.00  0.00    +0.000 A 
ATOM     22  S   UNL     1       2.753   6.585  18.969  0.00  0.00    +0.000 S 
ENDBRANCH   9  13
ENDBRANCH   5   6
BRANCH   1  25
ATOM     23  C   UNL     1      -4.761  12.411  19.945  0.00  0.00    +0.000 A 
ATOM     24  C   UNL     1      -3.565  12.645  20.644  0.00  0.00    +0.000 A 
ATOM     25  C   UNL     1      -2.332  12.481  20.023  0.00  0.00    +0.000 A 
ATOM     26  C   UNL     1      -2.300  11.852  18.782  0.00  0.00    +0.000 A 
ATOM     27  C   UNL     1      -3.473  11.585  18.068  0.00  0.00    +0.000 A 
ATOM     28  C   UNL     1      -4.732  11.866  18.640  0.00  0.00    +0.000 A 
BRANCH  23  30
ATOM     29  C   UNL     1      -5.991  13.978  21.224  0.00  0.00    +0.000 C 
ATOM     30  O   UNL     1      -5.959  12.726  20.534  0.00  0.00    +0.000 OA
ENDBRANCH  23  30
BRANCH  27  31
ATOM     31  O   UNL     1      -3.172  11.130  16.811  0.00  0.00    +0.000 OA
ATOM     32  C   UNL     1      -2.347   9.989  16.649  0.00  0.00    +0.000 C 
ENDBRANCH  27  31
BRANCH  28  33
ATOM     33  O   UNL     1      -5.815  11.587  17.857  0.00  0.00    +0.000 OA
ATOM     34  C   UNL     1      -6.498  12.620  17.169  0.00  0.00    +0.000 C 
ENDBRANCH  28  33
ENDBRANCH   1  25
TORSDOF 6
ENDMDL
MODEL 8
REMARK VINA RESULT:      -7.7      1.869      2.374
REMARK  Name = 
REMARK  10 active torsions:
REMARK  status: ('A' for Active; 'I' for Inactive)
REMARK    1  A    between atoms: C_1  and  O_2
REMARK    2  A    between atoms: O_2  and  C_3
REMARK    3  A    between atoms: C_5  and  C_6
REMARK    4  A    between atoms: N_10  and  C_11
REMARK    5  A    between atoms: C_14  and  C_15
REMARK    6  A    between atoms: C_26  and  C_27
REMARK    7  A    between atoms: C_29  and  O_30
REMARK    8  A    between atoms: O_30  and  C_31
REMARK    9  A    between atoms: C_32  and  O_33
REMARK   10  A    between atoms: O_33  and  C_34
REMARK                            x       y       z     vdW  Elec       q    Type
REMARK                         _______ _______ _______ _____ _____    ______ ____
ROOT
ATOM      1  C   UNL     1      -1.771  13.497  21.611  0.00  0.00    +0.000 A 
ATOM      2  N   UNL     1      -1.751  14.702  22.154  0.00  0.00    +0.000 NA
ATOM      3  N   UNL     1      -0.512  14.871  22.705  0.00  0.00    +0.000 NA
ATOM      4  N   UNL     1       0.243  13.803  22.509  0.00  0.00    +0.000 NA
ATOM      5  N   UNL     1      -0.490  12.952  21.752  0.00  0.00    +0.000 N 
ENDROOT
BRANCH   5   6
ATOM      6  C   UNL     1       0.088  11.779  21.187  0.00  0.00    +0.000 A 
ATOM      7  C   UNL     1       0.761  11.846  19.951  0.00  0.00    +0.000 A 
ATOM      8  C   UNL     1       1.288  10.698  19.344  0.00  0.00    +0.000 A 
ATOM      9  C   UNL     1       1.199   9.460  19.985  0.00  0.00    +0.000 A 
ATOM     10  C   UNL     1       0.536   9.409  21.225  0.00  0.00    +0.000 A 
ATOM     11  C   UNL     1      -0.039  10.536  21.835  0.00  0.00    +0.000 A 
ATOM     12  C   UNL     1      -0.787  10.324  23.122  0.00  0.00    +0.000 C 
BRANCH   9  13
ATOM     13  C   UNL     1       1.789   8.204  19.481  0.00  0.00    +0.000 A 
ATOM     14  N   UNL     1       1.873   7.122  20.230  0.00  0.00    +0.000 NA
ATOM     15  C   UNL     1       2.580   6.130  19.592  0.00  0.00    +0.000 A 
ATOM     16  C   UNL     1       2.908   4.876  20.148  0.00  0.00    +0.000 A 
ATOM     17  C   UNL     1       3.670   3.976  19.405  0.00  0.00    +0.000 A 
ATOM     18  C   UNL     1       4.087   4.313  18.125  0.00  0.00    +0.000 A 
ATOM     19  F   UNL     1       4.823   3.437  17.431  0.00  0.00    +0.000 F 
ATOM     20  C   UNL     1       3.760   5.537  17.539  0.00  0.00    +0.000 A 
ATOM     21  C   UNL     1       3.008   6.443  18.302  0.00  0.00    +0.000 A 
ATOM     22  S   UNL     1       2.467   8.034  17.910  0.00  0.00    +0.000 S 
ENDBRANCH   9  13
ENDBRANCH   5   6
BRANCH   1  25
ATOM     23  C   UNL     1      -5.337  12.810  20.726  0.00  0.00    +0.000 A 
ATOM     24  C   UNL     1      -4.187  13.056  21.496  0.00  0.00    +0.000 A 
ATOM     25  C   UNL     1      -2.918  12.877  20.958  0.00  0.00    +0.000 A 
ATOM     26  C   UNL     1      -2.809  12.223  19.734  0.00  0.00    +0.000 A 
ATOM     27  C   UNL     1      -3.934  11.943  18.952  0.00  0.00    +0.000 A 
ATOM     28  C   UNL     1      -5.226  12.238  19.437  0.00  0.00    +0.000 A 
BRANCH  23  30
ATOM     29  C   UNL     1      -6.800  12.744  22.585  0.00  0.00    +0.000 C 
ATOM     30  O   UNL     1      -6.570  13.139  21.230  0.00  0.00    +0.000 OA
ENDBRANCH  23  30
BRANCH  27  31
ATOM     31  O   UNL     1      -3.555  11.462  17.726  0.00  0.00    +0.000 OA
ATOM     32  C   UNL     1      -2.215  11.613  17.290  0.00  0.00    +0.000 C 
ENDBRANCH  27  31
BRANCH  28  33
ATOM     33  O   UNL     1      -6.257  11.946  18.591  0.00  0.00    +0.000 OA
ATOM     34  C   UNL     1      -6.881  10.674  18.619  0.00  0.00    +0.000 C 
ENDBRANCH  28  33
ENDBRANCH   1  25
TORSDOF 6
ENDMDL
MODEL 9
REMARK VINA RESULT:      -7.7      1.774      2.227
REMARK  Name = 
REMARK  10 active torsions:
REMARK  status: ('A' for Active; 'I' for Inactive)
REMARK    1  A    between atoms: C_1  and  O_2
REMARK    2  A    between atoms: O_2  and  C_3
REMARK    3  A    between atoms: C_5  and  C_6
REMARK    4  A    between atoms: N_10  and  C_11
REMARK    5  A    between atoms: C_14  and  C_15
REMARK    6  A    between atoms: C_26  and  C_27
REMARK    7  A    between atoms: C_29  and  O_30
REMARK    8  A    between atoms: O_30  and  C_31
REMARK    9  A    between atoms: C_32  and  O_33
REMARK   10  A    between atoms: O_33  and  C_34
REMARK                            x       y       z     vdW  Elec       q    Type
REMARK                         _______ _______ _______ _____ _____    ______ ____
ROOT
ATOM      1  C   UNL     1      -1.537  13.159  21.150  0.00  0.00    +0.000 A 
ATOM      2  N   UNL     1      -1.500  14.396  21.615  0.00  0.00    +0.000 NA
ATOM      3  N   UNL     1      -0.319  14.531  22.290  0.00  0.00    +0.000 NA
ATOM      4  N   UNL     1       0.383  13.411  22.248  0.00  0.00    +0.000 NA
ATOM      5  N   UNL     1      -0.317  12.553  21.468  0.00  0.00    +0.000 N 
ENDROOT
BRANCH   5   6
ATOM      6  C   UNL     1       0.243  11.313  21.044  0.00  0.00    +0.000 A 
ATOM      7  C   UNL     1       0.908  11.223  19.807  0.00  0.00    +0.000 A 
ATOM      8  C   UNL     1       1.417  10.003  19.339  0.00  0.00    +0.000 A 
ATOM      9  C   UNL     1       1.317   8.852  20.124  0.00  0.00    +0.000 A 
ATOM     10  C   UNL     1       0.660   8.959  21.364  0.00  0.00    +0.000 A 
ATOM     11  C   UNL     1       0.104  10.159  21.837  0.00  0.00    +0.000 A 
ATOM     12  C   UNL     1      -0.639  10.112  23.144  0.00  0.00    +0.000 C 
BRANCH   9  13
ATOM     13  C   UNL     1       1.887   7.537  19.772  0.00  0.00    +0.000 A 
ATOM     14  N   UNL     1       2.645   7.366  18.706  0.00  0.00    +0.000 NA
ATOM     15  C   UNL     1       2.939   6.037  18.513  0.00  0.00    +0.000 A 
ATOM     16  C   UNL     1       3.669   5.512  17.428  0.00  0.00    +0.000 A 
ATOM     17  C   UNL     1       3.859   4.134  17.331  0.00  0.00    +0.000 A 
ATOM     18  C   UNL     1       3.342   3.295  18.307  0.00  0.00    +0.000 A 
ATOM     19  F   UNL     1       3.530   1.975  18.192  0.00  0.00    +0.000 F 
ATOM     20  C   UNL     1       2.634   3.784  19.405  0.00  0.00    +0.000 A 
ATOM     21  C   UNL     1       2.433   5.171  19.484  0.00  0.00    +0.000 A 
ATOM     22  S   UNL     1       1.584   6.099  20.665  0.00  0.00    +0.000 S 
ENDBRANCH   9  13
ENDBRANCH   5   6
BRANCH   1  25
ATOM     23  C   UNL     1      -5.045  12.513  20.030  0.00  0.00    +0.000 A 
ATOM     24  C   UNL     1      -3.944  12.734  20.875  0.00  0.00    +0.000 A 
ATOM     25  C   UNL     1      -2.645  12.562  20.412  0.00  0.00    +0.000 A 
ATOM     26  C   UNL     1      -2.462  11.939  19.181  0.00  0.00    +0.000 A 
ATOM     27  C   UNL     1      -3.539  11.685  18.324  0.00  0.00    +0.000 A 
ATOM     28  C   UNL     1      -4.857  11.974  18.736  0.00  0.00    +0.000 A 
BRANCH  23  30
ATOM     29  C   UNL     1      -6.683  12.261  21.719  0.00  0.00    +0.000 C 
ATOM     30  O   UNL     1      -6.305  12.836  20.466  0.00  0.00    +0.000 OA
ENDBRANCH  23  30
BRANCH  27  31
ATOM     31  O   UNL     1      -3.086  11.233  17.112  0.00  0.00    +0.000 OA
ATOM     32  C   UNL     1      -3.082   9.845  16.830  0.00  0.00    +0.000 C 
ENDBRANCH  27  31
BRANCH  28  33
ATOM     33  O   UNL     1      -5.835  11.709  17.821  0.00  0.00    +0.000 OA
ATOM     34  C   UNL     1      -6.400  12.747  17.040  0.00  0.00    +0.000 C 
ENDBRANCH  28  33
ENDBRANCH   1  25
TORSDOF 6
ENDMDL
