MODEL 1
REMARK VINA RESULT:      -8.9      0.000      0.000
REMARK  Name = 
REMARK  5 active torsions:
REMARK  status: ('A' for Active; 'I' for Inactive)
REMARK    1  A    between atoms: C_1  and  C_2
REMARK    2  A    between atoms: N_4  and  C_5
REMARK    3  A    between atoms: C_5  and  C_6
REMARK    4  A    between atoms: C_5  and  C_12
REMARK    5  A    between atoms: C_14  and  C_15
REMARK                            x       y       z     vdW  Elec       q    Type
REMARK                         _______ _______ _______ _____ _____    ______ ____
ROOT
ATOM      1  C   UNL     1       0.657   9.809  19.697  0.00  0.00    +0.000 A 
ATOM      2  N   UNL     1       1.506   9.140  18.944  0.00  0.00    +0.000 NA
ATOM      3  C   UNL     1       1.871   7.944  19.573  0.00  0.00    +0.000 A 
ATOM      4  C   UNL     1       1.389   7.794  20.847  0.00  0.00    +0.000 A 
ATOM      5  S   UNL     1       0.367   9.091  21.257  0.00  0.00    +0.000 S 
ENDROOT
BRANCH   3   6
ATOM      6  C   UNL     1       2.660   6.923  18.881  0.00  0.00    +0.000 A 
ATOM      7  C   UNL     1       2.583   5.596  19.307  0.00  0.00    +0.000 A 
ATOM      8  C   UNL     1       3.265   4.586  18.620  0.00  0.00    +0.000 A 
ATOM      9  C   UNL     1       4.035   4.893  17.493  0.00  0.00    +0.000 A 
ATOM     10  C   UNL     1       4.588   3.870  16.704  0.00  0.00    +0.000 A 
ATOM     11  C   UNL     1       5.340   4.180  15.573  0.00  0.00    +0.000 A 
ATOM     12  C   UNL     1       5.663   5.504  15.299  0.00  0.00    +0.000 A 
ATOM     13  C   UNL     1       5.100   6.532  16.061  0.00  0.00    +0.000 A 
ATOM     14  C   UNL     1       4.226   6.235  17.121  0.00  0.00    +0.000 A 
ATOM     15  C   UNL     1       3.500   7.245  17.803  0.00  0.00    +0.000 A 
ENDBRANCH   3   6
BRANCH   1  16
ATOM     16  C   UNL     1      -0.095  11.087  19.288  0.00  0.00    +0.000 C 
BRANCH  16  17
ATOM     17  C   UNL     1      -1.377  10.830  18.499  0.00  0.00    +0.000 A 
ATOM     18  C   UNL     1      -1.413   9.959  17.397  0.00  0.00    +0.000 A 
ATOM     19  C   UNL     1      -2.547   9.880  16.584  0.00  0.00    +0.000 A 
ATOM     20  C   UNL     1      -3.661  10.670  16.854  0.00  0.00    +0.000 A 
ATOM     21  C   UNL     1      -3.657  11.512  17.960  0.00  0.00    +0.000 A 
ATOM     22  C   UNL     1      -2.529  11.585  18.783  0.00  0.00    +0.000 A 
ENDBRANCH  16  17
BRANCH  16  26
ATOM     23  C   UNL     1       2.514  13.548  18.027  0.00  0.00    +0.000 C 
ATOM     24  C   UNL     1       1.667  12.831  19.042  0.00  0.00    +0.000 C 
ATOM     25  O   UNL     1       1.785  13.024  20.250  0.00  0.00    +0.000 OA
ATOM     26  N   UNL     1       0.807  11.921  18.492  0.00  0.00    +0.000 N 
ATOM     27  H   UNL     1       0.621  11.959  17.497  0.00  0.00    +0.000 HD
ENDBRANCH  16  26
ENDBRANCH   1  16
TORSDOF 4
ENDMDL
MODEL 2
REMARK VINA RESULT:      -8.6      3.247      8.675
REMARK  Name = 
REMARK  5 active torsions:
REMARK  status: ('A' for Active; 'I' for Inactive)
REMARK    1  A    between atoms: C_1  and  C_2
REMARK    2  A    between atoms: N_4  and  C_5
REMARK    3  A    between atoms: C_5  and  C_6
REMARK    4  A    between atoms: C_5  and  C_12
REMARK    5  A    between atoms: C_14  and  C_15
REMARK                            x       y       z     vdW  Elec       q    Type
REMARK                         _______ _______ _______ _____ _____    ______ ____
ROOT
ATOM      1  C   UNL     1       2.993   6.313  19.219  0.00  0.00    +0.000 A 
ATOM      2  N   UNL     1       2.366   6.941  20.193  0.00  0.00    +0.000 NA
ATOM      3  C   UNL     1       1.840   8.151  19.726  0.00  0.00    +0.000 A 
ATOM      4  C   UNL     1       2.190   8.473  18.441  0.00  0.00    +0.000 A 
ATOM      5  S   UNL     1       3.094   7.217  17.735  0.00  0.00    +0.000 S 
ENDROOT
BRANCH   3   6
ATOM      6  C   UNL     1       0.940   8.964  20.547  0.00  0.00    +0.000 A 
ATOM      7  C   UNL     1       0.836   8.699  21.914  0.00  0.00    +0.000 A 
ATOM      8  C   UNL     1       0.045   9.506  22.739  0.00  0.00    +0.000 A 
ATOM      9  C   UNL     1      -0.655  10.592  22.204  0.00  0.00    +0.000 A 
ATOM     10  C   UNL     1      -1.318  11.501  23.045  0.00  0.00    +0.000 A 
ATOM     11  C   UNL     1      -2.000  12.591  22.509  0.00  0.00    +0.000 A 
ATOM     12  C   UNL     1      -2.144  12.706  21.132  0.00  0.00    +0.000 A 
ATOM     13  C   UNL     1      -1.470  11.824  20.283  0.00  0.00    +0.000 A 
ATOM     14  C   UNL     1      -0.664  10.802  20.814  0.00  0.00    +0.000 A 
ATOM     15  C   UNL     1       0.171  10.000  19.994  0.00  0.00    +0.000 A 
ENDBRANCH   3   6
BRANCH   1  16
ATOM     16  C   UNL     1       3.565   4.887  19.291  0.00  0.00    +0.000 C 
BRANCH  16  17
ATOM     17  C   UNL     1       4.870   4.699  18.521  0.00  0.00    +0.000 A 
ATOM     18  C   UNL     1       6.092   5.210  18.989  0.00  0.00    +0.000 A 
ATOM     19  C   UNL     1       7.234   5.185  18.183  0.00  0.00    +0.000 A 
ATOM     20  C   UNL     1       7.176   4.653  16.898  0.00  0.00    +0.000 A 
ATOM     21  C   UNL     1       5.984   4.111  16.431  0.00  0.00    +0.000 A 
ATOM     22  C   UNL     1       4.842   4.125  17.238  0.00  0.00    +0.000 A 
ENDBRANCH  16  17
BRANCH  16  26
ATOM     23  C   UNL     1       0.677   2.462  18.813  0.00  0.00    +0.000 C 
ATOM     24  C   UNL     1       1.622   3.354  19.570  0.00  0.00    +0.000 C 
ATOM     25  O   UNL     1       1.516   3.546  20.779  0.00  0.00    +0.000 OA
ATOM     26  N   UNL     1       2.559   3.957  18.778  0.00  0.00    +0.000 N 
ATOM     27  H   UNL     1       2.713   3.601  17.841  0.00  0.00    +0.000 HD
ENDBRANCH  16  26
ENDBRANCH   1  16
TORSDOF 4
ENDMDL
MODEL 3
REMARK VINA RESULT:      -8.5      3.286      8.245
REMARK  Name = 
REMARK  5 active torsions:
REMARK  status: ('A' for Active; 'I' for Inactive)
REMARK    1  A    between atoms: C_1  and  C_2
REMARK    2  A    between atoms: N_4  and  C_5
REMARK    3  A    between atoms: C_5  and  C_6
REMARK    4  A    between atoms: C_5  and  C_12
REMARK    5  A    between atoms: C_14  and  C_15
REMARK                            x       y       z     vdW  Elec       q    Type
REMARK                         _______ _______ _______ _____ _____    ______ ____
ROOT
ATOM      1  C   UNL     1       2.540   7.164  18.987  0.00  0.00    +0.000 A 
ATOM      2  N   UNL     1       1.908   7.667  20.028  0.00  0.00    +0.000 NA
ATOM      3  C   UNL     1       1.383   8.925  19.710  0.00  0.00    +0.000 A 
ATOM      4  C   UNL     1       1.739   9.403  18.476  0.00  0.00    +0.000 A 
ATOM      5  S   UNL     1       2.647   8.242  17.625  0.00  0.00    +0.000 S 
ENDROOT
BRANCH   3   6
ATOM      6  C   UNL     1       0.480   9.632  20.621  0.00  0.00    +0.000 A 
ATOM      7  C   UNL     1       0.397   9.224  21.954  0.00  0.00    +0.000 A 
ATOM      8  C   UNL     1      -0.398   9.926  22.866  0.00  0.00    +0.000 A 
ATOM      9  C   UNL     1      -1.123  11.049  22.454  0.00  0.00    +0.000 A 
ATOM     10  C   UNL     1      -1.792  11.853  23.393  0.00  0.00    +0.000 A 
ATOM     11  C   UNL     1      -2.498  12.981  22.981  0.00  0.00    +0.000 A 
ATOM     12  C   UNL     1      -2.660  13.237  21.624  0.00  0.00    +0.000 A 
ATOM     13  C   UNL     1      -1.981  12.460  20.681  0.00  0.00    +0.000 A 
ATOM     14  C   UNL     1      -1.152  11.403  21.094  0.00  0.00    +0.000 A 
ATOM     15  C   UNL     1      -0.313  10.706  20.187  0.00  0.00    +0.000 A 
ENDBRANCH   3   6
BRANCH   1  16
ATOM     16  C   UNL     1       3.112   5.739  18.886  0.00  0.00    +0.000 C 
BRANCH  16  17
ATOM     17  C   UNL     1       2.344   4.700  19.700  0.00  0.00    +0.000 A 
ATOM     18  C   UNL     1       2.659   4.422  21.041  0.00  0.00    +0.000 A 
ATOM     19  C   UNL     1       2.067   3.345  21.707  0.00  0.00    +0.000 A 
ATOM     20  C   UNL     1       1.154   2.528  21.047  0.00  0.00    +0.000 A 
ATOM     21  C   UNL     1       0.804   2.808  19.731  0.00  0.00    +0.000 A 
ATOM     22  C   UNL     1       1.386   3.891  19.066  0.00  0.00    +0.000 A 
ENDBRANCH  16  17
BRANCH  16  26
ATOM     23  C   UNL     1       6.900   5.591  19.173  0.00  0.00    +0.000 C 
ATOM     24  C   UNL     1       5.558   5.463  18.506  0.00  0.00    +0.000 C 
ATOM     25  O   UNL     1       5.441   5.158  17.321  0.00  0.00    +0.000 OA
ATOM     26  N   UNL     1       4.507   5.768  19.326  0.00  0.00    +0.000 N 
ATOM     27  H   UNL     1       4.662   5.812  20.327  0.00  0.00    +0.000 HD
ENDBRANCH  16  26
ENDBRANCH   1  16
TORSDOF 4
ENDMDL
MODEL 4
REMARK VINA RESULT:      -8.5      3.271      8.106
REMARK  Name = 
REMARK  5 active torsions:
REMARK  status: ('A' for Active; 'I' for Inactive)
REMARK    1  A    between atoms: C_1  and  C_2
REMARK    2  A    between atoms: N_4  and  C_5
REMARK    3  A    between atoms: C_5  and  C_6
REMARK    4  A    between atoms: C_5  and  C_12
REMARK    5  A    between atoms: C_14  and  C_15
REMARK                            x       y       z     vdW  Elec       q    Type
REMARK                         _______ _______ _______ _____ _____    ______ ____
ROOT
ATOM      1  C   UNL     1       2.874   6.829  18.809  0.00  0.00    +0.000 A 
ATOM      2  N   UNL     1       2.250   7.336  19.853  0.00  0.00    +0.000 NA
ATOM      3  C   UNL     1       1.683   8.572  19.522  0.00  0.00    +0.000 A 
ATOM      4  C   UNL     1       2.001   9.035  18.272  0.00  0.00    +0.000 A 
ATOM      5  S   UNL     1       2.924   7.883  17.425  0.00  0.00    +0.000 S 
ENDROOT
BRANCH   3   6
ATOM      6  C   UNL     1       0.779   9.271  20.437  0.00  0.00    +0.000 A 
ATOM      7  C   UNL     1       0.691   8.850  21.766  0.00  0.00    +0.000 A 
ATOM      8  C   UNL     1      -0.105   9.544  22.683  0.00  0.00    +0.000 A 
ATOM      9  C   UNL     1      -0.827  10.673  22.280  0.00  0.00    +0.000 A 
ATOM     10  C   UNL     1      -1.497  11.468  23.225  0.00  0.00    +0.000 A 
ATOM     11  C   UNL     1      -2.200  12.601  22.822  0.00  0.00    +0.000 A 
ATOM     12  C   UNL     1      -2.358  12.871  21.468  0.00  0.00    +0.000 A 
ATOM     13  C   UNL     1      -1.678  12.103  20.519  0.00  0.00    +0.000 A 
ATOM     14  C   UNL     1      -0.852  11.040  20.924  0.00  0.00    +0.000 A 
ATOM     15  C   UNL     1      -0.011  10.351  20.012  0.00  0.00    +0.000 A 
ENDBRANCH   3   6
BRANCH   1  16
ATOM     16  C   UNL     1       3.485   5.420  18.725  0.00  0.00    +0.000 C 
BRANCH  16  17
ATOM     17  C   UNL     1       2.698   4.354  19.483  0.00  0.00    +0.000 A 
ATOM     18  C   UNL     1       1.523   3.784  18.964  0.00  0.00    +0.000 A 
ATOM     19  C   UNL     1       0.725   2.948  19.750  0.00  0.00    +0.000 A 
ATOM     20  C   UNL     1       1.083   2.669  21.065  0.00  0.00    +0.000 A 
ATOM     21  C   UNL     1       2.260   3.195  21.585  0.00  0.00    +0.000 A 
ATOM     22  C   UNL     1       3.067   4.022  20.798  0.00  0.00    +0.000 A 
ENDBRANCH  16  17
BRANCH  16  26
ATOM     23  C   UNL     1       7.248   5.666  19.201  0.00  0.00    +0.000 C 
ATOM     24  C   UNL     1       5.953   5.603  18.440  0.00  0.00    +0.000 C 
ATOM     25  O   UNL     1       5.905   5.705  17.217  0.00  0.00    +0.000 OA
ATOM     26  N   UNL     1       4.853   5.475  19.242  0.00  0.00    +0.000 N 
ATOM     27  H   UNL     1       4.978   5.196  20.208  0.00  0.00    +0.000 HD
ENDBRANCH  16  26
ENDBRANCH   1  16
TORSDOF 4
ENDMDL
MODEL 5
REMARK VINA RESULT:      -8.3      0.750      1.041
REMARK  Name = 
REMARK  5 active torsions:
REMARK  status: ('A' for Active; 'I' for Inactive)
REMARK    1  A    between atoms: C_1  and  C_2
REMARK    2  A    between atoms: N_4  and  C_5
REMARK    3  A    between atoms: C_5  and  C_6
REMARK    4  A    between atoms: C_5  and  C_12
REMARK    5  A    between atoms: C_14  and  C_15
REMARK                            x       y       z     vdW  Elec       q    Type
REMARK                         _______ _______ _______ _____ _____    ______ ____
ROOT
ATOM      1  C   UNL     1       0.430  10.171  20.069  0.00  0.00    +0.000 A 
ATOM      2  N   UNL     1       1.152   9.268  19.436  0.00  0.00    +0.000 NA
ATOM      3  C   UNL     1       1.504   8.233  20.309  0.00  0.00    +0.000 A 
ATOM      4  C   UNL     1       1.151   8.439  21.618  0.00  0.00    +0.000 A 
ATOM      5  S   UNL     1       0.262   9.881  21.777  0.00  0.00    +0.000 S 
ENDROOT
BRANCH   3   6
ATOM      6  C   UNL     1       2.149   7.010  19.829  0.00  0.00    +0.000 A 
ATOM      7  C   UNL     1       1.964   5.818  20.532  0.00  0.00    +0.000 A 
ATOM      8  C   UNL     1       2.504   4.618  20.057  0.00  0.00    +0.000 A 
ATOM      9  C   UNL     1       3.240   4.596  18.868  0.00  0.00    +0.000 A 
ATOM     10  C   UNL     1       3.645   3.377  18.300  0.00  0.00    +0.000 A 
ATOM     11  C   UNL     1       4.362   3.358  17.106  0.00  0.00    +0.000 A 
ATOM     12  C   UNL     1       4.800   4.551  16.544  0.00  0.00    +0.000 A 
ATOM     13  C   UNL     1       4.384   5.771  17.084  0.00  0.00    +0.000 A 
ATOM     14  C   UNL     1       3.543   5.801  18.211  0.00  0.00    +0.000 A 
ATOM     15  C   UNL     1       2.959   7.004  18.682  0.00  0.00    +0.000 A 
ENDBRANCH   3   6
BRANCH   1  16
ATOM     16  C   UNL     1      -0.278  11.372  19.420  0.00  0.00    +0.000 C 
BRANCH  16  17
ATOM     17  C   UNL     1      -1.492  10.997  18.574  0.00  0.00    +0.000 A 
ATOM     18  C   UNL     1      -1.398  10.116  17.483  0.00  0.00    +0.000 A 
ATOM     19  C   UNL     1      -2.479   9.931  16.617  0.00  0.00    +0.000 A 
ATOM     20  C   UNL     1      -3.669  10.622  16.822  0.00  0.00    +0.000 A 
ATOM     21  C   UNL     1      -3.793  11.472  17.915  0.00  0.00    +0.000 A 
ATOM     22  C   UNL     1      -2.717  11.651  18.790  0.00  0.00    +0.000 A 
ENDBRANCH  16  17
BRANCH  16  26
ATOM     23  C   UNL     1       2.518  13.556  18.055  0.00  0.00    +0.000 C 
ATOM     24  C   UNL     1       1.611  12.965  19.098  0.00  0.00    +0.000 C 
ATOM     25  O   UNL     1       1.731  13.221  20.293  0.00  0.00    +0.000 OA
ATOM     26  N   UNL     1       0.691  12.089  18.590  0.00  0.00    +0.000 N 
ATOM     27  H   UNL     1       0.518  12.082  17.591  0.00  0.00    +0.000 HD
ENDBRANCH  16  26
ENDBRANCH   1  16
TORSDOF 4
ENDMDL
MODEL 6
REMARK VINA RESULT:      -8.2      3.685      8.516
REMARK  Name = 
REMARK  5 active torsions:
REMARK  status: ('A' for Active; 'I' for Inactive)
REMARK    1  A    between atoms: C_1  and  C_2
REMARK    2  A    between atoms: N_4  and  C_5
REMARK    3  A    between atoms: C_5  and  C_6
REMARK    4  A    between atoms: C_5  and  C_12
REMARK    5  A    between atoms: C_14  and  C_15
REMARK                            x       y       z     vdW  Elec       q    Type
REMARK                         _______ _______ _______ _____ _____    ______ ____
ROOT
ATOM      1  C   UNL     1       4.097   5.319  18.501  0.00  0.00    +0.000 A 
ATOM      2  N   UNL     1       3.539   6.512  18.548  0.00  0.00    +0.000 NA
ATOM      3  C   UNL     1       2.486   6.515  19.469  0.00  0.00    +0.000 A 
ATOM      4  C   UNL     1       2.186   5.289  20.005  0.00  0.00    +0.000 A 
ATOM      5  S   UNL     1       3.290   4.114  19.462  0.00  0.00    +0.000 S 
ENDROOT
BRANCH   3   6
ATOM      6  C   UNL     1       1.808   7.754  19.856  0.00  0.00    +0.000 A 
ATOM      7  C   UNL     1       1.673   8.780  18.919  0.00  0.00    +0.000 A 
ATOM      8  C   UNL     1       0.965   9.944  19.234  0.00  0.00    +0.000 A 
ATOM      9  C   UNL     1       0.381  10.098  20.496  0.00  0.00    +0.000 A 
ATOM     10  C   UNL     1      -0.466  11.186  20.765  0.00  0.00    +0.000 A 
ATOM     11  C   UNL     1      -1.060  11.325  22.017  0.00  0.00    +0.000 A 
ATOM     12  C   UNL     1      -0.707  10.464  23.049  0.00  0.00    +0.000 A 
ATOM     13  C   UNL     1       0.115   9.364  22.789  0.00  0.00    +0.000 A 
ATOM     14  C   UNL     1       0.609   9.135  21.493  0.00  0.00    +0.000 A 
ATOM     15  C   UNL     1       1.297   7.942  21.150  0.00  0.00    +0.000 A 
ENDBRANCH   3   6
BRANCH   1  16
ATOM     16  C   UNL     1       5.380   4.957  17.733  0.00  0.00    +0.000 C 
BRANCH  16  17
ATOM     17  C   UNL     1       6.519   5.958  17.915  0.00  0.00    +0.000 A 
ATOM     18  C   UNL     1       7.492   5.806  18.917  0.00  0.00    +0.000 A 
ATOM     19  C   UNL     1       8.413   6.824  19.180  0.00  0.00    +0.000 A 
ATOM     20  C   UNL     1       8.378   8.009  18.451  0.00  0.00    +0.000 A 
ATOM     21  C   UNL     1       7.445   8.163  17.432  0.00  0.00    +0.000 A 
ATOM     22  C   UNL     1       6.529   7.143  17.159  0.00  0.00    +0.000 A 
ENDBRANCH  16  17
BRANCH  16  26
ATOM     23  C   UNL     1       5.315   4.229  14.003  0.00  0.00    +0.000 C 
ATOM     24  C   UNL     1       5.879   4.251  15.397  0.00  0.00    +0.000 C 
ATOM     25  O   UNL     1       6.959   3.737  15.676  0.00  0.00    +0.000 OA
ATOM     26  N   UNL     1       5.053   4.845  16.311  0.00  0.00    +0.000 N 
ATOM     27  H   UNL     1       4.285   5.418  15.981  0.00  0.00    +0.000 HD
ENDBRANCH  16  26
ENDBRANCH   1  16
TORSDOF 4
ENDMDL
MODEL 7
REMARK VINA RESULT:      -8.1      1.022      2.272
REMARK  Name = 
REMARK  5 active torsions:
REMARK  status: ('A' for Active; 'I' for Inactive)
REMARK    1  A    between atoms: C_1  and  C_2
REMARK    2  A    between atoms: N_4  and  C_5
REMARK    3  A    between atoms: C_5  and  C_6
REMARK    4  A    between atoms: C_5  and  C_12
REMARK    5  A    between atoms: C_14  and  C_15
REMARK                            x       y       z     vdW  Elec       q    Type
REMARK                         _______ _______ _______ _____ _____    ______ ____
ROOT
ATOM      1  C   UNL     1       0.824   9.992  19.883  0.00  0.00    +0.000 A 
ATOM      2  N   UNL     1       1.429   9.116  19.107  0.00  0.00    +0.000 NA
ATOM      3  C   UNL     1       1.736   7.960  19.833  0.00  0.00    +0.000 A 
ATOM      4  C   UNL     1       1.473   8.037  21.176  0.00  0.00    +0.000 A 
ATOM      5  S   UNL     1       0.723   9.517  21.555  0.00  0.00    +0.000 S 
ENDROOT
BRANCH   3   6
ATOM      6  C   UNL     1       2.246   6.754  19.177  0.00  0.00    +0.000 A 
ATOM      7  C   UNL     1       3.182   6.880  18.149  0.00  0.00    +0.000 A 
ATOM      8  C   UNL     1       3.746   5.746  17.554  0.00  0.00    +0.000 A 
ATOM      9  C   UNL     1       3.377   4.467  17.982  0.00  0.00    +0.000 A 
ATOM     10  C   UNL     1       4.054   3.331  17.507  0.00  0.00    +0.000 A 
ATOM     11  C   UNL     1       3.696   2.059  17.950  0.00  0.00    +0.000 A 
ATOM     12  C   UNL     1       2.576   1.899  18.757  0.00  0.00    +0.000 A 
ATOM     13  C   UNL     1       1.909   3.021  19.257  0.00  0.00    +0.000 A 
ATOM     14  C   UNL     1       2.348   4.315  18.927  0.00  0.00    +0.000 A 
ATOM     15  C   UNL     1       1.812   5.472  19.549  0.00  0.00    +0.000 A 
ENDBRANCH   3   6
BRANCH   1  16
ATOM     16  C   UNL     1       0.190  11.315  19.421  0.00  0.00    +0.000 C 
BRANCH  16  17
ATOM     17  C   UNL     1      -1.124  11.144  18.663  0.00  0.00    +0.000 A 
ATOM     18  C   UNL     1      -2.280  11.869  19.000  0.00  0.00    +0.000 A 
ATOM     19  C   UNL     1      -3.512  11.565  18.414  0.00  0.00    +0.000 A 
ATOM     20  C   UNL     1      -3.612  10.533  17.485  0.00  0.00    +0.000 A 
ATOM     21  C   UNL     1      -2.474   9.828  17.113  0.00  0.00    +0.000 A 
ATOM     22  C   UNL     1      -1.237  10.137  17.688  0.00  0.00    +0.000 A 
ENDBRANCH  16  17
BRANCH  16  26
ATOM     23  C   UNL     1       2.965  13.493  18.004  0.00  0.00    +0.000 C 
ATOM     24  C   UNL     1       2.061  12.918  19.061  0.00  0.00    +0.000 C 
ATOM     25  O   UNL     1       2.177  13.206  20.249  0.00  0.00    +0.000 OA
ATOM     26  N   UNL     1       1.152  12.021  18.574  0.00  0.00    +0.000 N 
ATOM     27  H   UNL     1       0.981  11.986  17.576  0.00  0.00    +0.000 HD
ENDBRANCH  16  26
ENDBRANCH   1  16
TORSDOF 4
ENDMDL
MODEL 8
REMARK VINA RESULT:      -8.1      3.004      8.498
REMARK  Name = 
REMARK  5 active torsions:
REMARK  status: ('A' for Active; 'I' for Inactive)
REMARK    1  A    between atoms: C_1  and  C_2
REMARK    2  A    between atoms: N_4  and  C_5
REMARK    3  A    between atoms: C_5  and  C_6
REMARK    4  A    between atoms: C_5  and  C_12
REMARK    5  A    between atoms: C_14  and  C_15
REMARK                            x       y       z     vdW  Elec       q    Type
REMARK                         _______ _______ _______ _____ _____    ______ ____
ROOT
ATOM      1  C   UNL     1       2.602   7.143  19.184  0.00  0.00    +0.000 A 
ATOM      2  N   UNL     1       2.005   7.739  20.197  0.00  0.00    +0.000 NA
ATOM      3  C   UNL     1       1.331   8.882  19.753  0.00  0.00    +0.000 A 
ATOM      4  C   UNL     1       1.539   9.198  18.436  0.00  0.00    +0.000 A 
ATOM      5  S   UNL     1       2.492   8.009  17.679  0.00  0.00    +0.000 S 
ENDROOT
BRANCH   3   6
ATOM      6  C   UNL     1       0.434   9.633  20.633  0.00  0.00    +0.000 A 
ATOM      7  C   UNL     1       0.315   9.255  21.972  0.00  0.00    +0.000 A 
ATOM      8  C   UNL     1      -0.474   9.998  22.856  0.00  0.00    +0.000 A 
ATOM      9  C   UNL     1      -1.158  11.134  22.409  0.00  0.00    +0.000 A 
ATOM     10  C   UNL     1      -1.819  11.975  23.320  0.00  0.00    +0.000 A 
ATOM     11  C   UNL     1      -2.484  13.115  22.873  0.00  0.00    +0.000 A 
ATOM     12  C   UNL     1      -2.614  13.348  21.509  0.00  0.00    +0.000 A 
ATOM     13  C   UNL     1      -1.943  12.533  20.594  0.00  0.00    +0.000 A 
ATOM     14  C   UNL     1      -1.153  11.460  21.042  0.00  0.00    +0.000 A 
ATOM     15  C   UNL     1      -0.319  10.721  20.164  0.00  0.00    +0.000 A 
ENDBRANCH   3   6
BRANCH   1  16
ATOM     16  C   UNL     1       3.309   5.777  19.235  0.00  0.00    +0.000 C 
BRANCH  16  17
ATOM     17  C   UNL     1       4.311   5.552  18.106  0.00  0.00    +0.000 A 
ATOM     18  C   UNL     1       5.410   6.404  17.902  0.00  0.00    +0.000 A 
ATOM     19  C   UNL     1       6.206   6.286  16.759  0.00  0.00    +0.000 A 
ATOM     20  C   UNL     1       5.919   5.318  15.801  0.00  0.00    +0.000 A 
ATOM     21  C   UNL     1       4.858   4.443  16.002  0.00  0.00    +0.000 A 
ATOM     22  C   UNL     1       4.066   4.551  17.149  0.00  0.00    +0.000 A 
ENDBRANCH  16  17
BRANCH  16  26
ATOM     23  C   UNL     1       0.771   3.062  20.033  0.00  0.00    +0.000 C 
ATOM     24  C   UNL     1       1.839   4.082  20.317  0.00  0.00    +0.000 C 
ATOM     25  O   UNL     1       2.222   4.330  21.457  0.00  0.00    +0.000 OA
ATOM     26  N   UNL     1       2.291   4.727  19.199  0.00  0.00    +0.000 N 
ATOM     27  H   UNL     1       2.082   4.335  18.287  0.00  0.00    +0.000 HD
ENDBRANCH  16  26
ENDBRANCH   1  16
TORSDOF 4
ENDMDL
MODEL 9
REMARK VINA RESULT:      -8.0      3.057      8.660
REMARK  Name = 
REMARK  5 active torsions:
REMARK  status: ('A' for Active; 'I' for Inactive)
REMARK    1  A    between atoms: C_1  and  C_2
REMARK    2  A    between atoms: N_4  and  C_5
REMARK    3  A    between atoms: C_5  and  C_6
REMARK    4  A    between atoms: C_5  and  C_12
REMARK    5  A    between atoms: C_14  and  C_15
REMARK                            x       y       z     vdW  Elec       q    Type
REMARK                         _______ _______ _______ _____ _____    ______ ____
ROOT
ATOM      1  C   UNL     1       2.862   6.933  19.095  0.00  0.00    +0.000 A 
ATOM      2  N   UNL     1       2.154   7.750  19.849  0.00  0.00    +0.000 NA
ATOM      3  C   UNL     1       1.707   8.839  19.092  0.00  0.00    +0.000 A 
ATOM      4  C   UNL     1       2.194   8.889  17.812  0.00  0.00    +0.000 A 
ATOM      5  S   UNL     1       3.135   7.511  17.477  0.00  0.00    +0.000 S 
ENDROOT
BRANCH   3   6
ATOM      6  C   UNL     1       0.748   9.806  19.631  0.00  0.00    +0.000 A 
ATOM      7  C   UNL     1       0.152  10.729  18.769  0.00  0.00    +0.000 A 
ATOM      8  C   UNL     1      -0.824  11.615  19.238  0.00  0.00    +0.000 A 
ATOM      9  C   UNL     1      -1.217  11.588  20.580  0.00  0.00    +0.000 A 
ATOM     10  C   UNL     1      -2.306  12.358  21.022  0.00  0.00    +0.000 A 
ATOM     11  C   UNL     1      -2.705  12.315  22.356  0.00  0.00    +0.000 A 
ATOM     12  C   UNL     1      -1.940  11.618  23.284  0.00  0.00    +0.000 A 
ATOM     13  C   UNL     1      -0.869  10.829  22.855  0.00  0.00    +0.000 A 
ATOM     14  C   UNL     1      -0.543  10.755  21.489  0.00  0.00    +0.000 A 
ATOM     15  C   UNL     1       0.418   9.836  20.995  0.00  0.00    +0.000 A 
ENDBRANCH   3   6
BRANCH   1  16
ATOM     16  C   UNL     1       3.389   5.551  19.517  0.00  0.00    +0.000 C 
BRANCH  16  17
ATOM     17  C   UNL     1       4.634   5.101  18.756  0.00  0.00    +0.000 A 
ATOM     18  C   UNL     1       5.927   5.485  19.147  0.00  0.00    +0.000 A 
ATOM     19  C   UNL     1       7.032   5.213  18.335  0.00  0.00    +0.000 A 
ATOM     20  C   UNL     1       6.865   4.555  17.120  0.00  0.00    +0.000 A 
ATOM     21  C   UNL     1       5.597   4.136  16.732  0.00  0.00    +0.000 A 
ATOM     22  C   UNL     1       4.492   4.397  17.548  0.00  0.00    +0.000 A 
ENDBRANCH  16  17
BRANCH  16  26
ATOM     23  C   UNL     1       0.668   2.928  19.920  0.00  0.00    +0.000 C 
ATOM     24  C   UNL     1       1.770   3.855  20.355  0.00  0.00    +0.000 C 
ATOM     25  O   UNL     1       2.096   3.978  21.533  0.00  0.00    +0.000 OA
ATOM     26  N   UNL     1       2.321   4.569  19.328  0.00  0.00    +0.000 N 
ATOM     27  H   UNL     1       2.147   4.273  18.374  0.00  0.00    +0.000 HD
ENDBRANCH  16  26
ENDBRANCH   1  16
TORSDOF 4
ENDMDL
