MODEL 1
REMARK VINA RESULT:      -7.1      0.000      0.000
REMARK  Name = 
REMARK  3 active torsions:
REMARK  status: ('A' for Active; 'I' for Inactive)
REMARK    1  A    between atoms: C_1  and  C_2
REMARK    2  A    between atoms: N_4  and  C_5
REMARK    3  A    between atoms: C_5  and  C_6
REMARK                            x       y       z     vdW  Elec       q    Type
REMARK                         _______ _______ _______ _____ _____    ______ ____
ROOT
ATOM      1  C   UNL     1       2.099   6.676  20.101  0.00  0.00    +0.000 C 
ATOM      2  O   UNL     1       1.472   6.284  21.088  0.00  0.00    +0.000 OA
ATOM      3  N   UNL     1       1.880   7.906  19.493  0.00  0.00    +0.000 N 
ATOM      4  C   UNL     1       2.386   8.315  18.172  0.00  0.00    +0.000 C 
ATOM      5  C   UNL     1       1.830   9.706  17.865  0.00  0.00    +0.000 C 
ATOM      6  C   UNL     1       1.099  10.033  19.125  0.00  0.00    +0.000 A 
ATOM      7  C   UNL     1       0.457  11.222  19.430  0.00  0.00    +0.000 A 
ATOM      8  C   UNL     1      -0.151  11.343  20.679  0.00  0.00    +0.000 A 
ATOM      9  C   UNL     1      -0.110  10.277  21.590  0.00  0.00    +0.000 A 
ATOM     10 CL   UNL     1      -0.847  10.469  23.136  0.00  0.00    +0.000 Cl
ATOM     11  C   UNL     1       0.531   9.077  21.275  0.00  0.00    +0.000 A 
ATOM     12  C   UNL     1       1.134   8.970  20.030  0.00  0.00    +0.000 A 
ENDROOT
BRANCH   1  13
ATOM     13  C   UNL     1       3.216   5.822  19.465  0.00  0.00    +0.000 C 
BRANCH  13  17
ATOM     14  C   UNL     1       0.688   2.246  18.898  0.00  0.00    +0.000 C 
ATOM     15  C   UNL     1       2.194   2.136  19.161  0.00  0.00    +0.000 C 
ATOM     16  C   UNL     1       2.751   3.434  19.805  0.00  0.00    +0.000 C 
ATOM     17  N   UNL     1       2.701   4.574  18.868  0.00  0.00    +0.000 NA
ATOM     18  C   UNL     1       3.457   4.235  17.647  0.00  0.00    +0.000 C 
ATOM     19  C   UNL     1       2.990   2.911  17.001  0.00  0.00    +0.000 C 
ATOM     20  N   UNL     1       2.943   1.770  17.936  0.00  0.00    +0.000 NA
ATOM     21  H   UNL     1       3.900   1.558  18.215  0.00  0.00    +0.000 HD
ENDBRANCH  13  17
ENDBRANCH   1  13
TORSDOF 2
ENDMDL
MODEL 2
REMARK VINA RESULT:      -7.0      0.785      1.262
REMARK  Name = 
REMARK  3 active torsions:
REMARK  status: ('A' for Active; 'I' for Inactive)
REMARK    1  A    between atoms: C_1  and  C_2
REMARK    2  A    between atoms: N_4  and  C_5
REMARK    3  A    between atoms: C_5  and  C_6
REMARK                            x       y       z     vdW  Elec       q    Type
REMARK                         _______ _______ _______ _____ _____    ______ ____
ROOT
ATOM      1  C   UNL     1       2.335   6.475  19.978  0.00  0.00    +0.000 C 
ATOM      2  O   UNL     1       1.802   6.033  20.999  0.00  0.00    +0.000 OA
ATOM      3  N   UNL     1       2.009   7.702  19.414  0.00  0.00    +0.000 N 
ATOM      4  C   UNL     1       2.398   8.162  18.070  0.00  0.00    +0.000 C 
ATOM      5  C   UNL     1       1.749   9.526  17.833  0.00  0.00    +0.000 C 
ATOM      6  C   UNL     1       1.094   9.791  19.148  0.00  0.00    +0.000 A 
ATOM      7  C   UNL     1       0.414  10.938  19.523  0.00  0.00    +0.000 A 
ATOM      8  C   UNL     1      -0.109  11.003  20.814  0.00  0.00    +0.000 A 
ATOM      9  C   UNL     1       0.053   9.925  21.697  0.00  0.00    +0.000 A 
ATOM     10 CL   UNL     1      -0.581  10.049  23.294  0.00  0.00    +0.000 Cl
ATOM     11  C   UNL     1       0.731   8.767  21.311  0.00  0.00    +0.000 A 
ATOM     12  C   UNL     1       1.249   8.715  20.025  0.00  0.00    +0.000 A 
ENDROOT
BRANCH   1  13
ATOM     13  C   UNL     1       3.448   5.694  19.247  0.00  0.00    +0.000 C 
BRANCH  13  17
ATOM     14  C   UNL     1       3.947   1.308  19.094  0.00  0.00    +0.000 C 
ATOM     15  C   UNL     1       3.564   2.122  17.852  0.00  0.00    +0.000 C 
ATOM     16  C   UNL     1       3.931   3.620  18.023  0.00  0.00    +0.000 C 
ATOM     17  N   UNL     1       3.107   4.270  19.061  0.00  0.00    +0.000 NA
ATOM     18  C   UNL     1       1.681   4.121  18.716  0.00  0.00    +0.000 C 
ATOM     19  C   UNL     1       1.274   2.651  18.465  0.00  0.00    +0.000 C 
ATOM     20  N   UNL     1       2.136   1.946  17.496  0.00  0.00    +0.000 NA
ATOM     21  H   UNL     1       1.994   2.377  16.583  0.00  0.00    +0.000 HD
ENDBRANCH  13  17
ENDBRANCH   1  13
TORSDOF 2
ENDMDL
MODEL 3
REMARK VINA RESULT:      -7.0      2.374      3.419
REMARK  Name = 
REMARK  3 active torsions:
REMARK  status: ('A' for Active; 'I' for Inactive)
REMARK    1  A    between atoms: C_1  and  C_2
REMARK    2  A    between atoms: N_4  and  C_5
REMARK    3  A    between atoms: C_5  and  C_6
REMARK                            x       y       z     vdW  Elec       q    Type
REMARK                         _______ _______ _______ _____ _____    ______ ____
ROOT
ATOM      1  C   UNL     1       2.487   6.255  19.205  0.00  0.00    +0.000 C 
ATOM      2  O   UNL     1       2.116   5.663  20.221  0.00  0.00    +0.000 OA
ATOM      3  N   UNL     1       2.147   7.572  18.919  0.00  0.00    +0.000 N 
ATOM      4  C   UNL     1       2.320   8.242  17.620  0.00  0.00    +0.000 C 
ATOM      5  C   UNL     1       1.730   9.648  17.733  0.00  0.00    +0.000 C 
ATOM      6  C   UNL     1       1.339   9.706  19.173  0.00  0.00    +0.000 A 
ATOM      7  C   UNL     1       0.814  10.794  19.850  0.00  0.00    +0.000 A 
ATOM      8  C   UNL     1       0.535  10.655  21.209  0.00  0.00    +0.000 A 
ATOM      9  C   UNL     1       0.780   9.436  21.859  0.00  0.00    +0.000 A 
ATOM     10 CL   UNL     1       0.450   9.305  23.544  0.00  0.00    +0.000 Cl
ATOM     11  C   UNL     1       1.301   8.338  21.169  0.00  0.00    +0.000 A 
ATOM     12  C   UNL     1       1.577   8.490  19.819  0.00  0.00    +0.000 A 
ENDROOT
BRANCH   1  13
ATOM     13  C   UNL     1       3.397   5.573  18.162  0.00  0.00    +0.000 C 
BRANCH  13  17
ATOM     14  C   UNL     1       7.168   7.785  17.535  0.00  0.00    +0.000 C 
ATOM     15  C   UNL     1       7.048   6.288  17.224  0.00  0.00    +0.000 C 
ATOM     16  C   UNL     1       5.565   5.866  17.045  0.00  0.00    +0.000 C 
ATOM     17  N   UNL     1       4.814   5.961  18.312  0.00  0.00    +0.000 NA
ATOM     18  C   UNL     1       5.473   5.125  19.334  0.00  0.00    +0.000 C 
ATOM     19  C   UNL     1       6.973   5.456  19.504  0.00  0.00    +0.000 C 
ATOM     20  N   UNL     1       7.735   5.457  18.240  0.00  0.00    +0.000 NA
ATOM     21  H   UNL     1       7.755   4.500  17.889  0.00  0.00    +0.000 HD
ENDBRANCH  13  17
ENDBRANCH   1  13
TORSDOF 2
ENDMDL
MODEL 4
REMARK VINA RESULT:      -6.9      0.907      1.154
REMARK  Name = 
REMARK  3 active torsions:
REMARK  status: ('A' for Active; 'I' for Inactive)
REMARK    1  A    between atoms: C_1  and  C_2
REMARK    2  A    between atoms: N_4  and  C_5
REMARK    3  A    between atoms: C_5  and  C_6
REMARK                            x       y       z     vdW  Elec       q    Type
REMARK                         _______ _______ _______ _____ _____    ______ ____
ROOT
ATOM      1  C   UNL     1       2.230   6.797  19.668  0.00  0.00    +0.000 C 
ATOM      2  O   UNL     1       1.685   6.260  20.636  0.00  0.00    +0.000 OA
ATOM      3  N   UNL     1       1.926   8.082  19.234  0.00  0.00    +0.000 N 
ATOM      4  C   UNL     1       2.328   8.672  17.947  0.00  0.00    +0.000 C 
ATOM      5  C   UNL     1       1.702  10.064  17.852  0.00  0.00    +0.000 C 
ATOM      6  C   UNL     1       1.047  10.202  19.187  0.00  0.00    +0.000 A 
ATOM      7  C   UNL     1       0.385  11.315  19.678  0.00  0.00    +0.000 A 
ATOM      8  C   UNL     1      -0.141  11.255  20.968  0.00  0.00    +0.000 A 
ATOM      9  C   UNL     1      -0.000  10.088  21.734  0.00  0.00    +0.000 A 
ATOM     10 CL   UNL     1      -0.637  10.055  23.334  0.00  0.00    +0.000 Cl
ATOM     11  C   UNL     1       0.660   8.965  21.231  0.00  0.00    +0.000 A 
ATOM     12  C   UNL     1       1.181   9.038  19.947  0.00  0.00    +0.000 A 
ENDROOT
BRANCH   1  13
ATOM     13  C   UNL     1       3.331   6.077  18.862  0.00  0.00    +0.000 C 
BRANCH  13  17
ATOM     14  C   UNL     1       3.661   2.090  20.731  0.00  0.00    +0.000 C 
ATOM     15  C   UNL     1       4.487   2.475  19.498  0.00  0.00    +0.000 C 
ATOM     16  C   UNL     1       4.579   4.016  19.338  0.00  0.00    +0.000 C 
ATOM     17  N   UNL     1       3.268   4.610  19.007  0.00  0.00    +0.000 NA
ATOM     18  C   UNL     1       2.749   3.990  17.774  0.00  0.00    +0.000 C 
ATOM     19  C   UNL     1       2.703   2.447  17.851  0.00  0.00    +0.000 C 
ATOM     20  N   UNL     1       3.976   1.827  18.267  0.00  0.00    +0.000 NA
ATOM     21  H   UNL     1       4.658   1.994  17.528  0.00  0.00    +0.000 HD
ENDBRANCH  13  17
ENDBRANCH   1  13
TORSDOF 2
ENDMDL
MODEL 5
REMARK VINA RESULT:      -6.8      2.870      3.924
REMARK  Name = 
REMARK  3 active torsions:
REMARK  status: ('A' for Active; 'I' for Inactive)
REMARK    1  A    between atoms: C_1  and  C_2
REMARK    2  A    between atoms: N_4  and  C_5
REMARK    3  A    between atoms: C_5  and  C_6
REMARK                            x       y       z     vdW  Elec       q    Type
REMARK                         _______ _______ _______ _____ _____    ______ ____
ROOT
ATOM      1  C   UNL     1       2.429   8.063  18.077  0.00  0.00    +0.000 C 
ATOM      2  O   UNL     1       2.584   8.874  17.160  0.00  0.00    +0.000 OA
ATOM      3  N   UNL     1       1.783   8.370  19.269  0.00  0.00    +0.000 N 
ATOM      4  C   UNL     1       1.804   7.552  20.493  0.00  0.00    +0.000 C 
ATOM      5  C   UNL     1       1.040   8.310  21.579  0.00  0.00    +0.000 C 
ATOM      6  C   UNL     1       0.541   9.504  20.832  0.00  0.00    +0.000 A 
ATOM      7  C   UNL     1      -0.284  10.504  21.317  0.00  0.00    +0.000 A 
ATOM      8  C   UNL     1      -0.661  11.528  20.449  0.00  0.00    +0.000 A 
ATOM      9  C   UNL     1      -0.204  11.534  19.123  0.00  0.00    +0.000 A 
ATOM     10 CL   UNL     1      -0.710  12.799  18.069  0.00  0.00    +0.000 Cl
ATOM     11  C   UNL     1       0.636  10.528  18.641  0.00  0.00    +0.000 A 
ATOM     12  C   UNL     1       1.002   9.513  19.513  0.00  0.00    +0.000 A 
ENDROOT
BRANCH   1  13
ATOM     13  C   UNL     1       2.928   6.608  17.959  0.00  0.00    +0.000 C 
BRANCH  13  17
ATOM     14  C   UNL     1       7.221   7.502  17.429  0.00  0.00    +0.000 C 
ATOM     15  C   UNL     1       6.621   6.151  17.023  0.00  0.00    +0.000 C 
ATOM     16  C   UNL     1       5.083   6.249  16.836  0.00  0.00    +0.000 C 
ATOM     17  N   UNL     1       4.392   6.501  18.116  0.00  0.00    +0.000 NA
ATOM     18  C   UNL     1       4.732   5.430  19.073  0.00  0.00    +0.000 C 
ATOM     19  C   UNL     1       6.256   5.241  19.245  0.00  0.00    +0.000 C 
ATOM     20  N   UNL     1       6.989   5.076  17.974  0.00  0.00    +0.000 NA
ATOM     21  H   UNL     1       6.698   4.191  17.561  0.00  0.00    +0.000 HD
ENDBRANCH  13  17
ENDBRANCH   1  13
TORSDOF 2
ENDMDL
MODEL 6
REMARK VINA RESULT:      -6.8      2.659      6.919
REMARK  Name = 
REMARK  3 active torsions:
REMARK  status: ('A' for Active; 'I' for Inactive)
REMARK    1  A    between atoms: C_1  and  C_2
REMARK    2  A    between atoms: N_4  and  C_5
REMARK    3  A    between atoms: C_5  and  C_6
REMARK                            x       y       z     vdW  Elec       q    Type
REMARK                         _______ _______ _______ _____ _____    ______ ____
ROOT
ATOM      1  C   UNL     1       2.364   7.637  18.965  0.00  0.00    +0.000 C 
ATOM      2  O   UNL     1       1.790   7.673  20.057  0.00  0.00    +0.000 OA
ATOM      3  N   UNL     1       3.122   6.556  18.533  0.00  0.00    +0.000 N 
ATOM      4  C   UNL     1       4.042   6.555  17.384  0.00  0.00    +0.000 C 
ATOM      5  C   UNL     1       4.729   5.190  17.331  0.00  0.00    +0.000 C 
ATOM      6  C   UNL     1       4.047   4.457  18.440  0.00  0.00    +0.000 A 
ATOM      7  C   UNL     1       4.230   3.131  18.797  0.00  0.00    +0.000 A 
ATOM      8  C   UNL     1       3.476   2.622  19.853  0.00  0.00    +0.000 A 
ATOM      9  C   UNL     1       2.563   3.444  20.530  0.00  0.00    +0.000 A 
ATOM     10 CL   UNL     1       1.627   2.777  21.813  0.00  0.00    +0.000 Cl
ATOM     11  C   UNL     1       2.390   4.783  20.173  0.00  0.00    +0.000 A 
ATOM     12  C   UNL     1       3.144   5.278  19.119  0.00  0.00    +0.000 A 
ENDROOT
BRANCH   1  13
ATOM     13  C   UNL     1       2.260   8.806  17.963  0.00  0.00    +0.000 C 
BRANCH  13  17
ATOM     14  C   UNL     1      -0.819  11.054  20.192  0.00  0.00    +0.000 C 
ATOM     15  C   UNL     1      -0.660  11.191  18.673  0.00  0.00    +0.000 C 
ATOM     16  C   UNL     1       0.106   9.982  18.074  0.00  0.00    +0.000 C 
ATOM     17  N   UNL     1       1.515   9.956  18.514  0.00  0.00    +0.000 NA
ATOM     18  C   UNL     1       2.168  11.223  18.135  0.00  0.00    +0.000 C 
ATOM     19  C   UNL     1       1.407  12.467  18.647  0.00  0.00    +0.000 C 
ATOM     20  N   UNL     1      -0.028  12.478  18.300  0.00  0.00    +0.000 NA
ATOM     21  H   UNL     1      -0.101  12.572  17.288  0.00  0.00    +0.000 HD
ENDBRANCH  13  17
ENDBRANCH   1  13
TORSDOF 2
ENDMDL
MODEL 7
REMARK VINA RESULT:      -6.6      2.713      7.166
REMARK  Name = 
REMARK  3 active torsions:
REMARK  status: ('A' for Active; 'I' for Inactive)
REMARK    1  A    between atoms: C_1  and  C_2
REMARK    2  A    between atoms: N_4  and  C_5
REMARK    3  A    between atoms: C_5  and  C_6
REMARK                            x       y       z     vdW  Elec       q    Type
REMARK                         _______ _______ _______ _____ _____    ______ ____
ROOT
ATOM      1  C   UNL     1       1.420   8.485  20.083  0.00  0.00    +0.000 C 
ATOM      2  O   UNL     1       1.071   8.191  21.229  0.00  0.00    +0.000 OA
ATOM      3  N   UNL     1       2.200   7.658  19.284  0.00  0.00    +0.000 N 
ATOM      4  C   UNL     1       2.873   8.053  18.036  0.00  0.00    +0.000 C 
ATOM      5  C   UNL     1       3.691   6.859  17.542  0.00  0.00    +0.000 C 
ATOM      6  C   UNL     1       3.329   5.804  18.536  0.00  0.00    +0.000 A 
ATOM      7  C   UNL     1       3.732   4.479  18.526  0.00  0.00    +0.000 A 
ATOM      8  C   UNL     1       3.263   3.639  19.535  0.00  0.00    +0.000 A 
ATOM      9  C   UNL     1       2.411   4.139  20.531  0.00  0.00    +0.000 A 
ATOM     10 CL   UNL     1       1.827   3.068  21.748  0.00  0.00    +0.000 Cl
ATOM     11  C   UNL     1       2.015   5.478  20.542  0.00  0.00    +0.000 A 
ATOM     12  C   UNL     1       2.486   6.303  19.531  0.00  0.00    +0.000 A 
ENDROOT
BRANCH   1  13
ATOM     13  C   UNL     1       0.986   9.812  19.424  0.00  0.00    +0.000 C 
BRANCH  13  17
ATOM     14  C   UNL     1      -1.166  11.543  22.870  0.00  0.00    +0.000 C 
ATOM     15  C   UNL     1      -1.372  12.066  21.443  0.00  0.00    +0.000 C 
ATOM     16  C   UNL     1      -0.923  11.020  20.389  0.00  0.00    +0.000 C 
ATOM     17  N   UNL     1       0.539  10.811  20.414  0.00  0.00    +0.000 NA
ATOM     18  C   UNL     1       1.219  12.101  20.189  0.00  0.00    +0.000 C 
ATOM     19  C   UNL     1       0.757  13.203  21.170  0.00  0.00    +0.000 C 
ATOM     20  N   UNL     1      -0.708  13.373  21.234  0.00  0.00    +0.000 NA
ATOM     21  H   UNL     1      -1.017  13.732  20.332  0.00  0.00    +0.000 HD
ENDBRANCH  13  17
ENDBRANCH   1  13
TORSDOF 2
ENDMDL
MODEL 8
REMARK VINA RESULT:      -6.5      2.881      3.989
REMARK  Name = 
REMARK  3 active torsions:
REMARK  status: ('A' for Active; 'I' for Inactive)
REMARK    1  A    between atoms: C_1  and  C_2
REMARK    2  A    between atoms: N_4  and  C_5
REMARK    3  A    between atoms: C_5  and  C_6
REMARK                            x       y       z     vdW  Elec       q    Type
REMARK                         _______ _______ _______ _____ _____    ______ ____
ROOT
ATOM      1  C   UNL     1       3.268   6.845  17.920  0.00  0.00    +0.000 C 
ATOM      2  O   UNL     1       3.596   7.833  17.256  0.00  0.00    +0.000 OA
ATOM      3  N   UNL     1       2.504   6.920  19.078  0.00  0.00    +0.000 N 
ATOM      4  C   UNL     1       2.311   5.834  20.053  0.00  0.00    +0.000 C 
ATOM      5  C   UNL     1       1.477   6.383  21.211  0.00  0.00    +0.000 C 
ATOM      6  C   UNL     1       1.166   7.766  20.741  0.00  0.00    +0.000 A 
ATOM      7  C   UNL     1       0.364   8.699  21.376  0.00  0.00    +0.000 A 
ATOM      8  C   UNL     1       0.176   9.936  20.760  0.00  0.00    +0.000 A 
ATOM      9  C   UNL     1       0.793  10.214  19.531  0.00  0.00    +0.000 A 
ATOM     10 CL   UNL     1       0.517  11.741  18.783  0.00  0.00    +0.000 Cl
ATOM     11  C   UNL     1       1.609   9.272  18.900  0.00  0.00    +0.000 A 
ATOM     12  C   UNL     1       1.786   8.045  19.521  0.00  0.00    +0.000 A 
ENDROOT
BRANCH   1  13
ATOM     13  C   UNL     1       3.668   5.418  17.491  0.00  0.00    +0.000 C 
BRANCH  13  17
ATOM     14  C   UNL     1       7.075   5.028  14.708  0.00  0.00    +0.000 C 
ATOM     15  C   UNL     1       6.832   4.016  15.834  0.00  0.00    +0.000 C 
ATOM     16  C   UNL     1       5.363   4.069  16.333  0.00  0.00    +0.000 C 
ATOM     17  N   UNL     1       5.064   5.343  17.017  0.00  0.00    +0.000 NA
ATOM     18  C   UNL     1       6.001   5.525  18.141  0.00  0.00    +0.000 C 
ATOM     19  C   UNL     1       7.482   5.411  17.713  0.00  0.00    +0.000 C 
ATOM     20  N   UNL     1       7.794   4.189  16.947  0.00  0.00    +0.000 NA
ATOM     21  H   UNL     1       7.681   3.393  17.575  0.00  0.00    +0.000 HD
ENDBRANCH  13  17
ENDBRANCH   1  13
TORSDOF 2
ENDMDL
MODEL 9
REMARK VINA RESULT:      -6.5      2.830      6.762
REMARK  Name = 
REMARK  3 active torsions:
REMARK  status: ('A' for Active; 'I' for Inactive)
REMARK    1  A    between atoms: C_1  and  C_2
REMARK    2  A    between atoms: N_4  and  C_5
REMARK    3  A    between atoms: C_5  and  C_6
REMARK                            x       y       z     vdW  Elec       q    Type
REMARK                         _______ _______ _______ _____ _____    ______ ____
ROOT
ATOM      1  C   UNL     1       1.504   8.547  19.876  0.00  0.00    +0.000 C 
ATOM      2  O   UNL     1       1.044   8.291  20.991  0.00  0.00    +0.000 OA
ATOM      3  N   UNL     1       2.261   7.648  19.135  0.00  0.00    +0.000 N 
ATOM      4  C   UNL     1       3.060   7.975  17.942  0.00  0.00    +0.000 C 
ATOM      5  C   UNL     1       3.797   6.707  17.507  0.00  0.00    +0.000 C 
ATOM      6  C   UNL     1       3.263   5.694  18.466  0.00  0.00    +0.000 A 
ATOM      7  C   UNL     1       3.539   4.337  18.481  0.00  0.00    +0.000 A 
ATOM      8  C   UNL     1       2.919   3.548  19.448  0.00  0.00    +0.000 A 
ATOM      9  C   UNL     1       2.045   4.128  20.379  0.00  0.00    +0.000 A 
ATOM     10 CL   UNL     1       1.273   3.121  21.544  0.00  0.00    +0.000 Cl
ATOM     11  C   UNL     1       1.777   5.499  20.366  0.00  0.00    +0.000 A 
ATOM     12  C   UNL     1       2.398   6.273  19.397  0.00  0.00    +0.000 A 
ENDROOT
BRANCH   1  13
ATOM     13  C   UNL     1       1.249   9.907  19.192  0.00  0.00    +0.000 C 
BRANCH  13  17
ATOM     14  C   UNL     1      -2.986   9.586  17.980  0.00  0.00    +0.000 C 
ATOM     15  C   UNL     1      -2.135  10.812  17.627  0.00  0.00    +0.000 C 
ATOM     16  C   UNL     1      -0.619  10.489  17.707  0.00  0.00    +0.000 C 
ATOM     17  N   UNL     1      -0.189  10.227  19.095  0.00  0.00    +0.000 NA
ATOM     18  C   UNL     1      -0.517  11.393  19.936  0.00  0.00    +0.000 C 
ATOM     19  C   UNL     1      -2.004  11.803  19.840  0.00  0.00    +0.000 C 
ATOM     20  N   UNL     1      -2.489  11.986  18.458  0.00  0.00    +0.000 NA
ATOM     21  H   UNL     1      -2.008  12.794  18.065  0.00  0.00    +0.000 HD
ENDBRANCH  13  17
ENDBRANCH   1  13
TORSDOF 2
ENDMDL
