MODEL 1
REMARK VINA RESULT:      -7.5      0.000      0.000
REMARK  Name = 
REMARK  6 active torsions:
REMARK  status: ('A' for Active; 'I' for Inactive)
REMARK    1  A    between atoms: C_2  and  O_3
REMARK    2  A    between atoms: C_2  and  C_4
REMARK    3  A    between atoms: C_6  and  C_7
REMARK    4  A    between atoms: C_15  and  C_17
REMARK    5  A    between atoms: C_17  and  C_18
REMARK    6  A    between atoms: C_18  and  S_19
REMARK                            x       y       z     vdW  Elec       q    Type
REMARK                         _______ _______ _______ _____ _____    ______ ____
ROOT
ATOM      1  C   UNL     1       6.370   4.861  18.426  0.00  0.00    +0.000 C 
ATOM      2  S   UNL     1       4.908   5.089  19.509  0.00  0.00    +0.000 S 
ATOM      3  C   UNL     1       3.922   5.392  18.105  0.00  0.00    +0.000 C 
ATOM      4  N   UNL     1       4.524   5.382  16.961  0.00  0.00    +0.000 NA
ATOM      5  N   UNL     1       5.850   5.082  17.077  0.00  0.00    +0.000 N 
ATOM      6  C   UNL     1       6.552   4.635  15.964  0.00  0.00    +0.000 C 
ATOM      7  O   UNL     1       7.731   4.298  16.037  0.00  0.00    +0.000 OA
ENDROOT
BRANCH   3   8
ATOM      8  C   UNL     1       2.426   5.592  18.236  0.00  0.00    +0.000 C 
ATOM      9  C   UNL     1       1.647   4.411  17.643  0.00  0.00    +0.000 C 
ATOM     10  C   UNL     1       1.688   3.144  18.500  0.00  0.00    +0.000 C 
ATOM     11  C   UNL     1       1.323   3.405  19.957  0.00  0.00    +0.000 C 
ATOM     12  C   UNL     1       2.089   4.573  20.570  0.00  0.00    +0.000 C 
ATOM     13  C   UNL     1       2.035   5.832  19.704  0.00  0.00    +0.000 C 
ENDBRANCH   3   8
BRANCH   1  15
ATOM     14  O   UNL     1       7.666   6.907  18.178  0.00  0.00    +0.000 OA
ATOM     15  C   UNL     1       7.445   5.879  18.808  0.00  0.00    +0.000 C 
BRANCH  15  16
ATOM     16  O   UNL     1       8.242   5.507  19.845  0.00  0.00    +0.000 OA
ATOM     17  H   UNL     1       8.971   4.914  19.561  0.00  0.00    +0.000 HD
ENDBRANCH  15  16
ENDBRANCH   1  15
BRANCH   6  18
ATOM     18  C   UNL     1       5.763   4.615  14.661  0.00  0.00    +0.000 C 
BRANCH  18  19
ATOM     19  C   UNL     1       6.611   4.092  13.512  0.00  0.00    +0.000 C 
BRANCH  19  20
ATOM     20  S   UNL     1       5.550   3.288  12.268  0.00  0.00    +0.000 S 
ATOM     21  H   UNL     1       5.580   4.280  11.364  0.00  0.00    +0.000 HD
ENDBRANCH  19  20
ENDBRANCH  18  19
ENDBRANCH   6  18
TORSDOF 6
ENDMDL
MODEL 2
REMARK VINA RESULT:      -7.5      0.949      1.274
REMARK  Name = 
REMARK  6 active torsions:
REMARK  status: ('A' for Active; 'I' for Inactive)
REMARK    1  A    between atoms: C_2  and  O_3
REMARK    2  A    between atoms: C_2  and  C_4
REMARK    3  A    between atoms: C_6  and  C_7
REMARK    4  A    between atoms: C_15  and  C_17
REMARK    5  A    between atoms: C_17  and  C_18
REMARK    6  A    between atoms: C_18  and  S_19
REMARK                            x       y       z     vdW  Elec       q    Type
REMARK                         _______ _______ _______ _____ _____    ______ ____
ROOT
ATOM      1  C   UNL     1       6.707   5.329  17.876  0.00  0.00    +0.000 C 
ATOM      2  S   UNL     1       5.434   5.361  19.196  0.00  0.00    +0.000 S 
ATOM      3  C   UNL     1       4.193   5.123  17.996  0.00  0.00    +0.000 C 
ATOM      4  N   UNL     1       4.583   5.058  16.765  0.00  0.00    +0.000 NA
ATOM      5  N   UNL     1       5.939   5.147  16.646  0.00  0.00    +0.000 N 
ATOM      6  C   UNL     1       6.556   4.700  15.483  0.00  0.00    +0.000 C 
ATOM      7  O   UNL     1       7.778   4.707  15.358  0.00  0.00    +0.000 OA
ENDROOT
BRANCH   3   8
ATOM      8  C   UNL     1       2.745   4.941  18.403  0.00  0.00    +0.000 C 
ATOM      9  C   UNL     1       2.022   3.952  17.480  0.00  0.00    +0.000 C 
ATOM     10  C   UNL     1       2.410   2.490  17.707  0.00  0.00    +0.000 C 
ATOM     11  C   UNL     1       2.329   2.079  19.173  0.00  0.00    +0.000 C 
ATOM     12  C   UNL     1       3.045   3.046  20.111  0.00  0.00    +0.000 C 
ATOM     13  C   UNL     1       2.644   4.501  19.873  0.00  0.00    +0.000 C 
ENDBRANCH   3   8
BRANCH   1  15
ATOM     14  O   UNL     1       8.249   6.980  18.784  0.00  0.00    +0.000 OA
ATOM     15  C   UNL     1       7.480   6.648  17.889  0.00  0.00    +0.000 C 
BRANCH  15  16
ATOM     16  O   UNL     1       7.162   7.507  16.882  0.00  0.00    +0.000 OA
ATOM     17  H   UNL     1       7.082   7.053  16.016  0.00  0.00    +0.000 HD
ENDBRANCH  15  16
ENDBRANCH   1  15
BRANCH   6  18
ATOM     18  C   UNL     1       5.613   4.228  14.384  0.00  0.00    +0.000 C 
BRANCH  18  19
ATOM     19  C   UNL     1       6.381   3.801  13.144  0.00  0.00    +0.000 C 
BRANCH  19  20
ATOM     20  S   UNL     1       5.239   3.092  11.914  0.00  0.00    +0.000 S 
ATOM     21  H   UNL     1       5.331   1.817  12.324  0.00  0.00    +0.000 HD
ENDBRANCH  19  20
ENDBRANCH  18  19
ENDBRANCH   6  18
TORSDOF 6
ENDMDL
MODEL 3
REMARK VINA RESULT:      -7.3      1.380      2.199
REMARK  Name = 
REMARK  6 active torsions:
REMARK  status: ('A' for Active; 'I' for Inactive)
REMARK    1  A    between atoms: C_2  and  O_3
REMARK    2  A    between atoms: C_2  and  C_4
REMARK    3  A    between atoms: C_6  and  C_7
REMARK    4  A    between atoms: C_15  and  C_17
REMARK    5  A    between atoms: C_17  and  C_18
REMARK    6  A    between atoms: C_18  and  S_19
REMARK                            x       y       z     vdW  Elec       q    Type
REMARK                         _______ _______ _______ _____ _____    ______ ____
ROOT
ATOM      1  C   UNL     1       7.249   5.638  17.545  0.00  0.00    +0.000 C 
ATOM      2  S   UNL     1       6.485   5.156  19.141  0.00  0.00    +0.000 S 
ATOM      3  C   UNL     1       5.255   4.273  18.278  0.00  0.00    +0.000 C 
ATOM      4  N   UNL     1       5.312   4.313  16.987  0.00  0.00    +0.000 NA
ATOM      5  N   UNL     1       6.385   5.026  16.537  0.00  0.00    +0.000 N 
ATOM      6  C   UNL     1       6.832   4.843  15.234  0.00  0.00    +0.000 C 
ATOM      7  O   UNL     1       7.829   5.421  14.808  0.00  0.00    +0.000 OA
ENDROOT
BRANCH   3   8
ATOM      8  C   UNL     1       4.220   3.455  19.023  0.00  0.00    +0.000 C 
ATOM      9  C   UNL     1       3.242   4.353  19.791  0.00  0.00    +0.000 C 
ATOM     10  C   UNL     1       2.227   5.074  18.902  0.00  0.00    +0.000 C 
ATOM     11  C   UNL     1       1.514   4.133  17.938  0.00  0.00    +0.000 C 
ATOM     12  C   UNL     1       2.467   3.233  17.158  0.00  0.00    +0.000 C 
ATOM     13  C   UNL     1       3.471   2.517  18.062  0.00  0.00    +0.000 C 
ENDBRANCH   3   8
BRANCH   1  15
ATOM     14  O   UNL     1       8.071   7.875  18.042  0.00  0.00    +0.000 OA
ATOM     15  C   UNL     1       7.276   7.163  17.439  0.00  0.00    +0.000 C 
BRANCH  15  16
ATOM     16  O   UNL     1       6.262   7.703  16.711  0.00  0.00    +0.000 OA
ATOM     17  H   UNL     1       5.908   8.524  17.117  0.00  0.00    +0.000 HD
ENDBRANCH  15  16
ENDBRANCH   1  15
BRANCH   6  18
ATOM     18  C   UNL     1       5.990   3.903  14.381  0.00  0.00    +0.000 C 
BRANCH  18  19
ATOM     19  C   UNL     1       6.520   3.827  12.959  0.00  0.00    +0.000 C 
BRANCH  19  20
ATOM     20  S   UNL     1       5.324   2.960  11.892  0.00  0.00    +0.000 S 
ATOM     21  H   UNL     1       6.222   2.395  11.069  0.00  0.00    +0.000 HD
ENDBRANCH  19  20
ENDBRANCH  18  19
ENDBRANCH   6  18
TORSDOF 6
ENDMDL
MODEL 4
REMARK VINA RESULT:      -7.2      3.665      6.313
REMARK  Name = 
REMARK  6 active torsions:
REMARK  status: ('A' for Active; 'I' for Inactive)
REMARK    1  A    between atoms: C_2  and  O_3
REMARK    2  A    between atoms: C_2  and  C_4
REMARK    3  A    between atoms: C_6  and  C_7
REMARK    4  A    between atoms: C_15  and  C_17
REMARK    5  A    between atoms: C_17  and  C_18
REMARK    6  A    between atoms: C_18  and  S_19
REMARK                            x       y       z     vdW  Elec       q    Type
REMARK                         _______ _______ _______ _____ _____    ______ ____
ROOT
ATOM      1  C   UNL     1       2.729   3.691  19.421  0.00  0.00    +0.000 C 
ATOM      2  S   UNL     1       3.894   3.023  18.173  0.00  0.00    +0.000 S 
ATOM      3  C   UNL     1       3.981   4.593  17.421  0.00  0.00    +0.000 C 
ATOM      4  N   UNL     1       3.249   5.524  17.940  0.00  0.00    +0.000 NA
ATOM      5  N   UNL     1       2.563   5.092  19.038  0.00  0.00    +0.000 N 
ATOM      6  C   UNL     1       2.061   6.021  19.941  0.00  0.00    +0.000 C 
ATOM      7  O   UNL     1       1.489   5.674  20.972  0.00  0.00    +0.000 OA
ENDROOT
BRANCH   3   8
ATOM      8  C   UNL     1       4.921   4.846  16.261  0.00  0.00    +0.000 C 
ATOM      9  C   UNL     1       5.154   6.347  16.045  0.00  0.00    +0.000 C 
ATOM     10  C   UNL     1       6.059   6.995  17.094  0.00  0.00    +0.000 C 
ATOM     11  C   UNL     1       7.362   6.231  17.302  0.00  0.00    +0.000 C 
ATOM     12  C   UNL     1       7.155   4.736  17.524  0.00  0.00    +0.000 C 
ATOM     13  C   UNL     1       6.252   4.104  16.465  0.00  0.00    +0.000 C 
ENDBRANCH   3   8
BRANCH   1  15
ATOM     14  O   UNL     1       0.977   2.401  18.329  0.00  0.00    +0.000 OA
ATOM     15  C   UNL     1       1.416   2.911  19.353  0.00  0.00    +0.000 C 
BRANCH  15  16
ATOM     16  O   UNL     1       0.684   2.922  20.501  0.00  0.00    +0.000 OA
ATOM     17  H   UNL     1      -0.114   2.354  20.440  0.00  0.00    +0.000 HD
ENDBRANCH  15  16
ENDBRANCH   1  15
BRANCH   6  18
ATOM     18  C   UNL     1       2.254   7.481  19.551  0.00  0.00    +0.000 C 
BRANCH  18  19
ATOM     19  C   UNL     1       1.451   8.403  20.454  0.00  0.00    +0.000 C 
BRANCH  19  20
ATOM     20  S   UNL     1       0.870   9.851  19.512  0.00  0.00    +0.000 S 
ATOM     21  H   UNL     1       0.121   9.176  18.626  0.00  0.00    +0.000 HD
ENDBRANCH  19  20
ENDBRANCH  18  19
ENDBRANCH   6  18
TORSDOF 6
ENDMDL
MODEL 5
REMARK VINA RESULT:      -7.0      1.037      1.594
REMARK  Name = 
REMARK  6 active torsions:
REMARK  status: ('A' for Active; 'I' for Inactive)
REMARK    1  A    between atoms: C_2  and  O_3
REMARK    2  A    between atoms: C_2  and  C_4
REMARK    3  A    between atoms: C_6  and  C_7
REMARK    4  A    between atoms: C_15  and  C_17
REMARK    5  A    between atoms: C_17  and  C_18
REMARK    6  A    between atoms: C_18  and  S_19
REMARK                            x       y       z     vdW  Elec       q    Type
REMARK                         _______ _______ _______ _____ _____    ______ ____
ROOT
ATOM      1  C   UNL     1       6.171   4.171  18.157  0.00  0.00    +0.000 C 
ATOM      2  S   UNL     1       4.787   3.520  19.168  0.00  0.00    +0.000 S 
ATOM      3  C   UNL     1       3.733   3.630  17.785  0.00  0.00    +0.000 C 
ATOM      4  N   UNL     1       4.249   4.108  16.700  0.00  0.00    +0.000 NA
ATOM      5  N   UNL     1       5.574   4.402  16.843  0.00  0.00    +0.000 N 
ATOM      6  C   UNL     1       6.372   4.534  15.713  0.00  0.00    +0.000 C 
ATOM      7  O   UNL     1       7.581   4.739  15.798  0.00  0.00    +0.000 OA
ENDROOT
BRANCH   3   8
ATOM      8  C   UNL     1       2.306   3.126  17.855  0.00  0.00    +0.000 C 
ATOM      9  C   UNL     1       2.148   2.031  18.917  0.00  0.00    +0.000 C 
ATOM     10  C   UNL     1       2.178   2.549  20.356  0.00  0.00    +0.000 C 
ATOM     11  C   UNL     1       1.224   3.716  20.583  0.00  0.00    +0.000 C 
ATOM     12  C   UNL     1       1.365   4.821  19.541  0.00  0.00    +0.000 C 
ATOM     13  C   UNL     1       1.330   4.287  18.109  0.00  0.00    +0.000 C 
ENDBRANCH   3   8
BRANCH   1  15
ATOM     14  O   UNL     1       7.147   5.525  19.929  0.00  0.00    +0.000 OA
ATOM     15  C   UNL     1       6.696   5.459  18.791  0.00  0.00    +0.000 C 
BRANCH  15  16
ATOM     16  O   UNL     1       6.516   6.581  18.042  0.00  0.00    +0.000 OA
ATOM     17  H   UNL     1       5.586   6.893  18.057  0.00  0.00    +0.000 HD
ENDBRANCH  15  16
ENDBRANCH   1  15
BRANCH   6  18
ATOM     18  C   UNL     1       5.641   4.427  14.382  0.00  0.00    +0.000 C 
BRANCH  18  19
ATOM     19  C   UNL     1       6.569   3.942  13.280  0.00  0.00    +0.000 C 
BRANCH  19  20
ATOM     20  S   UNL     1       5.617   3.055  12.005  0.00  0.00    +0.000 S 
ATOM     21  H   UNL     1       4.576   3.901  11.963  0.00  0.00    +0.000 HD
ENDBRANCH  19  20
ENDBRANCH  18  19
ENDBRANCH   6  18
TORSDOF 6
ENDMDL
MODEL 6
REMARK VINA RESULT:      -6.8      0.699      1.366
REMARK  Name = 
REMARK  6 active torsions:
REMARK  status: ('A' for Active; 'I' for Inactive)
REMARK    1  A    between atoms: C_2  and  O_3
REMARK    2  A    between atoms: C_2  and  C_4
REMARK    3  A    between atoms: C_6  and  C_7
REMARK    4  A    between atoms: C_15  and  C_17
REMARK    5  A    between atoms: C_17  and  C_18
REMARK    6  A    between atoms: C_18  and  S_19
REMARK                            x       y       z     vdW  Elec       q    Type
REMARK                         _______ _______ _______ _____ _____    ______ ____
ROOT
ATOM      1  C   UNL     1       6.384   4.794  18.387  0.00  0.00    +0.000 C 
ATOM      2  S   UNL     1       4.858   4.883  19.399  0.00  0.00    +0.000 S 
ATOM      3  C   UNL     1       3.937   5.257  17.968  0.00  0.00    +0.000 C 
ATOM      4  N   UNL     1       4.600   5.358  16.863  0.00  0.00    +0.000 NA
ATOM      5  N   UNL     1       5.929   5.099  17.031  0.00  0.00    +0.000 N 
ATOM      6  C   UNL     1       6.707   4.766  15.929  0.00  0.00    +0.000 C 
ATOM      7  O   UNL     1       7.894   4.468  16.044  0.00  0.00    +0.000 OA
ENDROOT
BRANCH   3   8
ATOM      8  C   UNL     1       2.429   5.391  18.029  0.00  0.00    +0.000 C 
ATOM      9  C   UNL     1       1.837   4.555  19.171  0.00  0.00    +0.000 C 
ATOM     10  C   UNL     1       2.079   5.142  20.563  0.00  0.00    +0.000 C 
ATOM     11  C   UNL     1       1.689   6.613  20.660  0.00  0.00    +0.000 C 
ATOM     12  C   UNL     1       2.272   7.465  19.537  0.00  0.00    +0.000 C 
ATOM     13  C   UNL     1       2.018   6.868  18.153  0.00  0.00    +0.000 C 
ENDBRANCH   3   8
BRANCH   1  15
ATOM     14  O   UNL     1       7.683   6.851  18.312  0.00  0.00    +0.000 OA
ATOM     15  C   UNL     1       7.394   5.819  18.905  0.00  0.00    +0.000 C 
BRANCH  15  16
ATOM     16  O   UNL     1       8.059   5.446  20.032  0.00  0.00    +0.000 OA
ATOM     17  H   UNL     1       7.684   5.858  20.840  0.00  0.00    +0.000 HD
ENDBRANCH  15  16
ENDBRANCH   1  15
BRANCH   6  18
ATOM     18  C   UNL     1       5.992   4.818  14.585  0.00  0.00    +0.000 C 
BRANCH  18  19
ATOM     19  C   UNL     1       6.894   4.336  13.461  0.00  0.00    +0.000 C 
BRANCH  19  20
ATOM     20  S   UNL     1       5.950   3.291  12.305  0.00  0.00    +0.000 S 
ATOM     21  H   UNL     1       4.889   4.104  12.182  0.00  0.00    +0.000 HD
ENDBRANCH  19  20
ENDBRANCH  18  19
ENDBRANCH   6  18
TORSDOF 6
ENDMDL
MODEL 7
REMARK VINA RESULT:      -6.7      3.325      5.461
REMARK  Name = 
REMARK  6 active torsions:
REMARK  status: ('A' for Active; 'I' for Inactive)
REMARK    1  A    between atoms: C_2  and  O_3
REMARK    2  A    between atoms: C_2  and  C_4
REMARK    3  A    between atoms: C_6  and  C_7
REMARK    4  A    between atoms: C_15  and  C_17
REMARK    5  A    between atoms: C_17  and  C_18
REMARK    6  A    between atoms: C_18  and  S_19
REMARK                            x       y       z     vdW  Elec       q    Type
REMARK                         _______ _______ _______ _____ _____    ______ ____
ROOT
ATOM      1  C   UNL     1       2.131   6.253  18.653  0.00  0.00    +0.000 C 
ATOM      2  S   UNL     1       3.218   7.528  17.908  0.00  0.00    +0.000 S 
ATOM      3  C   UNL     1       4.258   6.274  17.292  0.00  0.00    +0.000 C 
ATOM      4  N   UNL     1       3.934   5.057  17.587  0.00  0.00    +0.000 NA
ATOM      5  N   UNL     1       2.779   4.989  18.310  0.00  0.00    +0.000 N 
ATOM      6  C   UNL     1       2.076   3.792  18.367  0.00  0.00    +0.000 C 
ATOM      7  O   UNL     1       1.001   3.702  18.957  0.00  0.00    +0.000 OA
ENDROOT
BRANCH   3   8
ATOM      8  C   UNL     1       5.439   6.610  16.406  0.00  0.00    +0.000 C 
ATOM      9  C   UNL     1       6.687   6.941  17.234  0.00  0.00    +0.000 C 
ATOM     10  C   UNL     1       7.348   5.722  17.880  0.00  0.00    +0.000 C 
ATOM     11  C   UNL     1       7.595   4.590  16.889  0.00  0.00    +0.000 C 
ATOM     12  C   UNL     1       6.365   4.240  16.056  0.00  0.00    +0.000 C 
ATOM     13  C   UNL     1       5.720   5.468  15.415  0.00  0.00    +0.000 C 
ENDBRANCH   3   8
BRANCH   1  15
ATOM     14  O   UNL     1       1.633   7.504  20.682  0.00  0.00    +0.000 OA
ATOM     15  C   UNL     1       2.055   6.476  20.164  0.00  0.00    +0.000 C 
BRANCH  15  16
ATOM     16  O   UNL     1       2.612   5.488  20.917  0.00  0.00    +0.000 OA
ATOM     17  H   UNL     1       1.962   4.795  21.162  0.00  0.00    +0.000 HD
ENDBRANCH  15  16
ENDBRANCH   1  15
BRANCH   6  18
ATOM     18  C   UNL     1       2.739   2.611  17.670  0.00  0.00    +0.000 C 
BRANCH  18  19
ATOM     19  C   UNL     1       3.172   1.552  18.671  0.00  0.00    +0.000 C 
BRANCH  19  20
ATOM     20  S   UNL     1       4.251   2.292  19.939  0.00  0.00    +0.000 S 
ATOM     21  H   UNL     1       3.279   2.633  20.800  0.00  0.00    +0.000 HD
ENDBRANCH  19  20
ENDBRANCH  18  19
ENDBRANCH   6  18
TORSDOF 6
ENDMDL
MODEL 8
REMARK VINA RESULT:      -6.7      3.532      6.338
REMARK  Name = 
REMARK  6 active torsions:
REMARK  status: ('A' for Active; 'I' for Inactive)
REMARK    1  A    between atoms: C_2  and  O_3
REMARK    2  A    between atoms: C_2  and  C_4
REMARK    3  A    between atoms: C_6  and  C_7
REMARK    4  A    between atoms: C_15  and  C_17
REMARK    5  A    between atoms: C_17  and  C_18
REMARK    6  A    between atoms: C_18  and  S_19
REMARK                            x       y       z     vdW  Elec       q    Type
REMARK                         _______ _______ _______ _____ _____    ______ ____
ROOT
ATOM      1  C   UNL     1       3.066   3.778  19.620  0.00  0.00    +0.000 C 
ATOM      2  S   UNL     1       4.707   3.406  18.890  0.00  0.00    +0.000 S 
ATOM      3  C   UNL     1       4.887   5.083  18.454  0.00  0.00    +0.000 C 
ATOM      4  N   UNL     1       3.897   5.865  18.740  0.00  0.00    +0.000 NA
ATOM      5  N   UNL     1       2.891   5.211  19.389  0.00  0.00    +0.000 N 
ATOM      6  C   UNL     1       1.958   5.939  20.118  0.00  0.00    +0.000 C 
ATOM      7  O   UNL     1       1.071   5.386  20.765  0.00  0.00    +0.000 OA
ENDROOT
BRANCH   3   8
ATOM      8  C   UNL     1       6.171   5.588  17.829  0.00  0.00    +0.000 C 
ATOM      9  C   UNL     1       6.915   4.469  17.091  0.00  0.00    +0.000 C 
ATOM     10  C   UNL     1       6.272   4.063  15.763  0.00  0.00    +0.000 C 
ATOM     11  C   UNL     1       5.978   5.256  14.861  0.00  0.00    +0.000 C 
ATOM     12  C   UNL     1       5.233   6.381  15.573  0.00  0.00    +0.000 C 
ATOM     13  C   UNL     1       5.891   6.777  16.895  0.00  0.00    +0.000 C 
ENDBRANCH   3   8
BRANCH   1  15
ATOM     14  O   UNL     1       1.993   2.716  17.710  0.00  0.00    +0.000 OA
ATOM     15  C   UNL     1       1.998   2.941  18.915  0.00  0.00    +0.000 C 
BRANCH  15  16
ATOM     16  O   UNL     1       0.961   2.554  19.706  0.00  0.00    +0.000 OA
ATOM     17  H   UNL     1       0.262   3.240  19.766  0.00  0.00    +0.000 HD
ENDBRANCH  15  16
ENDBRANCH   1  15
BRANCH   6  18
ATOM     18  C   UNL     1       2.104   7.453  20.036  0.00  0.00    +0.000 C 
BRANCH  18  19
ATOM     19  C   UNL     1       1.250   8.146  21.085  0.00  0.00    +0.000 C 
BRANCH  19  20
ATOM     20  S   UNL     1       0.568   9.696  20.412  0.00  0.00    +0.000 S 
ATOM     21  H   UNL     1      -0.194  10.010  21.471  0.00  0.00    +0.000 HD
ENDBRANCH  19  20
ENDBRANCH  18  19
ENDBRANCH   6  18
TORSDOF 6
ENDMDL
MODEL 9
REMARK VINA RESULT:      -6.4      2.248      3.053
REMARK  Name = 
REMARK  6 active torsions:
REMARK  status: ('A' for Active; 'I' for Inactive)
REMARK    1  A    between atoms: C_2  and  O_3
REMARK    2  A    between atoms: C_2  and  C_4
REMARK    3  A    between atoms: C_6  and  C_7
REMARK    4  A    between atoms: C_15  and  C_17
REMARK    5  A    between atoms: C_17  and  C_18
REMARK    6  A    between atoms: C_18  and  S_19
REMARK                            x       y       z     vdW  Elec       q    Type
REMARK                         _______ _______ _______ _____ _____    ______ ____
ROOT
ATOM      1  C   UNL     1       4.334   6.184  18.036  0.00  0.00    +0.000 C 
ATOM      2  S   UNL     1       3.770   5.248  19.508  0.00  0.00    +0.000 S 
ATOM      3  C   UNL     1       3.750   3.785  18.562  0.00  0.00    +0.000 C 
ATOM      4  N   UNL     1       4.066   3.898  17.314  0.00  0.00    +0.000 NA
ATOM      5  N   UNL     1       4.408   5.176  16.980  0.00  0.00    +0.000 N 
ATOM      6  C   UNL     1       5.146   5.409  15.826  0.00  0.00    +0.000 C 
ATOM      7  O   UNL     1       5.525   6.537  15.519  0.00  0.00    +0.000 OA
ENDROOT
BRANCH   3   8
ATOM      8  C   UNL     1       3.437   2.450  19.206  0.00  0.00    +0.000 C 
ATOM      9  C   UNL     1       3.566   2.518  20.733  0.00  0.00    +0.000 C 
ATOM     10  C   UNL     1       2.426   3.269  21.422  0.00  0.00    +0.000 C 
ATOM     11  C   UNL     1       1.049   2.787  20.979  0.00  0.00    +0.000 C 
ATOM     12  C   UNL     1       0.895   2.716  19.463  0.00  0.00    +0.000 C 
ATOM     13  C   UNL     1       2.040   1.959  18.790  0.00  0.00    +0.000 C 
ENDBRANCH   3   8
BRANCH   1  15
ATOM     14  O   UNL     1       2.143   7.246  18.061  0.00  0.00    +0.000 OA
ATOM     15  C   UNL     1       3.319   7.284  17.718  0.00  0.00    +0.000 C 
BRANCH  15  16
ATOM     16  O   UNL     1       3.783   8.273  16.907  0.00  0.00    +0.000 OA
ATOM     17  H   UNL     1       3.104   8.960  16.731  0.00  0.00    +0.000 HD
ENDBRANCH  15  16
ENDBRANCH   1  15
BRANCH   6  18
ATOM     18  C   UNL     1       5.427   4.179  14.972  0.00  0.00    +0.000 C 
BRANCH  18  19
ATOM     19  C   UNL     1       6.575   4.429  14.007  0.00  0.00    +0.000 C 
BRANCH  19  20
ATOM     20  S   UNL     1       6.290   3.528  12.449  0.00  0.00    +0.000 S 
ATOM     21  H   UNL     1       7.185   4.200  11.708  0.00  0.00    +0.000 HD
ENDBRANCH  19  20
ENDBRANCH  18  19
ENDBRANCH   6  18
TORSDOF 6
ENDMDL
