MODEL 1
REMARK VINA RESULT:      -8.4      0.000      0.000
REMARK  Name = 
REMARK  12 active torsions:
REMARK  status: ('A' for Active; 'I' for Inactive)
REMARK    1  A    between atoms: C_1  and  C_2
REMARK    2  A    between atoms: C_4  and  C_5
REMARK    3  A    between atoms: N_7  and  C_8
REMARK    4  A    between atoms: C_8  and  C_9
REMARK    5  A    between atoms: C_8  and  C_15
REMARK    6  A    between atoms: C_9  and  N_10
REMARK    7  A    between atoms: C_15  and  O_17
REMARK    8  A    between atoms: O_17  and  C_18
REMARK    9  A    between atoms: C_18  and  C_19
REMARK   10  A    between atoms: C_19  and  C_20
REMARK   11  A    between atoms: C_19  and  C_21
REMARK   12  A    between atoms: C_24  and  C_25
REMARK                            x       y       z     vdW  Elec       q    Type
REMARK                         _______ _______ _______ _____ _____    ______ ____
ROOT
ATOM      1  C   UNL     1       3.752   5.923  18.739  0.00  0.00    +0.000 C 
ATOM      2  O   UNL     1       4.668   5.832  19.546  0.00  0.00    +0.000 OA
ATOM      3  N   UNL     1       3.490   4.958  17.796  0.00  0.00    +0.000 N 
ATOM      4  H   UNL     1       2.669   5.027  17.206  0.00  0.00    +0.000 HD
ENDROOT
BRANCH   1   8
ATOM      5  C   UNL     1       0.559   8.584  21.417  0.00  0.00    +0.000 C 
ATOM      6  C   UNL     1       1.286   8.455  20.101  0.00  0.00    +0.000 A 
ATOM      7  C   UNL     1       2.149   7.346  19.976  0.00  0.00    +0.000 A 
ATOM      8  C   UNL     1       2.825   7.082  18.783  0.00  0.00    +0.000 A 
ATOM      9  C   UNL     1       2.646   7.923  17.694  0.00  0.00    +0.000 A 
ATOM     10  C   UNL     1       1.835   9.056  17.825  0.00  0.00    +0.000 A 
ATOM     11  C   UNL     1       1.158   9.379  19.029  0.00  0.00    +0.000 A 
BRANCH  11  12
ATOM     12  C   UNL     1       0.413  10.673  19.107  0.00  0.00    +0.000 A 
ATOM     13  C   UNL     1       0.978  11.821  19.701  0.00  0.00    +0.000 A 
ATOM     14  C   UNL     1       0.251  13.012  19.845  0.00  0.00    +0.000 A 
ATOM     15  C   UNL     1      -1.047  13.104  19.356  0.00  0.00    +0.000 A 
ATOM     16  C   UNL     1      -1.629  11.995  18.758  0.00  0.00    +0.000 A 
ATOM     17  C   UNL     1      -0.918  10.794  18.669  0.00  0.00    +0.000 A 
ENDBRANCH  11  12
ENDBRANCH   1   8
BRANCH   3  18
ATOM     18  C   UNL     1       4.307   3.745  17.684  0.00  0.00    +0.000 C 
BRANCH  18  19
ATOM     19  C   UNL     1       3.955   2.693  18.745  0.00  0.00    +0.000 C 
ATOM     20  O   UNL     1       4.684   2.398  19.683  0.00  0.00    +0.000 OA
BRANCH  19  21
ATOM     21  O   UNL     1       2.809   2.023  18.415  0.00  0.00    +0.000 OA
BRANCH  21  22
ATOM     22  C   UNL     1       1.843   1.928  19.476  0.00  0.00    +0.000 C 
BRANCH  22  23
ATOM     23  C   UNL     1       1.884   3.130  20.427  0.00  0.00    +0.000 C 
ATOM     24  C   UNL     1       0.757   4.118  20.129  0.00  0.00    +0.000 C 
ATOM     25  C   UNL     1       1.807   2.647  21.875  0.00  0.00    +0.000 C 
ENDBRANCH  22  23
ENDBRANCH  21  22
ENDBRANCH  19  21
ENDBRANCH  18  19
BRANCH  18  26
ATOM     26  C   UNL     1       5.825   3.998  17.658  0.00  0.00    +0.000 C 
BRANCH  26  27
ATOM     27  N   UNL     1       6.304   4.429  16.368  0.00  0.00    +0.000 N 
ATOM     28  C   UNL     1       6.001   3.855  15.165  0.00  0.00    +0.000 A 
ATOM     29  C   UNL     1       6.786   4.523  14.251  0.00  0.00    +0.000 A 
ATOM     30  N   UNL     1       7.506   5.517  14.866  0.00  0.00    +0.000 NA
ATOM     31  C   UNL     1       7.169   5.458  16.130  0.00  0.00    +0.000 A 
ENDBRANCH  26  27
ENDBRANCH  18  26
ENDBRANCH   3  18
TORSDOF 9
ENDMDL
MODEL 2
REMARK VINA RESULT:      -8.4      1.620      2.288
REMARK  Name = 
REMARK  12 active torsions:
REMARK  status: ('A' for Active; 'I' for Inactive)
REMARK    1  A    between atoms: C_1  and  C_2
REMARK    2  A    between atoms: C_4  and  C_5
REMARK    3  A    between atoms: N_7  and  C_8
REMARK    4  A    between atoms: C_8  and  C_9
REMARK    5  A    between atoms: C_8  and  C_15
REMARK    6  A    between atoms: C_9  and  N_10
REMARK    7  A    between atoms: C_15  and  O_17
REMARK    8  A    between atoms: O_17  and  C_18
REMARK    9  A    between atoms: C_18  and  C_19
REMARK   10  A    between atoms: C_19  and  C_20
REMARK   11  A    between atoms: C_19  and  C_21
REMARK   12  A    between atoms: C_24  and  C_25
REMARK                            x       y       z     vdW  Elec       q    Type
REMARK                         _______ _______ _______ _____ _____    ______ ____
ROOT
ATOM      1  C   UNL     1       3.005   7.032  18.005  0.00  0.00    +0.000 C 
ATOM      2  O   UNL     1       4.002   7.279  17.339  0.00  0.00    +0.000 OA
ATOM      3  N   UNL     1       2.612   5.751  18.313  0.00  0.00    +0.000 N 
ATOM      4  H   UNL     1       1.832   5.592  18.941  0.00  0.00    +0.000 HD
ENDROOT
BRANCH   1   8
ATOM      5  C   UNL     1       0.610   8.827  21.941  0.00  0.00    +0.000 C 
ATOM      6  C   UNL     1       1.046   9.080  20.519  0.00  0.00    +0.000 A 
ATOM      7  C   UNL     1       1.787   8.047  19.905  0.00  0.00    +0.000 A 
ATOM      8  C   UNL     1       2.188   8.135  18.570  0.00  0.00    +0.000 A 
ATOM      9  C   UNL     1       1.851   9.258  17.826  0.00  0.00    +0.000 A 
ATOM     10  C   UNL     1       1.163  10.310  18.442  0.00  0.00    +0.000 A 
ATOM     11  C   UNL     1       0.767  10.275  19.803  0.00  0.00    +0.000 A 
BRANCH  11  12
ATOM     12  C   UNL     1       0.144  11.497  20.399  0.00  0.00    +0.000 A 
ATOM     13  C   UNL     1      -1.252  11.688  20.413  0.00  0.00    +0.000 A 
ATOM     14  C   UNL     1      -1.832  12.868  20.901  0.00  0.00    +0.000 A 
ATOM     15  C   UNL     1      -1.032  13.873  21.434  0.00  0.00    +0.000 A 
ATOM     16  C   UNL     1       0.346  13.712  21.444  0.00  0.00    +0.000 A 
ATOM     17  C   UNL     1       0.919  12.556  20.904  0.00  0.00    +0.000 A 
ENDBRANCH  11  12
ENDBRANCH   1   8
BRANCH   3  18
ATOM     18  C   UNL     1       3.363   4.580  17.851  0.00  0.00    +0.000 C 
BRANCH  18  19
ATOM     19  C   UNL     1       2.455   3.393  17.501  0.00  0.00    +0.000 C 
ATOM     20  O   UNL     1       2.649   2.640  16.555  0.00  0.00    +0.000 OA
BRANCH  19  21
ATOM     21  O   UNL     1       1.330   3.386  18.279  0.00  0.00    +0.000 OA
BRANCH  21  22
ATOM     22  C   UNL     1       1.306   2.366  19.292  0.00  0.00    +0.000 C 
BRANCH  22  23
ATOM     23  C   UNL     1       1.190   2.938  20.710  0.00  0.00    +0.000 C 
ATOM     24  C   UNL     1       2.444   2.653  21.533  0.00  0.00    +0.000 C 
ATOM     25  C   UNL     1       0.921   4.441  20.640  0.00  0.00    +0.000 C 
ENDBRANCH  22  23
ENDBRANCH  21  22
ENDBRANCH  19  21
ENDBRANCH  18  19
BRANCH  18  26
ATOM     26  C   UNL     1       4.495   4.134  18.795  0.00  0.00    +0.000 C 
BRANCH  26  27
ATOM     27  N   UNL     1       5.781   4.677  18.430  0.00  0.00    +0.000 N 
ATOM     28  C   UNL     1       6.564   5.481  19.210  0.00  0.00    +0.000 A 
ATOM     29  C   UNL     1       7.614   5.843  18.394  0.00  0.00    +0.000 A 
ATOM     30  N   UNL     1       7.509   5.232  17.170  0.00  0.00    +0.000 NA
ATOM     31  C   UNL     1       6.417   4.511  17.235  0.00  0.00    +0.000 A 
ENDBRANCH  26  27
ENDBRANCH  18  26
ENDBRANCH   3  18
TORSDOF 9
ENDMDL
MODEL 3
REMARK VINA RESULT:      -8.4      1.469      2.021
REMARK  Name = 
REMARK  12 active torsions:
REMARK  status: ('A' for Active; 'I' for Inactive)
REMARK    1  A    between atoms: C_1  and  C_2
REMARK    2  A    between atoms: C_4  and  C_5
REMARK    3  A    between atoms: N_7  and  C_8
REMARK    4  A    between atoms: C_8  and  C_9
REMARK    5  A    between atoms: C_8  and  C_15
REMARK    6  A    between atoms: C_9  and  N_10
REMARK    7  A    between atoms: C_15  and  O_17
REMARK    8  A    between atoms: O_17  and  C_18
REMARK    9  A    between atoms: C_18  and  C_19
REMARK   10  A    between atoms: C_19  and  C_20
REMARK   11  A    between atoms: C_19  and  C_21
REMARK   12  A    between atoms: C_24  and  C_25
REMARK                            x       y       z     vdW  Elec       q    Type
REMARK                         _______ _______ _______ _____ _____    ______ ____
ROOT
ATOM      1  C   UNL     1       3.155   6.918  17.817  0.00  0.00    +0.000 C 
ATOM      2  O   UNL     1       3.987   7.189  16.961  0.00  0.00    +0.000 OA
ATOM      3  N   UNL     1       2.970   5.645  18.300  0.00  0.00    +0.000 N 
ATOM      4  H   UNL     1       2.334   5.477  19.071  0.00  0.00    +0.000 HD
ENDROOT
BRANCH   1   8
ATOM      5  C   UNL     1       0.801   8.564  21.841  0.00  0.00    +0.000 C 
ATOM      6  C   UNL     1       1.204   8.862  20.418  0.00  0.00    +0.000 A 
ATOM      7  C   UNL     1       1.954   7.860  19.764  0.00  0.00    +0.000 A 
ATOM      8  C   UNL     1       2.328   7.990  18.425  0.00  0.00    +0.000 A 
ATOM      9  C   UNL     1       1.955   9.124  17.716  0.00  0.00    +0.000 A 
ATOM     10  C   UNL     1       1.258  10.146  18.371  0.00  0.00    +0.000 A 
ATOM     11  C   UNL     1       0.889  10.069  19.738  0.00  0.00    +0.000 A 
BRANCH  11  12
ATOM     12  C   UNL     1       0.254  11.262  20.377  0.00  0.00    +0.000 A 
ATOM     13  C   UNL     1       1.016  12.366  20.813  0.00  0.00    +0.000 A 
ATOM     14  C   UNL     1       0.431  13.450  21.483  0.00  0.00    +0.000 A 
ATOM     15  C   UNL     1      -0.943  13.484  21.695  0.00  0.00    +0.000 A 
ATOM     16  C   UNL     1      -1.723  12.418  21.270  0.00  0.00    +0.000 A 
ATOM     17  C   UNL     1      -1.124  11.314  20.653  0.00  0.00    +0.000 A 
ENDBRANCH  11  12
ENDBRANCH   1   8
BRANCH   3  18
ATOM     18  C   UNL     1       3.759   4.510  17.810  0.00  0.00    +0.000 C 
BRANCH  18  19
ATOM     19  C   UNL     1       2.932   3.223  17.685  0.00  0.00    +0.000 C 
ATOM     20  O   UNL     1       2.255   2.938  16.705  0.00  0.00    +0.000 OA
BRANCH  19  21
ATOM     21  O   UNL     1       2.924   2.525  18.861  0.00  0.00    +0.000 OA
BRANCH  21  22
ATOM     22  C   UNL     1       1.614   2.188  19.349  0.00  0.00    +0.000 C 
BRANCH  22  23
ATOM     23  C   UNL     1       1.303   2.829  20.707  0.00  0.00    +0.000 C 
ATOM     24  C   UNL     1       2.492   2.727  21.660  0.00  0.00    +0.000 C 
ATOM     25  C   UNL     1       0.895   4.288  20.508  0.00  0.00    +0.000 C 
ENDBRANCH  22  23
ENDBRANCH  21  22
ENDBRANCH  19  21
ENDBRANCH  18  19
BRANCH  18  26
ATOM     26  C   UNL     1       5.054   4.244  18.600  0.00  0.00    +0.000 C 
BRANCH  26  27
ATOM     27  N   UNL     1       6.164   5.050  18.152  0.00  0.00    +0.000 N 
ATOM     28  C   UNL     1       6.944   5.851  18.939  0.00  0.00    +0.000 A 
ATOM     29  C   UNL     1       7.772   6.507  18.054  0.00  0.00    +0.000 A 
ATOM     30  N   UNL     1       7.546   6.080  16.770  0.00  0.00    +0.000 NA
ATOM     31  C   UNL     1       6.600   5.180  16.866  0.00  0.00    +0.000 A 
ENDBRANCH  26  27
ENDBRANCH  18  26
ENDBRANCH   3  18
TORSDOF 9
ENDMDL
MODEL 4
REMARK VINA RESULT:      -8.3      1.119      1.587
REMARK  Name = 
REMARK  12 active torsions:
REMARK  status: ('A' for Active; 'I' for Inactive)
REMARK    1  A    between atoms: C_1  and  C_2
REMARK    2  A    between atoms: C_4  and  C_5
REMARK    3  A    between atoms: N_7  and  C_8
REMARK    4  A    between atoms: C_8  and  C_9
REMARK    5  A    between atoms: C_8  and  C_15
REMARK    6  A    between atoms: C_9  and  N_10
REMARK    7  A    between atoms: C_15  and  O_17
REMARK    8  A    between atoms: O_17  and  C_18
REMARK    9  A    between atoms: C_18  and  C_19
REMARK   10  A    between atoms: C_19  and  C_20
REMARK   11  A    between atoms: C_19  and  C_21
REMARK   12  A    between atoms: C_24  and  C_25
REMARK                            x       y       z     vdW  Elec       q    Type
REMARK                         _______ _______ _______ _____ _____    ______ ____
ROOT
ATOM      1  C   UNL     1       3.208   6.203  18.885  0.00  0.00    +0.000 C 
ATOM      2  O   UNL     1       3.695   5.683  19.881  0.00  0.00    +0.000 OA
ATOM      3  N   UNL     1       3.355   5.680  17.622  0.00  0.00    +0.000 N 
ATOM      4  H   UNL     1       2.862   6.090  16.838  0.00  0.00    +0.000 HD
ENDROOT
BRANCH   1   8
ATOM      5  C   UNL     1       0.461   9.067  21.835  0.00  0.00    +0.000 C 
ATOM      6  C   UNL     1       1.053   8.892  20.458  0.00  0.00    +0.000 A 
ATOM      7  C   UNL     1       1.825   7.728  20.259  0.00  0.00    +0.000 A 
ATOM      8  C   UNL     1       2.369   7.421  19.010  0.00  0.00    +0.000 A 
ATOM      9  C   UNL     1       2.147   8.275  17.938  0.00  0.00    +0.000 A 
ATOM     10  C   UNL     1       1.429   9.459  18.139  0.00  0.00    +0.000 A 
ATOM     11  C   UNL     1       0.889   9.824  19.398  0.00  0.00    +0.000 A 
BRANCH  11  12
ATOM     12  C   UNL     1       0.243  11.165  19.539  0.00  0.00    +0.000 A 
ATOM     13  C   UNL     1       0.980  12.312  19.901  0.00  0.00    +0.000 A 
ATOM     14  C   UNL     1       0.362  13.553  20.110  0.00  0.00    +0.000 A 
ATOM     15  C   UNL     1      -1.007  13.694  19.917  0.00  0.00    +0.000 A 
ATOM     16  C   UNL     1      -1.761  12.588  19.552  0.00  0.00    +0.000 A 
ATOM     17  C   UNL     1      -1.146  11.341  19.401  0.00  0.00    +0.000 A 
ENDBRANCH  11  12
ENDBRANCH   1   8
BRANCH   3  18
ATOM     18  C   UNL     1       4.122   4.455  17.378  0.00  0.00    +0.000 C 
BRANCH  18  19
ATOM     19  C   UNL     1       3.275   3.184  17.532  0.00  0.00    +0.000 C 
ATOM     20  O   UNL     1       2.330   2.899  16.807  0.00  0.00    +0.000 OA
BRANCH  19  21
ATOM     21  O   UNL     1       3.609   2.503  18.670  0.00  0.00    +0.000 OA
BRANCH  21  22
ATOM     22  C   UNL     1       2.489   2.057  19.454  0.00  0.00    +0.000 C 
BRANCH  22  23
ATOM     23  C   UNL     1       2.016   3.107  20.467  0.00  0.00    +0.000 C 
ATOM     24  C   UNL     1       0.707   3.759  20.025  0.00  0.00    +0.000 C 
ATOM     25  C   UNL     1       1.860   2.463  21.843  0.00  0.00    +0.000 C 
ENDBRANCH  22  23
ENDBRANCH  21  22
ENDBRANCH  19  21
ENDBRANCH  18  19
BRANCH  18  26
ATOM     26  C   UNL     1       5.420   4.340  18.199  0.00  0.00    +0.000 C 
BRANCH  26  27
ATOM     27  N   UNL     1       6.397   5.344  17.854  0.00  0.00    +0.000 N 
ATOM     28  C   UNL     1       7.176   6.042  18.734  0.00  0.00    +0.000 A 
ATOM     29  C   UNL     1       7.842   6.963  17.955  0.00  0.00    +0.000 A 
ATOM     30  N   UNL     1       7.525   6.797  16.630  0.00  0.00    +0.000 NA
ATOM     31  C   UNL     1       6.682   5.795  16.598  0.00  0.00    +0.000 A 
ENDBRANCH  26  27
ENDBRANCH  18  26
ENDBRANCH   3  18
TORSDOF 9
ENDMDL
MODEL 5
REMARK VINA RESULT:      -8.3      1.679      4.206
REMARK  Name = 
REMARK  12 active torsions:
REMARK  status: ('A' for Active; 'I' for Inactive)
REMARK    1  A    between atoms: C_1  and  C_2
REMARK    2  A    between atoms: C_4  and  C_5
REMARK    3  A    between atoms: N_7  and  C_8
REMARK    4  A    between atoms: C_8  and  C_9
REMARK    5  A    between atoms: C_8  and  C_15
REMARK    6  A    between atoms: C_9  and  N_10
REMARK    7  A    between atoms: C_15  and  O_17
REMARK    8  A    between atoms: O_17  and  C_18
REMARK    9  A    between atoms: C_18  and  C_19
REMARK   10  A    between atoms: C_19  and  C_20
REMARK   11  A    between atoms: C_19  and  C_21
REMARK   12  A    between atoms: C_24  and  C_25
REMARK                            x       y       z     vdW  Elec       q    Type
REMARK                         _______ _______ _______ _____ _____    ______ ____
ROOT
ATOM      1  C   UNL     1       3.574   5.971  18.774  0.00  0.00    +0.000 C 
ATOM      2  O   UNL     1       4.152   5.603  19.788  0.00  0.00    +0.000 OA
ATOM      3  N   UNL     1       3.620   5.269  17.592  0.00  0.00    +0.000 N 
ATOM      4  H   UNL     1       3.056   5.559  16.802  0.00  0.00    +0.000 HD
ENDROOT
BRANCH   1   8
ATOM      5  C   UNL     1       0.504   8.857  21.361  0.00  0.00    +0.000 C 
ATOM      6  C   UNL     1       1.257   8.675  20.066  0.00  0.00    +0.000 A 
ATOM      7  C   UNL     1       2.042   7.506  19.965  0.00  0.00    +0.000 A 
ATOM      8  C   UNL     1       2.732   7.193  18.792  0.00  0.00    +0.000 A 
ATOM      9  C   UNL     1       2.644   8.044  17.698  0.00  0.00    +0.000 A 
ATOM     10  C   UNL     1       1.912   9.231  17.807  0.00  0.00    +0.000 A 
ATOM     11  C   UNL     1       1.225   9.603  18.991  0.00  0.00    +0.000 A 
BRANCH  11  12
ATOM     12  C   UNL     1       0.573  10.947  19.048  0.00  0.00    +0.000 A 
ATOM     13  C   UNL     1      -0.736  11.160  18.568  0.00  0.00    +0.000 A 
ATOM     14  C   UNL     1      -1.318  12.435  18.549  0.00  0.00    +0.000 A 
ATOM     15  C   UNL     1      -0.626  13.529  19.055  0.00  0.00    +0.000 A 
ATOM     16  C   UNL     1       0.660  13.353  19.545  0.00  0.00    +0.000 A 
ATOM     17  C   UNL     1       1.256  12.087  19.507  0.00  0.00    +0.000 A 
ENDBRANCH  11  12
ENDBRANCH   1   8
BRANCH   3  18
ATOM     18  C   UNL     1       4.381   4.023  17.464  0.00  0.00    +0.000 C 
BRANCH  18  19
ATOM     19  C   UNL     1       5.353   4.041  16.275  0.00  0.00    +0.000 C 
ATOM     20  O   UNL     1       5.613   3.060  15.590  0.00  0.00    +0.000 OA
BRANCH  19  21
ATOM     21  O   UNL     1       6.002   5.242  16.187  0.00  0.00    +0.000 OA
BRANCH  21  22
ATOM     22  C   UNL     1       7.346   5.237  16.699  0.00  0.00    +0.000 C 
BRANCH  22  23
ATOM     23  C   UNL     1       7.616   6.392  17.671  0.00  0.00    +0.000 C 
ATOM     24  C   UNL     1       6.614   7.529  17.480  0.00  0.00    +0.000 C 
ATOM     25  C   UNL     1       7.580   5.877  19.109  0.00  0.00    +0.000 C 
ENDBRANCH  22  23
ENDBRANCH  21  22
ENDBRANCH  19  21
ENDBRANCH  18  19
BRANCH  18  26
ATOM     26  C   UNL     1       3.519   2.747  17.435  0.00  0.00    +0.000 C 
BRANCH  26  27
ATOM     27  N   UNL     1       2.590   2.669  18.536  0.00  0.00    +0.000 N 
ATOM     28  C   UNL     1       1.243   2.894  18.470  0.00  0.00    +0.000 A 
ATOM     29  C   UNL     1       0.815   2.831  19.778  0.00  0.00    +0.000 A 
ATOM     30  N   UNL     1       1.856   2.518  20.615  0.00  0.00    +0.000 NA
ATOM     31  C   UNL     1       2.902   2.393  19.836  0.00  0.00    +0.000 A 
ENDBRANCH  26  27
ENDBRANCH  18  26
ENDBRANCH   3  18
TORSDOF 9
ENDMDL
MODEL 6
REMARK VINA RESULT:      -8.2      1.719      4.564
REMARK  Name = 
REMARK  12 active torsions:
REMARK  status: ('A' for Active; 'I' for Inactive)
REMARK    1  A    between atoms: C_1  and  C_2
REMARK    2  A    between atoms: C_4  and  C_5
REMARK    3  A    between atoms: N_7  and  C_8
REMARK    4  A    between atoms: C_8  and  C_9
REMARK    5  A    between atoms: C_8  and  C_15
REMARK    6  A    between atoms: C_9  and  N_10
REMARK    7  A    between atoms: C_15  and  O_17
REMARK    8  A    between atoms: O_17  and  C_18
REMARK    9  A    between atoms: C_18  and  C_19
REMARK   10  A    between atoms: C_19  and  C_20
REMARK   11  A    between atoms: C_19  and  C_21
REMARK   12  A    between atoms: C_24  and  C_25
REMARK                            x       y       z     vdW  Elec       q    Type
REMARK                         _______ _______ _______ _____ _____    ______ ____
ROOT
ATOM      1  C   UNL     1       3.735   6.008  18.803  0.00  0.00    +0.000 C 
ATOM      2  O   UNL     1       4.136   5.546  19.863  0.00  0.00    +0.000 OA
ATOM      3  N   UNL     1       4.043   5.453  17.583  0.00  0.00    +0.000 N 
ATOM      4  H   UNL     1       3.619   5.812  16.735  0.00  0.00    +0.000 HD
ENDROOT
BRANCH   1   8
ATOM      5  C   UNL     1       0.472   8.756  21.302  0.00  0.00    +0.000 C 
ATOM      6  C   UNL     1       1.256   8.599  20.022  0.00  0.00    +0.000 A 
ATOM      7  C   UNL     1       2.103   7.473  19.949  0.00  0.00    +0.000 A 
ATOM      8  C   UNL     1       2.828   7.183  18.792  0.00  0.00    +0.000 A 
ATOM      9  C   UNL     1       2.714   8.015  17.685  0.00  0.00    +0.000 A 
ATOM     10  C   UNL     1       1.918   9.163  17.767  0.00  0.00    +0.000 A 
ATOM     11  C   UNL     1       1.193   9.512  18.935  0.00  0.00    +0.000 A 
BRANCH  11  12
ATOM     12  C   UNL     1       0.469  10.820  18.965  0.00  0.00    +0.000 A 
ATOM     13  C   UNL     1      -0.938  10.890  19.025  0.00  0.00    +0.000 A 
ATOM     14  C   UNL     1      -1.620  12.114  18.973  0.00  0.00    +0.000 A 
ATOM     15  C   UNL     1      -0.912  13.308  18.908  0.00  0.00    +0.000 A 
ATOM     16  C   UNL     1       0.474  13.275  18.856  0.00  0.00    +0.000 A 
ATOM     17  C   UNL     1       1.145  12.048  18.851  0.00  0.00    +0.000 A 
ENDBRANCH  11  12
ENDBRANCH   1   8
BRANCH   3  18
ATOM     18  C   UNL     1       4.892   4.264  17.468  0.00  0.00    +0.000 C 
BRANCH  18  19
ATOM     19  C   UNL     1       6.004   4.427  16.423  0.00  0.00    +0.000 C 
ATOM     20  O   UNL     1       6.902   5.256  16.503  0.00  0.00    +0.000 OA
BRANCH  19  21
ATOM     21  O   UNL     1       5.770   3.644  15.326  0.00  0.00    +0.000 OA
BRANCH  21  22
ATOM     22  C   UNL     1       5.659   4.364  14.087  0.00  0.00    +0.000 C 
BRANCH  22  23
ATOM     23  C   UNL     1       5.946   3.488  12.861  0.00  0.00    +0.000 C 
ATOM     24  C   UNL     1       4.725   3.387  11.948  0.00  0.00    +0.000 C 
ATOM     25  C   UNL     1       7.146   4.045  12.098  0.00  0.00    +0.000 C 
ENDBRANCH  22  23
ENDBRANCH  21  22
ENDBRANCH  19  21
ENDBRANCH  18  19
BRANCH  18  26
ATOM     26  C   UNL     1       4.123   2.950  17.235  0.00  0.00    +0.000 C 
BRANCH  26  27
ATOM     27  N   UNL     1       3.058   2.743  18.186  0.00  0.00    +0.000 N 
ATOM     28  C   UNL     1       1.728   2.973  17.966  0.00  0.00    +0.000 A 
ATOM     29  C   UNL     1       1.131   2.759  19.189  0.00  0.00    +0.000 A 
ATOM     30  N   UNL     1       2.057   2.353  20.117  0.00  0.00    +0.000 NA
ATOM     31  C   UNL     1       3.198   2.320  19.476  0.00  0.00    +0.000 A 
ENDBRANCH  26  27
ENDBRANCH  18  26
ENDBRANCH   3  18
TORSDOF 9
ENDMDL
MODEL 7
REMARK VINA RESULT:      -8.2      1.758      4.380
REMARK  Name = 
REMARK  12 active torsions:
REMARK  status: ('A' for Active; 'I' for Inactive)
REMARK    1  A    between atoms: C_1  and  C_2
REMARK    2  A    between atoms: C_4  and  C_5
REMARK    3  A    between atoms: N_7  and  C_8
REMARK    4  A    between atoms: C_8  and  C_9
REMARK    5  A    between atoms: C_8  and  C_15
REMARK    6  A    between atoms: C_9  and  N_10
REMARK    7  A    between atoms: C_15  and  O_17
REMARK    8  A    between atoms: O_17  and  C_18
REMARK    9  A    between atoms: C_18  and  C_19
REMARK   10  A    between atoms: C_19  and  C_20
REMARK   11  A    between atoms: C_19  and  C_21
REMARK   12  A    between atoms: C_24  and  C_25
REMARK                            x       y       z     vdW  Elec       q    Type
REMARK                         _______ _______ _______ _____ _____    ______ ____
ROOT
ATOM      1  C   UNL     1       3.333   6.014  19.222  0.00  0.00    +0.000 C 
ATOM      2  O   UNL     1       3.177   5.294  20.200  0.00  0.00    +0.000 OA
ATOM      3  N   UNL     1       4.173   5.691  18.183  0.00  0.00    +0.000 N 
ATOM      4  H   UNL     1       4.206   6.270  17.352  0.00  0.00    +0.000 HD
ENDROOT
BRANCH   1   8
ATOM      5  C   UNL     1       0.387   9.329  21.409  0.00  0.00    +0.000 C 
ATOM      6  C   UNL     1       1.148   8.964  20.158  0.00  0.00    +0.000 A 
ATOM      7  C   UNL     1       1.870   7.752  20.204  0.00  0.00    +0.000 A 
ATOM      8  C   UNL     1       2.558   7.273  19.087  0.00  0.00    +0.000 A 
ATOM      9  C   UNL     1       2.532   7.999  17.903  0.00  0.00    +0.000 A 
ATOM     10  C   UNL     1       1.864   9.228  17.865  0.00  0.00    +0.000 A 
ATOM     11  C   UNL     1       1.182   9.766  18.986  0.00  0.00    +0.000 A 
BRANCH  11  12
ATOM     12  C   UNL     1       0.603  11.140  18.880  0.00  0.00    +0.000 A 
ATOM     13  C   UNL     1       1.361  12.292  19.175  0.00  0.00    +0.000 A 
ATOM     14  C   UNL     1       0.796  13.575  19.152  0.00  0.00    +0.000 A 
ATOM     15  C   UNL     1      -0.534  13.748  18.786  0.00  0.00    +0.000 A 
ATOM     16  C   UNL     1      -1.306  12.637  18.481  0.00  0.00    +0.000 A 
ATOM     17  C   UNL     1      -0.750  11.355  18.561  0.00  0.00    +0.000 A 
ENDBRANCH  11  12
ENDBRANCH   1   8
BRANCH   3  18
ATOM     18  C   UNL     1       4.957   4.452  18.181  0.00  0.00    +0.000 C 
BRANCH  18  19
ATOM     19  C   UNL     1       6.402   4.665  17.707  0.00  0.00    +0.000 C 
ATOM     20  O   UNL     1       7.388   4.438  18.397  0.00  0.00    +0.000 OA
BRANCH  19  21
ATOM     21  O   UNL     1       6.435   5.285  16.489  0.00  0.00    +0.000 OA
BRANCH  21  22
ATOM     22  C   UNL     1       7.171   4.578  15.475  0.00  0.00    +0.000 C 
BRANCH  22  23
ATOM     23  C   UNL     1       6.694   4.907  14.055  0.00  0.00    +0.000 C 
ATOM     24  C   UNL     1       7.867   5.225  13.130  0.00  0.00    +0.000 C 
ATOM     25  C   UNL     1       5.872   3.743  13.504  0.00  0.00    +0.000 C 
ENDBRANCH  22  23
ENDBRANCH  21  22
ENDBRANCH  19  21
ENDBRANCH  18  19
BRANCH  18  26
ATOM     26  C   UNL     1       4.305   3.286  17.415  0.00  0.00    +0.000 C 
BRANCH  26  27
ATOM     27  N   UNL     1       3.095   2.808  18.038  0.00  0.00    +0.000 N 
ATOM     28  C   UNL     1       1.820   3.154  17.687  0.00  0.00    +0.000 A 
ATOM     29  C   UNL     1       1.022   2.556  18.639  0.00  0.00    +0.000 A 
ATOM     30  N   UNL     1       1.780   1.817  19.512  0.00  0.00    +0.000 NA
ATOM     31  C   UNL     1       3.017   1.960  19.105  0.00  0.00    +0.000 A 
ENDBRANCH  26  27
ENDBRANCH  18  26
ENDBRANCH   3  18
TORSDOF 9
ENDMDL
MODEL 8
REMARK VINA RESULT:      -8.2      0.710      1.104
REMARK  Name = 
REMARK  12 active torsions:
REMARK  status: ('A' for Active; 'I' for Inactive)
REMARK    1  A    between atoms: C_1  and  C_2
REMARK    2  A    between atoms: C_4  and  C_5
REMARK    3  A    between atoms: N_7  and  C_8
REMARK    4  A    between atoms: C_8  and  C_9
REMARK    5  A    between atoms: C_8  and  C_15
REMARK    6  A    between atoms: C_9  and  N_10
REMARK    7  A    between atoms: C_15  and  O_17
REMARK    8  A    between atoms: O_17  and  C_18
REMARK    9  A    between atoms: C_18  and  C_19
REMARK   10  A    between atoms: C_19  and  C_20
REMARK   11  A    between atoms: C_19  and  C_21
REMARK   12  A    between atoms: C_24  and  C_25
REMARK                            x       y       z     vdW  Elec       q    Type
REMARK                         _______ _______ _______ _____ _____    ______ ____
ROOT
ATOM      1  C   UNL     1       3.315   6.082  18.754  0.00  0.00    +0.000 C 
ATOM      2  O   UNL     1       4.049   5.732  19.669  0.00  0.00    +0.000 OA
ATOM      3  N   UNL     1       3.190   5.371  17.584  0.00  0.00    +0.000 N 
ATOM      4  H   UNL     1       2.506   5.644  16.888  0.00  0.00    +0.000 HD
ENDROOT
BRANCH   1   8
ATOM      5  C   UNL     1       0.608   8.925  21.760  0.00  0.00    +0.000 C 
ATOM      6  C   UNL     1       1.167   8.751  20.369  0.00  0.00    +0.000 A 
ATOM      7  C   UNL     1       1.948   7.596  20.155  0.00  0.00    +0.000 A 
ATOM      8  C   UNL     1       2.464   7.290  18.894  0.00  0.00    +0.000 A 
ATOM      9  C   UNL     1       2.203   8.136  17.824  0.00  0.00    +0.000 A 
ATOM     10  C   UNL     1       1.476   9.312  18.038  0.00  0.00    +0.000 A 
ATOM     11  C   UNL     1       0.963   9.676  19.310  0.00  0.00    +0.000 A 
BRANCH  11  12
ATOM     12  C   UNL     1       0.304  11.009  19.461  0.00  0.00    +0.000 A 
ATOM     13  C   UNL     1       1.027  12.158  19.844  0.00  0.00    +0.000 A 
ATOM     14  C   UNL     1       0.396  13.390  20.062  0.00  0.00    +0.000 A 
ATOM     15  C   UNL     1      -0.972  13.522  19.858  0.00  0.00    +0.000 A 
ATOM     16  C   UNL     1      -1.713  12.414  19.473  0.00  0.00    +0.000 A 
ATOM     17  C   UNL     1      -1.085  11.175  19.312  0.00  0.00    +0.000 A 
ENDBRANCH  11  12
ENDBRANCH   1   8
BRANCH   3  18
ATOM     18  C   UNL     1       3.944   4.136  17.347  0.00  0.00    +0.000 C 
BRANCH  18  19
ATOM     19  C   UNL     1       3.552   3.007  18.311  0.00  0.00    +0.000 C 
ATOM     20  O   UNL     1       4.357   2.263  18.856  0.00  0.00    +0.000 OA
BRANCH  19  21
ATOM     21  O   UNL     1       2.195   2.841  18.351  0.00  0.00    +0.000 OA
BRANCH  21  22
ATOM     22  C   UNL     1       1.727   1.979  19.402  0.00  0.00    +0.000 C 
BRANCH  22  23
ATOM     23  C   UNL     1       1.245   2.752  20.636  0.00  0.00    +0.000 C 
ATOM     24  C   UNL     1       2.339   2.848  21.698  0.00  0.00    +0.000 C 
ATOM     25  C   UNL     1       0.774   4.145  20.221  0.00  0.00    +0.000 C 
ENDBRANCH  22  23
ENDBRANCH  21  22
ENDBRANCH  19  21
ENDBRANCH  18  19
BRANCH  18  26
ATOM     26  C   UNL     1       5.473   4.315  17.321  0.00  0.00    +0.000 C 
BRANCH  26  27
ATOM     27  N   UNL     1       6.015   4.355  15.984  0.00  0.00    +0.000 N 
ATOM     28  C   UNL     1       7.166   4.986  15.602  0.00  0.00    +0.000 A 
ATOM     29  C   UNL     1       7.194   4.857  14.231  0.00  0.00    +0.000 A 
ATOM     30  N   UNL     1       6.124   4.120  13.790  0.00  0.00    +0.000 NA
ATOM     31  C   UNL     1       5.453   3.804  14.870  0.00  0.00    +0.000 A 
ENDBRANCH  26  27
ENDBRANCH  18  26
ENDBRANCH   3  18
TORSDOF 9
ENDMDL
MODEL 9
REMARK VINA RESULT:      -8.2      1.786      4.250
REMARK  Name = 
REMARK  12 active torsions:
REMARK  status: ('A' for Active; 'I' for Inactive)
REMARK    1  A    between atoms: C_1  and  C_2
REMARK    2  A    between atoms: C_4  and  C_5
REMARK    3  A    between atoms: N_7  and  C_8
REMARK    4  A    between atoms: C_8  and  C_9
REMARK    5  A    between atoms: C_8  and  C_15
REMARK    6  A    between atoms: C_9  and  N_10
REMARK    7  A    between atoms: C_15  and  O_17
REMARK    8  A    between atoms: O_17  and  C_18
REMARK    9  A    between atoms: C_18  and  C_19
REMARK   10  A    between atoms: C_19  and  C_20
REMARK   11  A    between atoms: C_19  and  C_21
REMARK   12  A    between atoms: C_24  and  C_25
REMARK                            x       y       z     vdW  Elec       q    Type
REMARK                         _______ _______ _______ _____ _____    ______ ____
ROOT
ATOM      1  C   UNL     1       3.441   6.218  18.691  0.00  0.00    +0.000 C 
ATOM      2  O   UNL     1       4.037   5.769  19.662  0.00  0.00    +0.000 OA
ATOM      3  N   UNL     1       3.538   5.665  17.435  0.00  0.00    +0.000 N 
ATOM      4  H   UNL     1       2.960   6.010  16.678  0.00  0.00    +0.000 HD
ENDROOT
BRANCH   1   8
ATOM      5  C   UNL     1       0.543   8.845  21.715  0.00  0.00    +0.000 C 
ATOM      6  C   UNL     1       1.126   8.729  20.328  0.00  0.00    +0.000 A 
ATOM      7  C   UNL     1       1.974   7.624  20.103  0.00  0.00    +0.000 A 
ATOM      8  C   UNL     1       2.520   7.372  18.843  0.00  0.00    +0.000 A 
ATOM      9  C   UNL     1       2.222   8.221  17.785  0.00  0.00    +0.000 A 
ATOM     10  C   UNL     1       1.425   9.349  18.011  0.00  0.00    +0.000 A 
ATOM     11  C   UNL     1       0.880   9.659  19.283  0.00  0.00    +0.000 A 
BRANCH  11  12
ATOM     12  C   UNL     1       0.143  10.950  19.450  0.00  0.00    +0.000 A 
ATOM     13  C   UNL     1      -1.220  11.077  19.111  0.00  0.00    +0.000 A 
ATOM     14  C   UNL     1      -1.890  12.306  19.193  0.00  0.00    +0.000 A 
ATOM     15  C   UNL     1      -1.229  13.435  19.664  0.00  0.00    +0.000 A 
ATOM     16  C   UNL     1       0.110  13.342  20.015  0.00  0.00    +0.000 A 
ATOM     17  C   UNL     1       0.787  12.125  19.876  0.00  0.00    +0.000 A 
ENDBRANCH  11  12
ENDBRANCH   1   8
BRANCH   3  18
ATOM     18  C   UNL     1       4.379   4.495  17.170  0.00  0.00    +0.000 C 
BRANCH  18  19
ATOM     19  C   UNL     1       5.285   4.681  15.945  0.00  0.00    +0.000 C 
ATOM     20  O   UNL     1       5.081   4.158  14.857  0.00  0.00    +0.000 OA
BRANCH  19  21
ATOM     21  O   UNL     1       6.422   5.368  16.272  0.00  0.00    +0.000 OA
BRANCH  21  22
ATOM     22  C   UNL     1       7.031   4.966  17.511  0.00  0.00    +0.000 C 
BRANCH  22  23
ATOM     23  C   UNL     1       7.228   6.135  18.484  0.00  0.00    +0.000 C 
ATOM     24  C   UNL     1       8.173   5.760  19.624  0.00  0.00    +0.000 C 
ATOM     25  C   UNL     1       7.753   7.353  17.727  0.00  0.00    +0.000 C 
ENDBRANCH  22  23
ENDBRANCH  21  22
ENDBRANCH  19  21
ENDBRANCH  18  19
BRANCH  18  26
ATOM     26  C   UNL     1       3.611   3.164  17.074  0.00  0.00    +0.000 C 
BRANCH  26  27
ATOM     27  N   UNL     1       2.724   2.942  18.190  0.00  0.00    +0.000 N 
ATOM     28  C   UNL     1       3.077   2.432  19.408  0.00  0.00    +0.000 A 
ATOM     29  C   UNL     1       1.885   2.288  20.084  0.00  0.00    +0.000 A 
ATOM     30  N   UNL     1       0.838   2.750  19.326  0.00  0.00    +0.000 NA
ATOM     31  C   UNL     1       1.378   3.169  18.209  0.00  0.00    +0.000 A 
ENDBRANCH  26  27
ENDBRANCH  18  26
ENDBRANCH   3  18
TORSDOF 9
ENDMDL
