MODEL 1
REMARK VINA RESULT:      -6.1      0.000      0.000
REMARK  Name = 
REMARK  13 active torsions:
REMARK  status: ('A' for Active; 'I' for Inactive)
REMARK    1  A    between atoms: C_1  and  C_2
REMARK    2  A    between atoms: C_2  and  O_3
REMARK    3  A    between atoms: O_3  and  C_4
REMARK    4  A    between atoms: C_7  and  C_8
REMARK    5  A    between atoms: C_8  and  C_9
REMARK    6  A    between atoms: C_9  and  N_10
REMARK    7  A    between atoms: C_11  and  C_13
REMARK    8  A    between atoms: C_13  and  N_14
REMARK    9  A    between atoms: N_14  and  C_15
REMARK   10  A    between atoms: N_14  and  C_16
REMARK   11  A    between atoms: C_18  and  O_19
REMARK   12  A    between atoms: O_19  and  C_20
REMARK   13  A    between atoms: C_20  and  C_21
REMARK                            x       y       z     vdW  Elec       q    Type
REMARK                         _______ _______ _______ _____ _____    ______ ____
ROOT
ATOM      1  C   UNL     1       3.220   5.237  19.573  0.00  0.00    +0.000 A 
ATOM      2  C   UNL     1       2.304   6.123  20.163  0.00  0.00    +0.000 A 
ATOM      3  C   UNL     1       1.974   7.329  19.541  0.00  0.00    +0.000 A 
ATOM      4  C   UNL     1       2.565   7.689  18.327  0.00  0.00    +0.000 A 
ATOM      5  C   UNL     1       3.557   6.847  17.804  0.00  0.00    +0.000 A 
ATOM      6  C   UNL     1       3.902   5.638  18.422  0.00  0.00    +0.000 A 
ENDROOT
BRANCH   1   7
ATOM      7  O   UNL     1       3.447   3.985  20.083  0.00  0.00    +0.000 OA
BRANCH   7   9
ATOM      8  C   UNL     1       1.967   2.785  21.535  0.00  0.00    +0.000 C 
ATOM      9  C   UNL     1       2.315   3.110  20.095  0.00  0.00    +0.000 C 
ENDBRANCH   7   9
ENDBRANCH   1   7
BRANCH   4  10
ATOM     10  C   UNL     1       2.148   8.976  17.654  0.00  0.00    +0.000 C 
BRANCH  10  11
ATOM     11  C   UNL     1       1.102   9.786  18.419  0.00  0.00    +0.000 C 
BRANCH  11  12
ATOM     12  N   UNL     1      -0.187   9.788  17.764  0.00  0.00    +0.000 N 
ATOM     13  C   UNL     1      -1.314  10.284  18.378  0.00  0.00    +0.000 C 
ATOM     14  O   UNL     1      -1.285  10.932  19.420  0.00  0.00    +0.000 OA
ATOM     15  H   UNL     1      -0.345   9.209  16.941  0.00  0.00    +0.000 HD
BRANCH  13  16
ATOM     16  C   UNL     1      -2.621  10.011  17.629  0.00  0.00    +0.000 C 
BRANCH  16  17
ATOM     17  N   UNL     1      -2.935  11.051  16.608  0.00  0.00    +0.000 NA
ATOM     18  C   UNL     1      -2.747  10.531  15.244  0.00  0.00    +0.000 C 
ATOM     19  C   UNL     1      -4.342  11.442  16.770  0.00  0.00    +0.000 C 
ENDBRANCH  16  17
ENDBRANCH  13  16
ENDBRANCH  11  12
ENDBRANCH  10  11
ENDBRANCH   4  10
BRANCH   6  20
ATOM     20  O   UNL     1       4.883   4.958  17.740  0.00  0.00    +0.000 OA
BRANCH  20  21
ATOM     21  C   UNL     1       4.472   4.123  16.661  0.00  0.00    +0.000 C 
ATOM     22  C   UNL     1       5.620   4.038  15.667  0.00  0.00    +0.000 C 
ENDBRANCH  20  21
ENDBRANCH   6  20
TORSDOF 9
ENDMDL
MODEL 2
REMARK VINA RESULT:      -6.0      5.396      7.706
REMARK  Name = 
REMARK  13 active torsions:
REMARK  status: ('A' for Active; 'I' for Inactive)
REMARK    1  A    between atoms: C_1  and  C_2
REMARK    2  A    between atoms: C_2  and  O_3
REMARK    3  A    between atoms: O_3  and  C_4
REMARK    4  A    between atoms: C_7  and  C_8
REMARK    5  A    between atoms: C_8  and  C_9
REMARK    6  A    between atoms: C_9  and  N_10
REMARK    7  A    between atoms: C_11  and  C_13
REMARK    8  A    between atoms: C_13  and  N_14
REMARK    9  A    between atoms: N_14  and  C_15
REMARK   10  A    between atoms: N_14  and  C_16
REMARK   11  A    between atoms: C_18  and  O_19
REMARK   12  A    between atoms: O_19  and  C_20
REMARK   13  A    between atoms: C_20  and  C_21
REMARK                            x       y       z     vdW  Elec       q    Type
REMARK                         _______ _______ _______ _____ _____    ______ ____
ROOT
ATOM      1  C   UNL     1       3.671   5.007  19.421  0.00  0.00    +0.000 A 
ATOM      2  C   UNL     1       3.794   6.309  18.910  0.00  0.00    +0.000 A 
ATOM      3  C   UNL     1       4.361   6.535  17.655  0.00  0.00    +0.000 A 
ATOM      4  C   UNL     1       4.837   5.469  16.887  0.00  0.00    +0.000 A 
ATOM      5  C   UNL     1       4.807   4.186  17.453  0.00  0.00    +0.000 A 
ATOM      6  C   UNL     1       4.246   3.947  18.716  0.00  0.00    +0.000 A 
ENDROOT
BRANCH   1   7
ATOM      7  O   UNL     1       2.984   4.744  20.579  0.00  0.00    +0.000 OA
BRANCH   7   9
ATOM      8  C   UNL     1       0.782   3.820  20.383  0.00  0.00    +0.000 C 
ATOM      9  C   UNL     1       1.595   5.088  20.562  0.00  0.00    +0.000 C 
ENDBRANCH   7   9
ENDBRANCH   1   7
BRANCH   4  10
ATOM     10  C   UNL     1       5.398   5.740  15.511  0.00  0.00    +0.000 C 
BRANCH  10  11
ATOM     11  C   UNL     1       6.762   5.106  15.241  0.00  0.00    +0.000 C 
BRANCH  11  12
ATOM     12  N   UNL     1       6.739   4.195  14.119  0.00  0.00    +0.000 N 
ATOM     13  C   UNL     1       7.224   4.553  12.882  0.00  0.00    +0.000 C 
ATOM     14  O   UNL     1       7.882   5.570  12.683  0.00  0.00    +0.000 OA
ATOM     15  H   UNL     1       6.150   3.364  14.145  0.00  0.00    +0.000 HD
BRANCH  13  16
ATOM     16  C   UNL     1       6.924   3.550  11.765  0.00  0.00    +0.000 C 
BRANCH  16  17
ATOM     17  N   UNL     1       5.700   2.739  12.024  0.00  0.00    +0.000 NA
ATOM     18  C   UNL     1       4.506   3.384  11.455  0.00  0.00    +0.000 C 
ATOM     19  C   UNL     1       5.874   1.428  11.385  0.00  0.00    +0.000 C 
ENDBRANCH  16  17
ENDBRANCH  13  16
ENDBRANCH  11  12
ENDBRANCH  10  11
ENDBRANCH   4  10
BRANCH   6  20
ATOM     20  O   UNL     1       4.303   2.622  19.076  0.00  0.00    +0.000 OA
BRANCH  20  21
ATOM     21  C   UNL     1       3.743   1.673  18.174  0.00  0.00    +0.000 C 
ATOM     22  C   UNL     1       2.228   1.776  18.260  0.00  0.00    +0.000 C 
ENDBRANCH  20  21
ENDBRANCH   6  20
TORSDOF 9
ENDMDL
MODEL 3
REMARK VINA RESULT:      -5.9      1.899      3.252
REMARK  Name = 
REMARK  13 active torsions:
REMARK  status: ('A' for Active; 'I' for Inactive)
REMARK    1  A    between atoms: C_1  and  C_2
REMARK    2  A    between atoms: C_2  and  O_3
REMARK    3  A    between atoms: O_3  and  C_4
REMARK    4  A    between atoms: C_7  and  C_8
REMARK    5  A    between atoms: C_8  and  C_9
REMARK    6  A    between atoms: C_9  and  N_10
REMARK    7  A    between atoms: C_11  and  C_13
REMARK    8  A    between atoms: C_13  and  N_14
REMARK    9  A    between atoms: N_14  and  C_15
REMARK   10  A    between atoms: N_14  and  C_16
REMARK   11  A    between atoms: C_18  and  O_19
REMARK   12  A    between atoms: O_19  and  C_20
REMARK   13  A    between atoms: C_20  and  C_21
REMARK                            x       y       z     vdW  Elec       q    Type
REMARK                         _______ _______ _______ _____ _____    ______ ____
ROOT
ATOM      1  C   UNL     1       4.620   5.108  16.887  0.00  0.00    +0.000 A 
ATOM      2  C   UNL     1       3.396   4.769  17.487  0.00  0.00    +0.000 A 
ATOM      3  C   UNL     1       2.590   5.748  18.070  0.00  0.00    +0.000 A 
ATOM      4  C   UNL     1       2.994   7.085  18.086  0.00  0.00    +0.000 A 
ATOM      5  C   UNL     1       4.264   7.395  17.581  0.00  0.00    +0.000 A 
ATOM      6  C   UNL     1       5.086   6.420  16.999  0.00  0.00    +0.000 A 
ENDROOT
BRANCH   1   7
ATOM      7  O   UNL     1       5.356   4.195  16.177  0.00  0.00    +0.000 OA
BRANCH   7   9
ATOM      8  C   UNL     1       6.705   4.459  14.214  0.00  0.00    +0.000 C 
ATOM      9  C   UNL     1       5.294   4.326  14.754  0.00  0.00    +0.000 C 
ENDBRANCH   7   9
ENDBRANCH   1   7
BRANCH   4  10
ATOM     10  C   UNL     1       2.075   8.129  18.679  0.00  0.00    +0.000 C 
BRANCH  10  11
ATOM     11  C   UNL     1       1.704   9.266  17.728  0.00  0.00    +0.000 C 
BRANCH  11  12
ATOM     12  N   UNL     1       0.274   9.413  17.570  0.00  0.00    +0.000 N 
ATOM     13  C   UNL     1      -0.439  10.369  18.257  0.00  0.00    +0.000 C 
ATOM     14  O   UNL     1       0.089  11.281  18.887  0.00  0.00    +0.000 OA
ATOM     15  H   UNL     1      -0.274   8.669  17.142  0.00  0.00    +0.000 HD
BRANCH  13  16
ATOM     16  C   UNL     1      -1.959  10.241  18.135  0.00  0.00    +0.000 C 
BRANCH  16  17
ATOM     17  N   UNL     1      -2.565  11.304  17.284  0.00  0.00    +0.000 NA
ATOM     18  C   UNL     1      -2.684  10.863  15.885  0.00  0.00    +0.000 C 
ATOM     19  C   UNL     1      -3.910  11.594  17.800  0.00  0.00    +0.000 C 
ENDBRANCH  16  17
ENDBRANCH  13  16
ENDBRANCH  11  12
ENDBRANCH  10  11
ENDBRANCH   4  10
BRANCH   6  20
ATOM     20  O   UNL     1       6.281   6.934  16.553  0.00  0.00    +0.000 OA
BRANCH  20  21
ATOM     21  C   UNL     1       7.080   7.644  17.494  0.00  0.00    +0.000 C 
ATOM     22  C   UNL     1       7.788   6.626  18.374  0.00  0.00    +0.000 C 
ENDBRANCH  20  21
ENDBRANCH   6  20
TORSDOF 9
ENDMDL
MODEL 4
REMARK VINA RESULT:      -5.8      6.542      7.920
REMARK  Name = 
REMARK  13 active torsions:
REMARK  status: ('A' for Active; 'I' for Inactive)
REMARK    1  A    between atoms: C_1  and  C_2
REMARK    2  A    between atoms: C_2  and  O_3
REMARK    3  A    between atoms: O_3  and  C_4
REMARK    4  A    between atoms: C_7  and  C_8
REMARK    5  A    between atoms: C_8  and  C_9
REMARK    6  A    between atoms: C_9  and  N_10
REMARK    7  A    between atoms: C_11  and  C_13
REMARK    8  A    between atoms: C_13  and  N_14
REMARK    9  A    between atoms: N_14  and  C_15
REMARK   10  A    between atoms: N_14  and  C_16
REMARK   11  A    between atoms: C_18  and  O_19
REMARK   12  A    between atoms: O_19  and  C_20
REMARK   13  A    between atoms: C_20  and  C_21
REMARK                            x       y       z     vdW  Elec       q    Type
REMARK                         _______ _______ _______ _____ _____    ______ ____
ROOT
ATOM      1  C   UNL     1       6.765   5.198  18.255  0.00  0.00    +0.000 A 
ATOM      2  C   UNL     1       7.810   5.700  19.049  0.00  0.00    +0.000 A 
ATOM      3  C   UNL     1       8.273   7.006  18.880  0.00  0.00    +0.000 A 
ATOM      4  C   UNL     1       7.720   7.836  17.902  0.00  0.00    +0.000 A 
ATOM      5  C   UNL     1       6.753   7.290  17.046  0.00  0.00    +0.000 A 
ATOM      6  C   UNL     1       6.285   5.978  17.200  0.00  0.00    +0.000 A 
ENDROOT
BRANCH   1   7
ATOM      7  O   UNL     1       6.191   3.977  18.500  0.00  0.00    +0.000 OA
BRANCH   7   9
ATOM      8  C   UNL     1       3.975   3.066  18.520  0.00  0.00    +0.000 C 
ATOM      9  C   UNL     1       4.945   4.013  19.202  0.00  0.00    +0.000 C 
ENDBRANCH   7   9
ENDBRANCH   1   7
BRANCH   4  10
ATOM     10  C   UNL     1       8.207   9.261  17.778  0.00  0.00    +0.000 C 
BRANCH  10  11
ATOM     11  C   UNL     1       9.118   9.724  18.915  0.00  0.00    +0.000 C 
BRANCH  11  12
ATOM     12  N   UNL     1       9.114  11.161  19.080  0.00  0.00    +0.000 N 
ATOM     13  C   UNL     1      10.076  11.962  18.509  0.00  0.00    +0.000 C 
ATOM     14  O   UNL     1      10.878  11.560  17.670  0.00  0.00    +0.000 OA
ATOM     15  H   UNL     1       8.552  11.591  19.812  0.00  0.00    +0.000 HD
BRANCH  13  16
ATOM     16  C   UNL     1      10.041  13.423  18.963  0.00  0.00    +0.000 C 
BRANCH  16  17
ATOM     17  N   UNL     1       8.657  13.960  19.088  0.00  0.00    +0.000 NA
ATOM     18  C   UNL     1       8.446  14.584  20.404  0.00  0.00    +0.000 C 
ATOM     19  C   UNL     1       8.464  14.981  18.049  0.00  0.00    +0.000 C 
ENDBRANCH  16  17
ENDBRANCH  13  16
ENDBRANCH  11  12
ENDBRANCH  10  11
ENDBRANCH   4  10
BRANCH   6  20
ATOM     20  O   UNL     1       5.330   5.645  16.270  0.00  0.00    +0.000 OA
BRANCH  20  21
ATOM     21  C   UNL     1       5.779   5.316  14.959  0.00  0.00    +0.000 C 
ATOM     22  C   UNL     1       5.959   3.807  14.887  0.00  0.00    +0.000 C 
ENDBRANCH  20  21
ENDBRANCH   6  20
TORSDOF 9
ENDMDL
MODEL 5
REMARK VINA RESULT:      -5.8      2.607      4.367
REMARK  Name = 
REMARK  13 active torsions:
REMARK  status: ('A' for Active; 'I' for Inactive)
REMARK    1  A    between atoms: C_1  and  C_2
REMARK    2  A    between atoms: C_2  and  O_3
REMARK    3  A    between atoms: O_3  and  C_4
REMARK    4  A    between atoms: C_7  and  C_8
REMARK    5  A    between atoms: C_8  and  C_9
REMARK    6  A    between atoms: C_9  and  N_10
REMARK    7  A    between atoms: C_11  and  C_13
REMARK    8  A    between atoms: C_13  and  N_14
REMARK    9  A    between atoms: N_14  and  C_15
REMARK   10  A    between atoms: N_14  and  C_16
REMARK   11  A    between atoms: C_18  and  O_19
REMARK   12  A    between atoms: O_19  and  C_20
REMARK   13  A    between atoms: C_20  and  C_21
REMARK                            x       y       z     vdW  Elec       q    Type
REMARK                         _______ _______ _______ _____ _____    ______ ____
ROOT
ATOM      1  C   UNL     1       5.386   4.471  16.449  0.00  0.00    +0.000 A 
ATOM      2  C   UNL     1       4.290   3.723  16.909  0.00  0.00    +0.000 A 
ATOM      3  C   UNL     1       3.229   4.342  17.573  0.00  0.00    +0.000 A 
ATOM      4  C   UNL     1       3.246   5.719  17.812  0.00  0.00    +0.000 A 
ATOM      5  C   UNL     1       4.393   6.436  17.444  0.00  0.00    +0.000 A 
ATOM      6  C   UNL     1       5.467   5.825  16.783  0.00  0.00    +0.000 A 
ENDROOT
BRANCH   1   7
ATOM      7  O   UNL     1       6.364   3.917  15.664  0.00  0.00    +0.000 OA
BRANCH   7   9
ATOM      8  C   UNL     1       7.284   4.822  13.645  0.00  0.00    +0.000 C 
ATOM      9  C   UNL     1       6.151   4.016  14.253  0.00  0.00    +0.000 C 
ENDBRANCH   7   9
ENDBRANCH   1   7
BRANCH   4  10
ATOM     10  C   UNL     1       2.060   6.367  18.488  0.00  0.00    +0.000 C 
BRANCH  10  11
ATOM     11  C   UNL     1       2.418   7.348  19.603  0.00  0.00    +0.000 C 
BRANCH  11  12
ATOM     12  N   UNL     1       1.637   8.564  19.545  0.00  0.00    +0.000 N 
ATOM     13  C   UNL     1       0.871   8.987  20.607  0.00  0.00    +0.000 C 
ATOM     14  O   UNL     1       0.942   8.494  21.729  0.00  0.00    +0.000 OA
ATOM     15  H   UNL     1       1.440   9.004  18.648  0.00  0.00    +0.000 HD
BRANCH  13  16
ATOM     16  C   UNL     1      -0.052  10.168  20.297  0.00  0.00    +0.000 C 
BRANCH  16  17
ATOM     17  N   UNL     1      -0.016  10.573  18.863  0.00  0.00    +0.000 NA
ATOM     18  C   UNL     1      -1.303  10.303  18.203  0.00  0.00    +0.000 C 
ATOM     19  C   UNL     1       0.249  12.016  18.799  0.00  0.00    +0.000 C 
ENDBRANCH  16  17
ENDBRANCH  13  16
ENDBRANCH  11  12
ENDBRANCH  10  11
ENDBRANCH   4  10
BRANCH   6  20
ATOM     20  O   UNL     1       6.483   6.707  16.499  0.00  0.00    +0.000 OA
BRANCH  20  21
ATOM     21  C   UNL     1       7.542   6.814  17.445  0.00  0.00    +0.000 C 
ATOM     22  C   UNL     1       7.886   8.287  17.604  0.00  0.00    +0.000 C 
ENDBRANCH  20  21
ENDBRANCH   6  20
TORSDOF 9
ENDMDL
MODEL 6
REMARK VINA RESULT:      -5.8      1.248      2.980
REMARK  Name = 
REMARK  13 active torsions:
REMARK  status: ('A' for Active; 'I' for Inactive)
REMARK    1  A    between atoms: C_1  and  C_2
REMARK    2  A    between atoms: C_2  and  O_3
REMARK    3  A    between atoms: O_3  and  C_4
REMARK    4  A    between atoms: C_7  and  C_8
REMARK    5  A    between atoms: C_8  and  C_9
REMARK    6  A    between atoms: C_9  and  N_10
REMARK    7  A    between atoms: C_11  and  C_13
REMARK    8  A    between atoms: C_13  and  N_14
REMARK    9  A    between atoms: N_14  and  C_15
REMARK   10  A    between atoms: N_14  and  C_16
REMARK   11  A    between atoms: C_18  and  O_19
REMARK   12  A    between atoms: O_19  and  C_20
REMARK   13  A    between atoms: C_20  and  C_21
REMARK                            x       y       z     vdW  Elec       q    Type
REMARK                         _______ _______ _______ _____ _____    ______ ____
ROOT
ATOM      1  C   UNL     1       3.697   5.730  18.607  0.00  0.00    +0.000 A 
ATOM      2  C   UNL     1       3.629   6.840  17.749  0.00  0.00    +0.000 A 
ATOM      3  C   UNL     1       2.819   7.934  18.058  0.00  0.00    +0.000 A 
ATOM      4  C   UNL     1       2.043   7.940  19.219  0.00  0.00    +0.000 A 
ATOM      5  C   UNL     1       2.036   6.783  20.012  0.00  0.00    +0.000 A 
ATOM      6  C   UNL     1       2.840   5.674  19.709  0.00  0.00    +0.000 A 
ENDROOT
BRANCH   1   7
ATOM      7  O   UNL     1       4.594   4.713  18.407  0.00  0.00    +0.000 OA
BRANCH   7   9
ATOM      8  C   UNL     1       6.777   5.446  19.068  0.00  0.00    +0.000 C 
ATOM      9  C   UNL     1       5.872   5.110  17.899  0.00  0.00    +0.000 C 
ENDBRANCH   7   9
ENDBRANCH   1   7
BRANCH   4  10
ATOM     10  C   UNL     1       1.217   9.161  19.552  0.00  0.00    +0.000 C 
BRANCH  10  11
ATOM     11  C   UNL     1       1.424  10.347  18.611  0.00  0.00    +0.000 C 
BRANCH  11  12
ATOM     12  N   UNL     1       0.217  10.712  17.904  0.00  0.00    +0.000 N 
ATOM     13  C   UNL     1      -0.716  11.565  18.449  0.00  0.00    +0.000 C 
ATOM     14  O   UNL     1      -0.513  12.227  19.463  0.00  0.00    +0.000 OA
ATOM     15  H   UNL     1      -0.093  10.166  17.101  0.00  0.00    +0.000 HD
BRANCH  13  16
ATOM     16  C   UNL     1      -2.023  11.669  17.661  0.00  0.00    +0.000 C 
BRANCH  16  17
ATOM     17  N   UNL     1      -2.333  10.436  16.883  0.00  0.00    +0.000 NA
ATOM     18  C   UNL     1      -3.349   9.618  17.565  0.00  0.00    +0.000 C 
ATOM     19  C   UNL     1      -2.860  10.840  15.572  0.00  0.00    +0.000 C 
ENDBRANCH  16  17
ENDBRANCH  13  16
ENDBRANCH  11  12
ENDBRANCH  10  11
ENDBRANCH   4  10
BRANCH   6  20
ATOM     20  O   UNL     1       2.696   4.654  20.619  0.00  0.00    +0.000 OA
BRANCH  20  21
ATOM     21  C   UNL     1       1.399   4.084  20.764  0.00  0.00    +0.000 C 
ATOM     22  C   UNL     1       1.137   3.194  19.559  0.00  0.00    +0.000 C 
ENDBRANCH  20  21
ENDBRANCH   6  20
TORSDOF 9
ENDMDL
MODEL 7
REMARK VINA RESULT:      -5.7      4.266      6.220
REMARK  Name = 
REMARK  13 active torsions:
REMARK  status: ('A' for Active; 'I' for Inactive)
REMARK    1  A    between atoms: C_1  and  C_2
REMARK    2  A    between atoms: C_2  and  O_3
REMARK    3  A    between atoms: O_3  and  C_4
REMARK    4  A    between atoms: C_7  and  C_8
REMARK    5  A    between atoms: C_8  and  C_9
REMARK    6  A    between atoms: C_9  and  N_10
REMARK    7  A    between atoms: C_11  and  C_13
REMARK    8  A    between atoms: C_13  and  N_14
REMARK    9  A    between atoms: N_14  and  C_15
REMARK   10  A    between atoms: N_14  and  C_16
REMARK   11  A    between atoms: C_18  and  O_19
REMARK   12  A    between atoms: O_19  and  C_20
REMARK   13  A    between atoms: C_20  and  C_21
REMARK                            x       y       z     vdW  Elec       q    Type
REMARK                         _______ _______ _______ _____ _____    ______ ____
ROOT
ATOM      1  C   UNL     1       6.678   5.686  17.330  0.00  0.00    +0.000 A 
ATOM      2  C   UNL     1       6.341   5.261  18.625  0.00  0.00    +0.000 A 
ATOM      3  C   UNL     1       5.383   4.266  18.825  0.00  0.00    +0.000 A 
ATOM      4  C   UNL     1       4.725   3.683  17.739  0.00  0.00    +0.000 A 
ATOM      5  C   UNL     1       4.992   4.190  16.459  0.00  0.00    +0.000 A 
ATOM      6  C   UNL     1       5.946   5.195  16.246  0.00  0.00    +0.000 A 
ENDROOT
BRANCH   1   7
ATOM      7  O   UNL     1       7.717   6.550  17.098  0.00  0.00    +0.000 OA
BRANCH   7   9
ATOM      8  C   UNL     1       7.923   8.871  17.656  0.00  0.00    +0.000 C 
ATOM      9  C   UNL     1       8.023   7.447  18.169  0.00  0.00    +0.000 C 
ENDBRANCH   7   9
ENDBRANCH   1   7
BRANCH   4  10
ATOM     10  C   UNL     1       3.731   2.571  17.985  0.00  0.00    +0.000 C 
BRANCH  10  11
ATOM     11  C   UNL     1       3.451   2.281  19.459  0.00  0.00    +0.000 C 
BRANCH  11  12
ATOM     12  N   UNL     1       2.894   3.421  20.153  0.00  0.00    +0.000 N 
ATOM     13  C   UNL     1       1.622   3.879  19.894  0.00  0.00    +0.000 C 
ATOM     14  O   UNL     1       0.805   3.257  19.222  0.00  0.00    +0.000 OA
ATOM     15  H   UNL     1       3.502   4.057  20.665  0.00  0.00    +0.000 HD
BRANCH  13  16
ATOM     16  C   UNL     1       1.279   5.215  20.558  0.00  0.00    +0.000 C 
BRANCH  16  17
ATOM     17  N   UNL     1       2.215   6.311  20.178  0.00  0.00    +0.000 NA
ATOM     18  C   UNL     1       2.335   6.425  18.716  0.00  0.00    +0.000 C 
ATOM     19  C   UNL     1       1.679   7.574  20.703  0.00  0.00    +0.000 C 
ENDBRANCH  16  17
ENDBRANCH  13  16
ENDBRANCH  11  12
ENDBRANCH  10  11
ENDBRANCH   4  10
BRANCH   6  20
ATOM     20  O   UNL     1       6.065   5.537  14.920  0.00  0.00    +0.000 OA
BRANCH  20  21
ATOM     21  C   UNL     1       7.016   4.818  14.141  0.00  0.00    +0.000 C 
ATOM     22  C   UNL     1       6.258   3.840  13.256  0.00  0.00    +0.000 C 
ENDBRANCH  20  21
ENDBRANCH   6  20
TORSDOF 9
ENDMDL
MODEL 8
REMARK VINA RESULT:      -5.7      3.354      4.494
REMARK  Name = 
REMARK  13 active torsions:
REMARK  status: ('A' for Active; 'I' for Inactive)
REMARK    1  A    between atoms: C_1  and  C_2
REMARK    2  A    between atoms: C_2  and  O_3
REMARK    3  A    between atoms: O_3  and  C_4
REMARK    4  A    between atoms: C_7  and  C_8
REMARK    5  A    between atoms: C_8  and  C_9
REMARK    6  A    between atoms: C_9  and  N_10
REMARK    7  A    between atoms: C_11  and  C_13
REMARK    8  A    between atoms: C_13  and  N_14
REMARK    9  A    between atoms: N_14  and  C_15
REMARK   10  A    between atoms: N_14  and  C_16
REMARK   11  A    between atoms: C_18  and  O_19
REMARK   12  A    between atoms: O_19  and  C_20
REMARK   13  A    between atoms: C_20  and  C_21
REMARK                            x       y       z     vdW  Elec       q    Type
REMARK                         _______ _______ _______ _____ _____    ______ ____
ROOT
ATOM      1  C   UNL     1       5.123   5.132  17.190  0.00  0.00    +0.000 A 
ATOM      2  C   UNL     1       3.900   4.700  17.730  0.00  0.00    +0.000 A 
ATOM      3  C   UNL     1       2.908   5.618  18.080  0.00  0.00    +0.000 A 
ATOM      4  C   UNL     1       3.120   6.990  17.918  0.00  0.00    +0.000 A 
ATOM      5  C   UNL     1       4.382   7.414  17.479  0.00  0.00    +0.000 A 
ATOM      6  C   UNL     1       5.389   6.502  17.132  0.00  0.00    +0.000 A 
ENDROOT
BRANCH   1   7
ATOM      7  O   UNL     1       6.050   4.249  16.699  0.00  0.00    +0.000 OA
BRANCH   7   9
ATOM      8  C   UNL     1       6.710   4.391  14.400  0.00  0.00    +0.000 C 
ATOM      9  C   UNL     1       5.775   3.729  15.395  0.00  0.00    +0.000 C 
ENDBRANCH   7   9
ENDBRANCH   1   7
BRANCH   4  10
ATOM     10  C   UNL     1       2.007   7.955  18.257  0.00  0.00    +0.000 C 
BRANCH  10  11
ATOM     11  C   UNL     1       1.757   8.140  19.753  0.00  0.00    +0.000 C 
BRANCH  11  12
ATOM     12  N   UNL     1       0.981   9.325  20.044  0.00  0.00    +0.000 N 
ATOM     13  C   UNL     1       0.862   9.821  21.322  0.00  0.00    +0.000 C 
ATOM     14  O   UNL     1       1.547   9.431  22.264  0.00  0.00    +0.000 OA
ATOM     15  H   UNL     1       0.311   9.679  19.363  0.00  0.00    +0.000 HD
BRANCH  13  16
ATOM     16  C   UNL     1      -0.165  10.945  21.477  0.00  0.00    +0.000 C 
BRANCH  16  17
ATOM     17  N   UNL     1       0.458  12.265  21.778  0.00  0.00    +0.000 NA
ATOM     18  C   UNL     1       1.048  12.863  20.569  0.00  0.00    +0.000 C 
ATOM     19  C   UNL     1      -0.590  13.164  22.281  0.00  0.00    +0.000 C 
ENDBRANCH  16  17
ENDBRANCH  13  16
ENDBRANCH  11  12
ENDBRANCH  10  11
ENDBRANCH   4  10
BRANCH   6  20
ATOM     20  O   UNL     1       6.541   7.123  16.713  0.00  0.00    +0.000 OA
BRANCH  20  21
ATOM     21  C   UNL     1       7.603   7.237  17.655  0.00  0.00    +0.000 C 
ATOM     22  C   UNL     1       7.981   8.706  17.765  0.00  0.00    +0.000 C 
ENDBRANCH  20  21
ENDBRANCH   6  20
TORSDOF 9
ENDMDL
MODEL 9
REMARK VINA RESULT:      -5.7      2.585      4.074
REMARK  Name = 
REMARK  13 active torsions:
REMARK  status: ('A' for Active; 'I' for Inactive)
REMARK    1  A    between atoms: C_1  and  C_2
REMARK    2  A    between atoms: C_2  and  O_3
REMARK    3  A    between atoms: O_3  and  C_4
REMARK    4  A    between atoms: C_7  and  C_8
REMARK    5  A    between atoms: C_8  and  C_9
REMARK    6  A    between atoms: C_9  and  N_10
REMARK    7  A    between atoms: C_11  and  C_13
REMARK    8  A    between atoms: C_13  and  N_14
REMARK    9  A    between atoms: N_14  and  C_15
REMARK   10  A    between atoms: N_14  and  C_16
REMARK   11  A    between atoms: C_18  and  O_19
REMARK   12  A    between atoms: O_19  and  C_20
REMARK   13  A    between atoms: C_20  and  C_21
REMARK                            x       y       z     vdW  Elec       q    Type
REMARK                         _______ _______ _______ _____ _____    ______ ____
ROOT
ATOM      1  C   UNL     1       5.494   5.118  16.773  0.00  0.00    +0.000 A 
ATOM      2  C   UNL     1       4.316   4.487  17.206  0.00  0.00    +0.000 A 
ATOM      3  C   UNL     1       3.254   5.232  17.720  0.00  0.00    +0.000 A 
ATOM      4  C   UNL     1       3.348   6.621  17.833  0.00  0.00    +0.000 A 
ATOM      5  C   UNL     1       4.567   7.227  17.499  0.00  0.00    +0.000 A 
ATOM      6  C   UNL     1       5.644   6.490  16.988  0.00  0.00    +0.000 A 
ENDROOT
BRANCH   1   7
ATOM      7  O   UNL     1       6.489   4.430  16.127  0.00  0.00    +0.000 OA
BRANCH   7   9
ATOM      8  C   UNL     1       6.473   4.284  13.735  0.00  0.00    +0.000 C 
ATOM      9  C   UNL     1       6.062   3.613  15.032  0.00  0.00    +0.000 C 
ENDBRANCH   7   9
ENDBRANCH   1   7
BRANCH   4  10
ATOM     10  C   UNL     1       2.161   7.404  18.346  0.00  0.00    +0.000 C 
BRANCH  10  11
ATOM     11  C   UNL     1       2.027   8.812  17.765  0.00  0.00    +0.000 C 
BRANCH  11  12
ATOM     12  N   UNL     1       1.468   9.751  18.711  0.00  0.00    +0.000 N 
ATOM     13  C   UNL     1       0.213  10.292  18.545  0.00  0.00    +0.000 C 
ATOM     14  O   UNL     1      -0.593   9.881  17.716  0.00  0.00    +0.000 OA
ATOM     15  H   UNL     1       2.071  10.222  19.385  0.00  0.00    +0.000 HD
BRANCH  13  16
ATOM     16  C   UNL     1      -0.127  11.423  19.518  0.00  0.00    +0.000 C 
BRANCH  16  17
ATOM     17  N   UNL     1      -1.107  12.397  18.958  0.00  0.00    +0.000 NA
ATOM     18  C   UNL     1      -2.389  12.335  19.677  0.00  0.00    +0.000 C 
ATOM     19  C   UNL     1      -0.549  13.748  19.109  0.00  0.00    +0.000 C 
ENDBRANCH  16  17
ENDBRANCH  13  16
ENDBRANCH  11  12
ENDBRANCH  10  11
ENDBRANCH   4  10
BRANCH   6  20
ATOM     20  O   UNL     1       6.738   7.275  16.711  0.00  0.00    +0.000 OA
BRANCH  20  21
ATOM     21  C   UNL     1       7.708   7.435  17.741  0.00  0.00    +0.000 C 
ATOM     22  C   UNL     1       8.050   8.914  17.841  0.00  0.00    +0.000 C 
ENDBRANCH  20  21
ENDBRANCH   6  20
TORSDOF 9
ENDMDL
