MODEL 1
REMARK VINA RESULT:      -7.7      0.000      0.000
REMARK  Name = 
REMARK  9 active torsions:
REMARK  status: ('A' for Active; 'I' for Inactive)
REMARK    1  A    between atoms: C_1  and  O_2
REMARK    2  A    between atoms: O_2  and  C_3
REMARK    3  A    between atoms: C_8  and  N_9
REMARK    4  A    between atoms: C_11  and  C_12
REMARK    5  A    between atoms: C_12  and  C_13
REMARK    6  A    between atoms: C_12  and  C_14
REMARK    7  A    between atoms: C_12  and  C_15
REMARK    8  A    between atoms: C_17  and  N_18
REMARK    9  A    between atoms: N_21  and  C_22
REMARK                            x       y       z     vdW  Elec       q    Type
REMARK                         _______ _______ _______ _____ _____    ______ ____
ROOT
ATOM      1  N   UNL     1       3.616   5.306  18.645  0.00  0.00    +0.000 N 
ATOM      2  N   UNL     1       4.937   4.942  18.637  0.00  0.00    +0.000 NA
ATOM      3  C   UNL     1       5.592   5.946  18.043  0.00  0.00    +0.000 A 
ATOM      4  C   UNL     1       4.704   6.982  17.696  0.00  0.00    +0.000 A 
ATOM      5  C   UNL     1       3.459   6.592  18.135  0.00  0.00    +0.000 A 
ENDROOT
BRANCH   1  11
ATOM      6  C   UNL     1       1.739   3.630  18.633  0.00  0.00    +0.000 A 
ATOM      7  C   UNL     1       0.837   2.876  19.403  0.00  0.00    +0.000 A 
ATOM      8  C   UNL     1       0.795   2.993  20.793  0.00  0.00    +0.000 A 
ATOM      9  C   UNL     1       1.676   3.841  21.445  0.00  0.00    +0.000 A 
ATOM     10  C   UNL     1       2.617   4.556  20.709  0.00  0.00    +0.000 A 
ATOM     11  C   UNL     1       2.653   4.476  19.301  0.00  0.00    +0.000 A 
BRANCH   6  13
ATOM     12  C   UNL     1       2.828   2.776  16.673  0.00  0.00    +0.000 C 
ATOM     13  O   UNL     1       1.775   3.549  17.261  0.00  0.00    +0.000 OA
ENDBRANCH   6  13
ENDBRANCH   1  11
BRANCH   5  14
ATOM     14  N   UNL     1       2.307   7.379  18.143  0.00  0.00    +0.000 N 
ATOM     15  C   UNL     1       1.908   8.105  19.291  0.00  0.00    +0.000 C 
ATOM     16  O   UNL     1       2.551   8.008  20.326  0.00  0.00    +0.000 OA
ATOM     17  N   UNL     1       0.760   8.813  19.086  0.00  0.00    +0.000 N 
ATOM     18  H   UNL     1       1.734   7.341  17.315  0.00  0.00    +0.000 HD
ATOM     19  H   UNL     1       0.197   8.614  18.273  0.00  0.00    +0.000 HD
BRANCH  17  20
ATOM     20  C   UNL     1       0.213   9.684  20.057  0.00  0.00    +0.000 A 
ATOM     21  C   UNL     1      -0.003  11.046  19.797  0.00  0.00    +0.000 A 
ATOM     22  C   UNL     1      -0.491  11.900  20.782  0.00  0.00    +0.000 A 
ATOM     23  C   UNL     1      -0.792  11.392  22.038  0.00  0.00    +0.000 A 
ATOM     24 CL   UNL     1      -1.381  12.454  23.257  0.00  0.00    +0.000 Cl
ATOM     25  C   UNL     1      -0.617  10.038  22.307  0.00  0.00    +0.000 A 
ATOM     26  C   UNL     1      -0.124   9.179  21.315  0.00  0.00    +0.000 A 
ENDBRANCH  17  20
ENDBRANCH   5  14
BRANCH   3  27
ATOM     27  C   UNL     1       7.105   5.947  17.840  0.00  0.00    +0.000 C 
ATOM     28  C   UNL     1       7.567   4.830  16.885  0.00  0.00    +0.000 C 
ATOM     29  C   UNL     1       7.558   7.300  17.250  0.00  0.00    +0.000 C 
ATOM     30  C   UNL     1       7.822   5.746  19.193  0.00  0.00    +0.000 C 
ENDBRANCH   3  27
TORSDOF 5
ENDMDL
MODEL 2
REMARK VINA RESULT:      -7.6      0.258      1.285
REMARK  Name = 
REMARK  9 active torsions:
REMARK  status: ('A' for Active; 'I' for Inactive)
REMARK    1  A    between atoms: C_1  and  O_2
REMARK    2  A    between atoms: O_2  and  C_3
REMARK    3  A    between atoms: C_8  and  N_9
REMARK    4  A    between atoms: C_11  and  C_12
REMARK    5  A    between atoms: C_12  and  C_13
REMARK    6  A    between atoms: C_12  and  C_14
REMARK    7  A    between atoms: C_12  and  C_15
REMARK    8  A    between atoms: C_17  and  N_18
REMARK    9  A    between atoms: N_21  and  C_22
REMARK                            x       y       z     vdW  Elec       q    Type
REMARK                         _______ _______ _______ _____ _____    ______ ____
ROOT
ATOM      1  N   UNL     1       3.584   5.411  18.523  0.00  0.00    +0.000 N 
ATOM      2  N   UNL     1       4.907   5.063  18.431  0.00  0.00    +0.000 NA
ATOM      3  C   UNL     1       5.513   6.083  17.814  0.00  0.00    +0.000 A 
ATOM      4  C   UNL     1       4.594   7.113  17.534  0.00  0.00    +0.000 A 
ATOM      5  C   UNL     1       3.382   6.701  18.040  0.00  0.00    +0.000 A 
ENDROOT
BRANCH   1  11
ATOM      6  C   UNL     1       1.790   3.648  18.600  0.00  0.00    +0.000 A 
ATOM      7  C   UNL     1       0.937   2.880  19.412  0.00  0.00    +0.000 A 
ATOM      8  C   UNL     1       0.908   3.047  20.797  0.00  0.00    +0.000 A 
ATOM      9  C   UNL     1       1.756   3.959  21.404  0.00  0.00    +0.000 A 
ATOM     10  C   UNL     1       2.651   4.691  20.628  0.00  0.00    +0.000 A 
ATOM     11  C   UNL     1       2.671   4.561  19.224  0.00  0.00    +0.000 A 
BRANCH   6  13
ATOM     12  C   UNL     1       2.818   2.673  16.665  0.00  0.00    +0.000 C 
ATOM     13  O   UNL     1       1.811   3.518  17.232  0.00  0.00    +0.000 OA
ENDBRANCH   6  13
ENDBRANCH   1  11
BRANCH   5  14
ATOM     14  N   UNL     1       2.223   7.474  18.128  0.00  0.00    +0.000 N 
ATOM     15  C   UNL     1       1.878   8.170  19.311  0.00  0.00    +0.000 C 
ATOM     16  O   UNL     1       2.576   8.057  20.308  0.00  0.00    +0.000 OA
ATOM     17  N   UNL     1       0.714   8.867  19.184  0.00  0.00    +0.000 N 
ATOM     18  H   UNL     1       1.607   7.447  17.331  0.00  0.00    +0.000 HD
ATOM     19  H   UNL     1       0.110   8.680  18.398  0.00  0.00    +0.000 HD
BRANCH  17  20
ATOM     20  C   UNL     1       0.209   9.710  20.203  0.00  0.00    +0.000 A 
ATOM     21  C   UNL     1      -0.160   9.214  21.463  0.00  0.00    +0.000 A 
ATOM     22  C   UNL     1      -0.705  10.048  22.435  0.00  0.00    +0.000 A 
ATOM     23  C   UNL     1      -0.865  11.399  22.163  0.00  0.00    +0.000 A 
ATOM     24 CL   UNL     1      -1.553  12.424  23.361  0.00  0.00    +0.000 Cl
ATOM     25  C   UNL     1      -0.474  11.918  20.932  0.00  0.00    +0.000 A 
ATOM     26  C   UNL     1       0.074  11.077  19.953  0.00  0.00    +0.000 A 
ENDBRANCH  17  20
ENDBRANCH   5  14
BRANCH   3  27
ATOM     27  C   UNL     1       7.011   6.106  17.521  0.00  0.00    +0.000 C 
ATOM     28  C   UNL     1       7.549   7.538  17.338  0.00  0.00    +0.000 C 
ATOM     29  C   UNL     1       7.787   5.446  18.681  0.00  0.00    +0.000 C 
ATOM     30  C   UNL     1       7.311   5.315  16.227  0.00  0.00    +0.000 C 
ENDBRANCH   3  27
TORSDOF 5
ENDMDL
MODEL 3
REMARK VINA RESULT:      -7.5      1.967      4.683
REMARK  Name = 
REMARK  9 active torsions:
REMARK  status: ('A' for Active; 'I' for Inactive)
REMARK    1  A    between atoms: C_1  and  O_2
REMARK    2  A    between atoms: O_2  and  C_3
REMARK    3  A    between atoms: C_8  and  N_9
REMARK    4  A    between atoms: C_11  and  C_12
REMARK    5  A    between atoms: C_12  and  C_13
REMARK    6  A    between atoms: C_12  and  C_14
REMARK    7  A    between atoms: C_12  and  C_15
REMARK    8  A    between atoms: C_17  and  N_18
REMARK    9  A    between atoms: N_21  and  C_22
REMARK                            x       y       z     vdW  Elec       q    Type
REMARK                         _______ _______ _______ _____ _____    ______ ____
ROOT
ATOM      1  N   UNL     1       4.179   5.312  18.658  0.00  0.00    +0.000 N 
ATOM      2  N   UNL     1       3.986   4.006  19.025  0.00  0.00    +0.000 NA
ATOM      3  C   UNL     1       2.662   3.817  19.028  0.00  0.00    +0.000 A 
ATOM      4  C   UNL     1       1.990   4.988  18.629  0.00  0.00    +0.000 A 
ATOM      5  C   UNL     1       2.965   5.916  18.340  0.00  0.00    +0.000 A 
ENDROOT
BRANCH   1  11
ATOM      6  C   UNL     1       5.958   6.462  17.299  0.00  0.00    +0.000 A 
ATOM      7  C   UNL     1       7.295   6.892  17.244  0.00  0.00    +0.000 A 
ATOM      8  C   UNL     1       8.183   6.637  18.291  0.00  0.00    +0.000 A 
ATOM      9  C   UNL     1       7.744   5.978  19.428  0.00  0.00    +0.000 A 
ATOM     10  C   UNL     1       6.411   5.592  19.531  0.00  0.00    +0.000 A 
ATOM     11  C   UNL     1       5.507   5.811  18.470  0.00  0.00    +0.000 A 
BRANCH   6  13
ATOM     12  C   UNL     1       5.216   5.860  15.099  0.00  0.00    +0.000 C 
ATOM     13  O   UNL     1       5.078   6.678  16.266  0.00  0.00    +0.000 OA
ENDBRANCH   6  13
ENDBRANCH   1  11
BRANCH   5  14
ATOM     14  N   UNL     1       2.761   7.167  17.756  0.00  0.00    +0.000 N 
ATOM     15  C   UNL     1       2.189   8.242  18.477  0.00  0.00    +0.000 C 
ATOM     16  O   UNL     1       1.808   8.070  19.625  0.00  0.00    +0.000 OA
ATOM     17  N   UNL     1       2.084   9.376  17.725  0.00  0.00    +0.000 N 
ATOM     18  H   UNL     1       2.973   7.241  16.773  0.00  0.00    +0.000 HD
ATOM     19  H   UNL     1       2.205   9.317  16.725  0.00  0.00    +0.000 HD
BRANCH  17  20
ATOM     20  C   UNL     1       1.624  10.605  18.252  0.00  0.00    +0.000 A 
ATOM     21  C   UNL     1       0.376  10.723  18.885  0.00  0.00    +0.000 A 
ATOM     22  C   UNL     1      -0.084  11.951  19.349  0.00  0.00    +0.000 A 
ATOM     23  C   UNL     1       0.714  13.078  19.206  0.00  0.00    +0.000 A 
ATOM     24 CL   UNL     1       0.135  14.597  19.767  0.00  0.00    +0.000 Cl
ATOM     25  C   UNL     1       1.969  12.977  18.612  0.00  0.00    +0.000 A 
ATOM     26  C   UNL     1       2.431  11.739  18.144  0.00  0.00    +0.000 A 
ENDBRANCH  17  20
ENDBRANCH   5  14
BRANCH   3  27
ATOM     27  C   UNL     1       2.015   2.478  19.373  0.00  0.00    +0.000 C 
ATOM     28  C   UNL     1       0.644   2.299  18.692  0.00  0.00    +0.000 C 
ATOM     29  C   UNL     1       2.929   1.317  18.926  0.00  0.00    +0.000 C 
ATOM     30  C   UNL     1       1.806   2.367  20.900  0.00  0.00    +0.000 C 
ENDBRANCH   3  27
TORSDOF 5
ENDMDL
MODEL 4
REMARK VINA RESULT:      -7.4      2.104      4.899
REMARK  Name = 
REMARK  9 active torsions:
REMARK  status: ('A' for Active; 'I' for Inactive)
REMARK    1  A    between atoms: C_1  and  O_2
REMARK    2  A    between atoms: O_2  and  C_3
REMARK    3  A    between atoms: C_8  and  N_9
REMARK    4  A    between atoms: C_11  and  C_12
REMARK    5  A    between atoms: C_12  and  C_13
REMARK    6  A    between atoms: C_12  and  C_14
REMARK    7  A    between atoms: C_12  and  C_15
REMARK    8  A    between atoms: C_17  and  N_18
REMARK    9  A    between atoms: N_21  and  C_22
REMARK                            x       y       z     vdW  Elec       q    Type
REMARK                         _______ _______ _______ _____ _____    ______ ____
ROOT
ATOM      1  N   UNL     1       4.366   4.868  17.989  0.00  0.00    +0.000 N 
ATOM      2  N   UNL     1       4.209   3.703  18.693  0.00  0.00    +0.000 NA
ATOM      3  C   UNL     1       3.205   3.923  19.549  0.00  0.00    +0.000 A 
ATOM      4  C   UNL     1       2.682   5.220  19.380  0.00  0.00    +0.000 A 
ATOM      5  C   UNL     1       3.389   5.792  18.347  0.00  0.00    +0.000 A 
ENDROOT
BRANCH   1  11
ATOM      6  C   UNL     1       6.501   5.695  16.945  0.00  0.00    +0.000 A 
ATOM      7  C   UNL     1       7.338   5.674  15.815  0.00  0.00    +0.000 A 
ATOM      8  C   UNL     1       6.987   4.966  14.665  0.00  0.00    +0.000 A 
ATOM      9  C   UNL     1       5.809   4.236  14.632  0.00  0.00    +0.000 A 
ATOM     10  C   UNL     1       4.992   4.194  15.758  0.00  0.00    +0.000 A 
ATOM     11  C   UNL     1       5.313   4.931  16.918  0.00  0.00    +0.000 A 
BRANCH   6  13
ATOM     12  C   UNL     1       7.691   5.792  19.025  0.00  0.00    +0.000 C 
ATOM     13  O   UNL     1       6.817   6.411  18.075  0.00  0.00    +0.000 OA
ENDBRANCH   6  13
ENDBRANCH   1  11
BRANCH   5  14
ATOM     14  N   UNL     1       3.104   7.014  17.735  0.00  0.00    +0.000 N 
ATOM     15  C   UNL     1       2.383   8.033  18.402  0.00  0.00    +0.000 C 
ATOM     16  O   UNL     1       1.946   7.833  19.525  0.00  0.00    +0.000 OA
ATOM     17  N   UNL     1       2.219   9.145  17.630  0.00  0.00    +0.000 N 
ATOM     18  H   UNL     1       3.372   7.101  16.767  0.00  0.00    +0.000 HD
ATOM     19  H   UNL     1       2.411   9.091  16.641  0.00  0.00    +0.000 HD
BRANCH  17  20
ATOM     20  C   UNL     1       1.608  10.328  18.109  0.00  0.00    +0.000 A 
ATOM     21  C   UNL     1       0.276  10.350  18.550  0.00  0.00    +0.000 A 
ATOM     22  C   UNL     1      -0.327  11.533  18.967  0.00  0.00    +0.000 A 
ATOM     23  C   UNL     1       0.410  12.710  18.970  0.00  0.00    +0.000 A 
ATOM     24 CL   UNL     1      -0.342  14.173  19.472  0.00  0.00    +0.000 Cl
ATOM     25  C   UNL     1       1.742  12.703  18.569  0.00  0.00    +0.000 A 
ATOM     26  C   UNL     1       2.348  11.511  18.147  0.00  0.00    +0.000 A 
ENDBRANCH  17  20
ENDBRANCH   5  14
BRANCH   3  27
ATOM     27  C   UNL     1       2.694   2.863  20.522  0.00  0.00    +0.000 C 
ATOM     28  C   UNL     1       2.057   3.484  21.780  0.00  0.00    +0.000 C 
ATOM     29  C   UNL     1       1.634   1.979  19.832  0.00  0.00    +0.000 C 
ATOM     30  C   UNL     1       3.859   1.955  20.976  0.00  0.00    +0.000 C 
ENDBRANCH   3  27
TORSDOF 5
ENDMDL
MODEL 5
REMARK VINA RESULT:      -7.3      1.399      1.675
REMARK  Name = 
REMARK  9 active torsions:
REMARK  status: ('A' for Active; 'I' for Inactive)
REMARK    1  A    between atoms: C_1  and  O_2
REMARK    2  A    between atoms: O_2  and  C_3
REMARK    3  A    between atoms: C_8  and  N_9
REMARK    4  A    between atoms: C_11  and  C_12
REMARK    5  A    between atoms: C_12  and  C_13
REMARK    6  A    between atoms: C_12  and  C_14
REMARK    7  A    between atoms: C_12  and  C_15
REMARK    8  A    between atoms: C_17  and  N_18
REMARK    9  A    between atoms: N_21  and  C_22
REMARK                            x       y       z     vdW  Elec       q    Type
REMARK                         _______ _______ _______ _____ _____    ______ ____
ROOT
ATOM      1  N   UNL     1       3.657   5.301  18.365  0.00  0.00    +0.000 N 
ATOM      2  N   UNL     1       4.951   4.954  18.654  0.00  0.00    +0.000 NA
ATOM      3  C   UNL     1       5.719   5.873  18.057  0.00  0.00    +0.000 A 
ATOM      4  C   UNL     1       4.927   6.840  17.409  0.00  0.00    +0.000 A 
ATOM      5  C   UNL     1       3.616   6.500  17.658  0.00  0.00    +0.000 A 
ENDROOT
BRANCH   1  11
ATOM      6  C   UNL     1       2.068   3.350  18.414  0.00  0.00    +0.000 A 
ATOM      7  C   UNL     1       0.992   2.732  19.076  0.00  0.00    +0.000 A 
ATOM      8  C   UNL     1       0.393   3.317  20.192  0.00  0.00    +0.000 A 
ATOM      9  C   UNL     1       0.878   4.516  20.691  0.00  0.00    +0.000 A 
ATOM     10  C   UNL     1       1.978   5.119  20.089  0.00  0.00    +0.000 A 
ATOM     11  C   UNL     1       2.576   4.560  18.940  0.00  0.00    +0.000 A 
BRANCH   6  13
ATOM     12  C   UNL     1       3.635   1.783  17.499  0.00  0.00    +0.000 C 
ATOM     13  O   UNL     1       2.651   2.802  17.297  0.00  0.00    +0.000 OA
ENDBRANCH   6  13
ENDBRANCH   1  11
BRANCH   5  14
ATOM     14  N   UNL     1       2.494   7.267  17.342  0.00  0.00    +0.000 N 
ATOM     15  C   UNL     1       2.009   8.274  18.210  0.00  0.00    +0.000 C 
ATOM     16  O   UNL     1       2.545   8.451  19.294  0.00  0.00    +0.000 OA
ATOM     17  N   UNL     1       0.910   8.907  17.711  0.00  0.00    +0.000 N 
ATOM     18  H   UNL     1       2.003   7.013  16.499  0.00  0.00    +0.000 HD
ATOM     19  H   UNL     1       0.422   8.502  16.926  0.00  0.00    +0.000 HD
BRANCH  17  20
ATOM     20  C   UNL     1       0.299  10.007  18.357  0.00  0.00    +0.000 A 
ATOM     21  C   UNL     1       1.049  10.987  19.027  0.00  0.00    +0.000 A 
ATOM     22  C   UNL     1       0.429  12.033  19.704  0.00  0.00    +0.000 A 
ATOM     23  C   UNL     1      -0.955  12.124  19.698  0.00  0.00    +0.000 A 
ATOM     24 CL   UNL     1      -1.719  13.410  20.548  0.00  0.00    +0.000 Cl
ATOM     25  C   UNL     1      -1.717  11.183  19.012  0.00  0.00    +0.000 A 
ATOM     26  C   UNL     1      -1.092  10.128  18.331  0.00  0.00    +0.000 A 
ENDBRANCH  17  20
ENDBRANCH   5  14
BRANCH   3  27
ATOM     27  C   UNL     1       7.243   5.864  18.141  0.00  0.00    +0.000 C 
ATOM     28  C   UNL     1       7.748   5.766  19.593  0.00  0.00    +0.000 C 
ATOM     29  C   UNL     1       7.809   4.662  17.354  0.00  0.00    +0.000 C 
ATOM     30  C   UNL     1       7.817   7.158  17.523  0.00  0.00    +0.000 C 
ENDBRANCH   3  27
TORSDOF 5
ENDMDL
MODEL 6
REMARK VINA RESULT:      -7.3      2.075      4.833
REMARK  Name = 
REMARK  9 active torsions:
REMARK  status: ('A' for Active; 'I' for Inactive)
REMARK    1  A    between atoms: C_1  and  O_2
REMARK    2  A    between atoms: O_2  and  C_3
REMARK    3  A    between atoms: C_8  and  N_9
REMARK    4  A    between atoms: C_11  and  C_12
REMARK    5  A    between atoms: C_12  and  C_13
REMARK    6  A    between atoms: C_12  and  C_14
REMARK    7  A    between atoms: C_12  and  C_15
REMARK    8  A    between atoms: C_17  and  N_18
REMARK    9  A    between atoms: N_21  and  C_22
REMARK                            x       y       z     vdW  Elec       q    Type
REMARK                         _______ _______ _______ _____ _____    ______ ____
ROOT
ATOM      1  N   UNL     1       4.364   4.853  17.985  0.00  0.00    +0.000 N 
ATOM      2  N   UNL     1       4.214   3.689  18.693  0.00  0.00    +0.000 NA
ATOM      3  C   UNL     1       3.204   3.904  19.543  0.00  0.00    +0.000 A 
ATOM      4  C   UNL     1       2.669   5.194  19.366  0.00  0.00    +0.000 A 
ATOM      5  C   UNL     1       3.375   5.769  18.334  0.00  0.00    +0.000 A 
ENDROOT
BRANCH   1  11
ATOM      6  C   UNL     1       6.491   5.705  16.945  0.00  0.00    +0.000 A 
ATOM      7  C   UNL     1       7.334   5.686  15.820  0.00  0.00    +0.000 A 
ATOM      8  C   UNL     1       7.001   4.960  14.675  0.00  0.00    +0.000 A 
ATOM      9  C   UNL     1       5.836   4.210  14.643  0.00  0.00    +0.000 A 
ATOM     10  C   UNL     1       5.013   4.167  15.765  0.00  0.00    +0.000 A 
ATOM     11  C   UNL     1       5.315   4.921  16.919  0.00  0.00    +0.000 A 
BRANCH   6  13
ATOM     12  C   UNL     1       7.722   5.873  18.996  0.00  0.00    +0.000 C 
ATOM     13  O   UNL     1       6.788   6.437  18.069  0.00  0.00    +0.000 OA
ENDBRANCH   6  13
ENDBRANCH   1  11
BRANCH   5  14
ATOM     14  N   UNL     1       3.082   6.985  17.715  0.00  0.00    +0.000 N 
ATOM     15  C   UNL     1       2.394   8.021  18.392  0.00  0.00    +0.000 C 
ATOM     16  O   UNL     1       1.993   7.840  19.531  0.00  0.00    +0.000 OA
ATOM     17  N   UNL     1       2.215   9.124  17.610  0.00  0.00    +0.000 N 
ATOM     18  H   UNL     1       3.318   7.057  16.737  0.00  0.00    +0.000 HD
ATOM     19  H   UNL     1       2.373   9.055  16.616  0.00  0.00    +0.000 HD
BRANCH  17  20
ATOM     20  C   UNL     1       1.632  10.319  18.094  0.00  0.00    +0.000 A 
ATOM     21  C   UNL     1       2.341  11.529  18.135  0.00  0.00    +0.000 A 
ATOM     22  C   UNL     1       1.770  12.683  18.664  0.00  0.00    +0.000 A 
ATOM     23  C   UNL     1       0.467  12.643  19.139  0.00  0.00    +0.000 A 
ATOM     24 CL   UNL     1      -0.231  14.067  19.805  0.00  0.00    +0.000 Cl
ATOM     25  C   UNL     1      -0.267  11.462  19.075  0.00  0.00    +0.000 A 
ATOM     26  C   UNL     1       0.310  10.300  18.543  0.00  0.00    +0.000 A 
ENDBRANCH  17  20
ENDBRANCH   5  14
BRANCH   3  27
ATOM     27  C   UNL     1       2.698   2.843  20.518  0.00  0.00    +0.000 C 
ATOM     28  C   UNL     1       3.829   1.926  21.022  0.00  0.00    +0.000 C 
ATOM     29  C   UNL     1       2.046   3.519  21.743  0.00  0.00    +0.000 C 
ATOM     30  C   UNL     1       1.635   1.956  19.832  0.00  0.00    +0.000 C 
ENDBRANCH   3  27
TORSDOF 5
ENDMDL
MODEL 7
REMARK VINA RESULT:      -7.2      1.413      1.759
REMARK  Name = 
REMARK  9 active torsions:
REMARK  status: ('A' for Active; 'I' for Inactive)
REMARK    1  A    between atoms: C_1  and  O_2
REMARK    2  A    between atoms: O_2  and  C_3
REMARK    3  A    between atoms: C_8  and  N_9
REMARK    4  A    between atoms: C_11  and  C_12
REMARK    5  A    between atoms: C_12  and  C_13
REMARK    6  A    between atoms: C_12  and  C_14
REMARK    7  A    between atoms: C_12  and  C_15
REMARK    8  A    between atoms: C_17  and  N_18
REMARK    9  A    between atoms: N_21  and  C_22
REMARK                            x       y       z     vdW  Elec       q    Type
REMARK                         _______ _______ _______ _____ _____    ______ ____
ROOT
ATOM      1  N   UNL     1       3.641   5.364  18.360  0.00  0.00    +0.000 N 
ATOM      2  N   UNL     1       4.940   5.012  18.618  0.00  0.00    +0.000 NA
ATOM      3  C   UNL     1       5.697   5.925  17.999  0.00  0.00    +0.000 A 
ATOM      4  C   UNL     1       4.894   6.893  17.367  0.00  0.00    +0.000 A 
ATOM      5  C   UNL     1       3.589   6.560  17.651  0.00  0.00    +0.000 A 
ENDROOT
BRANCH   1  11
ATOM      6  C   UNL     1       2.044   3.421  18.455  0.00  0.00    +0.000 A 
ATOM      7  C   UNL     1       0.983   2.810  19.145  0.00  0.00    +0.000 A 
ATOM      8  C   UNL     1       0.416   3.401  20.276  0.00  0.00    +0.000 A 
ATOM      9  C   UNL     1       0.920   4.598  20.760  0.00  0.00    +0.000 A 
ATOM     10  C   UNL     1       2.007   5.194  20.127  0.00  0.00    +0.000 A 
ATOM     11  C   UNL     1       2.572   4.629  18.964  0.00  0.00    +0.000 A 
BRANCH   6  13
ATOM     12  C   UNL     1       3.584   1.848  17.502  0.00  0.00    +0.000 C 
ATOM     13  O   UNL     1       2.595   2.868  17.324  0.00  0.00    +0.000 OA
ENDBRANCH   6  13
ENDBRANCH   1  11
BRANCH   5  14
ATOM     14  N   UNL     1       2.462   7.331  17.360  0.00  0.00    +0.000 N 
ATOM     15  C   UNL     1       2.014   8.355  18.228  0.00  0.00    +0.000 C 
ATOM     16  O   UNL     1       2.586   8.545  19.291  0.00  0.00    +0.000 OA
ATOM     17  N   UNL     1       0.903   8.990  17.755  0.00  0.00    +0.000 N 
ATOM     18  H   UNL     1       1.942   7.069  16.538  0.00  0.00    +0.000 HD
ATOM     19  H   UNL     1       0.387   8.577  16.993  0.00  0.00    +0.000 HD
BRANCH  17  20
ATOM     20  C   UNL     1       0.322  10.104  18.405  0.00  0.00    +0.000 A 
ATOM     21  C   UNL     1      -1.023  10.114  18.805  0.00  0.00    +0.000 A 
ATOM     22  C   UNL     1      -1.593  11.240  19.393  0.00  0.00    +0.000 A 
ATOM     23  C   UNL     1      -0.811  12.366  19.610  0.00  0.00    +0.000 A 
ATOM     24 CL   UNL     1      -1.522  13.760  20.324  0.00  0.00    +0.000 Cl
ATOM     25  C   UNL     1       0.534  12.365  19.252  0.00  0.00    +0.000 A 
ATOM     26  C   UNL     1       1.107  11.231  18.658  0.00  0.00    +0.000 A 
ENDBRANCH  17  20
ENDBRANCH   5  14
BRANCH   3  27
ATOM     27  C   UNL     1       7.223   5.909  18.044  0.00  0.00    +0.000 C 
ATOM     28  C   UNL     1       7.838   7.209  17.490  0.00  0.00    +0.000 C 
ATOM     29  C   UNL     1       7.707   5.731  19.500  0.00  0.00    +0.000 C 
ATOM     30  C   UNL     1       7.767   4.730  17.207  0.00  0.00    +0.000 C 
ENDBRANCH   3  27
TORSDOF 5
ENDMDL
MODEL 8
REMARK VINA RESULT:      -7.2      3.774      9.239
REMARK  Name = 
REMARK  9 active torsions:
REMARK  status: ('A' for Active; 'I' for Inactive)
REMARK    1  A    between atoms: C_1  and  O_2
REMARK    2  A    between atoms: O_2  and  C_3
REMARK    3  A    between atoms: C_8  and  N_9
REMARK    4  A    between atoms: C_11  and  C_12
REMARK    5  A    between atoms: C_12  and  C_13
REMARK    6  A    between atoms: C_12  and  C_14
REMARK    7  A    between atoms: C_12  and  C_15
REMARK    8  A    between atoms: C_17  and  N_18
REMARK    9  A    between atoms: N_21  and  C_22
REMARK                            x       y       z     vdW  Elec       q    Type
REMARK                         _______ _______ _______ _____ _____    ______ ____
ROOT
ATOM      1  N   UNL     1      -0.073  12.410  21.285  0.00  0.00    +0.000 N 
ATOM      2  N   UNL     1      -1.036  13.295  21.695  0.00  0.00    +0.000 NA
ATOM      3  C   UNL     1      -1.770  12.645  22.604  0.00  0.00    +0.000 A 
ATOM      4  C   UNL     1      -1.265  11.348  22.816  0.00  0.00    +0.000 A 
ATOM      5  C   UNL     1      -0.152  11.228  22.016  0.00  0.00    +0.000 A 
ENDROOT
BRANCH   1  11
ATOM      6  C   UNL     1       0.981  12.483  19.002  0.00  0.00    +0.000 A 
ATOM      7  C   UNL     1       2.045  12.963  18.217  0.00  0.00    +0.000 A 
ATOM      8  C   UNL     1       3.074  13.721  18.776  0.00  0.00    +0.000 A 
ATOM      9  C   UNL     1       3.045  14.046  20.123  0.00  0.00    +0.000 A 
ATOM     10  C   UNL     1       1.974  13.631  20.909  0.00  0.00    +0.000 A 
ATOM     11  C   UNL     1       0.941  12.835  20.370  0.00  0.00    +0.000 A 
BRANCH   6  13
ATOM     12  C   UNL     1      -1.225  12.378  18.067  0.00  0.00    +0.000 C 
ATOM     13  O   UNL     1      -0.025  11.710  18.474  0.00  0.00    +0.000 OA
ENDBRANCH   6  13
ENDBRANCH   1  11
BRANCH   5  14
ATOM     14  N   UNL     1       0.755  10.167  22.022  0.00  0.00    +0.000 N 
ATOM     15  C   UNL     1       0.711   9.143  21.046  0.00  0.00    +0.000 C 
ATOM     16  O   UNL     1      -0.171   9.145  20.201  0.00  0.00    +0.000 OA
ATOM     17  N   UNL     1       1.687   8.207  21.229  0.00  0.00    +0.000 N 
ATOM     18  H   UNL     1       1.392  10.129  22.802  0.00  0.00    +0.000 HD
ATOM     19  H   UNL     1       2.193   8.187  22.102  0.00  0.00    +0.000 HD
BRANCH  17  20
ATOM     20  C   UNL     1       1.900   7.136  20.331  0.00  0.00    +0.000 A 
ATOM     21  C   UNL     1       2.414   7.338  19.040  0.00  0.00    +0.000 A 
ATOM     22  C   UNL     1       2.566   6.279  18.150  0.00  0.00    +0.000 A 
ATOM     23  C   UNL     1       2.225   4.995  18.552  0.00  0.00    +0.000 A 
ATOM     24 CL   UNL     1       2.400   3.691  17.444  0.00  0.00    +0.000 Cl
ATOM     25  C   UNL     1       1.745   4.767  19.839  0.00  0.00    +0.000 A 
ATOM     26  C   UNL     1       1.591   5.835  20.734  0.00  0.00    +0.000 A 
ENDBRANCH  17  20
ENDBRANCH   5  14
BRANCH   3  27
ATOM     27  C   UNL     1      -2.953  13.282  23.328  0.00  0.00    +0.000 C 
ATOM     28  C   UNL     1      -3.744  12.260  24.168  0.00  0.00    +0.000 C 
ATOM     29  C   UNL     1      -2.457  14.398  24.273  0.00  0.00    +0.000 C 
ATOM     30  C   UNL     1      -3.925  13.912  22.305  0.00  0.00    +0.000 C 
ENDBRANCH   3  27
TORSDOF 5
ENDMDL
MODEL 9
REMARK VINA RESULT:      -7.1      3.792      9.552
REMARK  Name = 
REMARK  9 active torsions:
REMARK  status: ('A' for Active; 'I' for Inactive)
REMARK    1  A    between atoms: C_1  and  O_2
REMARK    2  A    between atoms: O_2  and  C_3
REMARK    3  A    between atoms: C_8  and  N_9
REMARK    4  A    between atoms: C_11  and  C_12
REMARK    5  A    between atoms: C_12  and  C_13
REMARK    6  A    between atoms: C_12  and  C_14
REMARK    7  A    between atoms: C_12  and  C_15
REMARK    8  A    between atoms: C_17  and  N_18
REMARK    9  A    between atoms: N_21  and  C_22
REMARK                            x       y       z     vdW  Elec       q    Type
REMARK                         _______ _______ _______ _____ _____    ______ ____
ROOT
ATOM      1  N   UNL     1       0.136  12.450  21.273  0.00  0.00    +0.000 N 
ATOM      2  N   UNL     1      -0.811  13.353  21.679  0.00  0.00    +0.000 NA
ATOM      3  C   UNL     1      -1.589  12.703  22.552  0.00  0.00    +0.000 A 
ATOM      4  C   UNL     1      -1.130  11.386  22.743  0.00  0.00    +0.000 A 
ATOM      5  C   UNL     1       0.001  11.253  21.970  0.00  0.00    +0.000 A 
ENDROOT
BRANCH   1  11
ATOM      6  C   UNL     1       2.201  13.787  20.747  0.00  0.00    +0.000 A 
ATOM      7  C   UNL     1       3.169  14.117  19.782  0.00  0.00    +0.000 A 
ATOM      8  C   UNL     1       3.108  13.599  18.487  0.00  0.00    +0.000 A 
ATOM      9  C   UNL     1       2.100  12.715  18.139  0.00  0.00    +0.000 A 
ATOM     10  C   UNL     1       1.163  12.328  19.094  0.00  0.00    +0.000 A 
ATOM     11  C   UNL     1       1.188  12.867  20.397  0.00  0.00    +0.000 A 
BRANCH   6  13
ATOM     12  C   UNL     1       3.339  15.146  22.363  0.00  0.00    +0.000 C 
ATOM     13  O   UNL     1       2.229  14.310  22.017  0.00  0.00    +0.000 OA
ENDBRANCH   6  13
ENDBRANCH   1  11
BRANCH   5  14
ATOM     14  N   UNL     1       0.875  10.164  21.973  0.00  0.00    +0.000 N 
ATOM     15  C   UNL     1       0.800   9.144  20.995  0.00  0.00    +0.000 C 
ATOM     16  O   UNL     1      -0.083   9.176  20.150  0.00  0.00    +0.000 OA
ATOM     17  N   UNL     1       1.746   8.179  21.175  0.00  0.00    +0.000 N 
ATOM     18  H   UNL     1       1.511  10.104  22.753  0.00  0.00    +0.000 HD
ATOM     19  H   UNL     1       2.252   8.141  22.047  0.00  0.00    +0.000 HD
BRANCH  17  20
ATOM     20  C   UNL     1       1.926   7.104  20.273  0.00  0.00    +0.000 A 
ATOM     21  C   UNL     1       1.596   5.783  20.616  0.00  0.00    +0.000 A 
ATOM     22  C   UNL     1       1.829   4.730  19.737  0.00  0.00    +0.000 A 
ATOM     23  C   UNL     1       2.378   4.991  18.489  0.00  0.00    +0.000 A 
ATOM     24 CL   UNL     1       2.679   3.685  17.411  0.00  0.00    +0.000 Cl
ATOM     25  C   UNL     1       2.681   6.297  18.116  0.00  0.00    +0.000 A 
ATOM     26  C   UNL     1       2.446   7.358  19.003  0.00  0.00    +0.000 A 
ENDBRANCH  17  20
ENDBRANCH   5  14
BRANCH   3  27
ATOM     27  C   UNL     1      -2.773  13.358  23.260  0.00  0.00    +0.000 C 
ATOM     28  C   UNL     1      -2.328  14.432  24.270  0.00  0.00    +0.000 C 
ATOM     29  C   UNL     1      -3.704  14.027  22.226  0.00  0.00    +0.000 C 
ATOM     30  C   UNL     1      -3.589  12.293  24.025  0.00  0.00    +0.000 C 
ENDBRANCH   3  27
TORSDOF 5
ENDMDL
