MODEL 1
REMARK VINA RESULT:      -6.6      0.000      0.000
REMARK  Name = 
REMARK  6 active torsions:
REMARK  status: ('A' for Active; 'I' for Inactive)
REMARK    1  A    between atoms: C_1  and  O_2
REMARK    2  A    between atoms: O_2  and  C_3
REMARK    3  A    between atoms: C_6  and  C_7
REMARK    4  A    between atoms: N_8  and  N_9
REMARK    5  A    between atoms: C_17  and  O_18
REMARK    6  A    between atoms: O_18  and  C_19
REMARK                            x       y       z     vdW  Elec       q    Type
REMARK                         _______ _______ _______ _____ _____    ______ ____
ROOT
ATOM      1  C   UNL     1       6.563   5.143  15.708  0.00  0.00    +0.000 A 
ATOM      2  C   UNL     1       5.513   4.228  15.902  0.00  0.00    +0.000 A 
ATOM      3  C   UNL     1       4.622   4.373  16.959  0.00  0.00    +0.000 A 
ATOM      4  C   UNL     1       4.826   5.389  17.894  0.00  0.00    +0.000 A 
ATOM      5  C   UNL     1       5.928   6.230  17.784  0.00  0.00    +0.000 A 
ATOM      6  C   UNL     1       6.809   6.121  16.689  0.00  0.00    +0.000 A 
ENDROOT
BRANCH   1   8
ATOM      7  C   UNL     1       6.784   4.247  13.537  0.00  0.00    +0.000 C 
ATOM      8  O   UNL     1       7.327   5.080  14.571  0.00  0.00    +0.000 OA
ENDBRANCH   1   8
BRANCH   4   9
ATOM      9  C   UNL     1       3.856   5.612  18.979  0.00  0.00    +0.000 C 
ATOM     10  N   UNL     1       3.136   6.685  19.001  0.00  0.00    +0.000 NA
BRANCH  10  11
ATOM     11  N   UNL     1       2.316   6.815  20.078  0.00  0.00    +0.000 N 
ATOM     12  C   UNL     1       1.721   8.081  20.258  0.00  0.00    +0.000 A 
ATOM     13  C   UNL     1       1.386   8.866  19.163  0.00  0.00    +0.000 A 
ATOM     14  C   UNL     1       0.838  10.130  19.366  0.00  0.00    +0.000 A 
ATOM     15  C   UNL     1       0.607  10.561  20.665  0.00  0.00    +0.000 A 
ATOM     16  C   UNL     1       0.936   9.699  21.698  0.00  0.00    +0.000 A 
ATOM     17  N   UNL     1       1.479   8.477  21.530  0.00  0.00    +0.000 NA
ATOM     18  H   UNL     1       2.643   6.504  20.993  0.00  0.00    +0.000 HD
ENDBRANCH  10  11
ENDBRANCH   4   9
BRANCH   6  19
ATOM     19  O   UNL     1       7.792   7.070  16.757  0.00  0.00    +0.000 OA
ATOM     20  C   UNL     1       7.740   8.078  17.752  0.00  0.00    +0.000 C 
ENDBRANCH   6  19
TORSDOF 4
ENDMDL
MODEL 2
REMARK VINA RESULT:      -6.6      2.706      3.520
REMARK  Name = 
REMARK  6 active torsions:
REMARK  status: ('A' for Active; 'I' for Inactive)
REMARK    1  A    between atoms: C_1  and  O_2
REMARK    2  A    between atoms: O_2  and  C_3
REMARK    3  A    between atoms: C_6  and  C_7
REMARK    4  A    between atoms: N_8  and  N_9
REMARK    5  A    between atoms: C_17  and  O_18
REMARK    6  A    between atoms: O_18  and  C_19
REMARK                            x       y       z     vdW  Elec       q    Type
REMARK                         _______ _______ _______ _____ _____    ______ ____
ROOT
ATOM      1  C   UNL     1       3.579   3.648  18.029  0.00  0.00    +0.000 A 
ATOM      2  C   UNL     1       2.282   4.067  17.684  0.00  0.00    +0.000 A 
ATOM      3  C   UNL     1       1.870   5.376  17.904  0.00  0.00    +0.000 A 
ATOM      4  C   UNL     1       2.723   6.263  18.560  0.00  0.00    +0.000 A 
ATOM      5  C   UNL     1       3.965   5.832  19.015  0.00  0.00    +0.000 A 
ATOM      6  C   UNL     1       4.411   4.521  18.753  0.00  0.00    +0.000 A 
ENDROOT
BRANCH   1   8
ATOM      7  C   UNL     1       3.623   1.344  18.531  0.00  0.00    +0.000 C 
ATOM      8  O   UNL     1       4.022   2.406  17.653  0.00  0.00    +0.000 OA
ENDBRANCH   1   8
BRANCH   4   9
ATOM      9  C   UNL     1       2.341   7.674  18.739  0.00  0.00    +0.000 C 
ATOM     10  N   UNL     1       1.779   8.064  19.836  0.00  0.00    +0.000 NA
BRANCH  10  11
ATOM     11  N   UNL     1       1.417   9.375  19.872  0.00  0.00    +0.000 N 
ATOM     12  C   UNL     1       0.628   9.772  20.970  0.00  0.00    +0.000 A 
ATOM     13  C   UNL     1       0.789   9.170  22.211  0.00  0.00    +0.000 A 
ATOM     14  C   UNL     1      -0.031   9.550  23.271  0.00  0.00    +0.000 A 
ATOM     15  C   UNL     1      -0.971  10.552  23.067  0.00  0.00    +0.000 A 
ATOM     16  C   UNL     1      -1.040  11.124  21.808  0.00  0.00    +0.000 A 
ATOM     17  N   UNL     1      -0.268  10.767  20.763  0.00  0.00    +0.000 NA
ATOM     18  H   UNL     1       1.011   9.801  19.040  0.00  0.00    +0.000 HD
ENDBRANCH  10  11
ENDBRANCH   4   9
BRANCH   6  19
ATOM     19  O   UNL     1       5.671   4.325  19.250  0.00  0.00    +0.000 OA
ATOM     20  C   UNL     1       6.629   5.368  19.189  0.00  0.00    +0.000 C 
ENDBRANCH   6  19
TORSDOF 4
ENDMDL
MODEL 3
REMARK VINA RESULT:      -6.5      3.802      7.578
REMARK  Name = 
REMARK  6 active torsions:
REMARK  status: ('A' for Active; 'I' for Inactive)
REMARK    1  A    between atoms: C_1  and  O_2
REMARK    2  A    between atoms: O_2  and  C_3
REMARK    3  A    between atoms: C_6  and  C_7
REMARK    4  A    between atoms: N_8  and  N_9
REMARK    5  A    between atoms: C_17  and  O_18
REMARK    6  A    between atoms: O_18  and  C_19
REMARK                            x       y       z     vdW  Elec       q    Type
REMARK                         _______ _______ _______ _____ _____    ______ ____
ROOT
ATOM      1  C   UNL     1       1.655   4.245  19.931  0.00  0.00    +0.000 A 
ATOM      2  C   UNL     1       1.952   3.518  18.765  0.00  0.00    +0.000 A 
ATOM      3  C   UNL     1       2.789   4.042  17.787  0.00  0.00    +0.000 A 
ATOM      4  C   UNL     1       3.270   5.344  17.920  0.00  0.00    +0.000 A 
ATOM      5  C   UNL     1       2.889   6.122  19.010  0.00  0.00    +0.000 A 
ATOM      6  C   UNL     1       2.080   5.583  20.030  0.00  0.00    +0.000 A 
ENDROOT
BRANCH   1   8
ATOM      7  C   UNL     1       1.711   2.655  21.672  0.00  0.00    +0.000 C 
ATOM      8  O   UNL     1       0.966   3.650  20.955  0.00  0.00    +0.000 OA
ENDBRANCH   1   8
BRANCH   4   9
ATOM      9  C   UNL     1       4.218   5.896  16.939  0.00  0.00    +0.000 C 
ATOM     10  N   UNL     1       5.316   5.271  16.669  0.00  0.00    +0.000 NA
BRANCH  10  11
ATOM     11  N   UNL     1       6.144   5.899  15.790  0.00  0.00    +0.000 N 
ATOM     12  C   UNL     1       6.407   5.215  14.586  0.00  0.00    +0.000 A 
ATOM     13  C   UNL     1       5.440   4.402  14.008  0.00  0.00    +0.000 A 
ATOM     14  C   UNL     1       5.737   3.705  12.841  0.00  0.00    +0.000 A 
ATOM     15  C   UNL     1       6.989   3.866  12.262  0.00  0.00    +0.000 A 
ATOM     16  C   UNL     1       7.880   4.723  12.884  0.00  0.00    +0.000 A 
ATOM     17  N   UNL     1       7.623   5.401  14.020  0.00  0.00    +0.000 NA
ATOM     18  H   UNL     1       7.032   6.273  16.124  0.00  0.00    +0.000 HD
ENDBRANCH  10  11
ENDBRANCH   4   9
BRANCH   6  19
ATOM     19  O   UNL     1       1.866   6.503  21.020  0.00  0.00    +0.000 OA
ATOM     20  C   UNL     1       1.299   7.763  20.709  0.00  0.00    +0.000 C 
ENDBRANCH   6  19
TORSDOF 4
ENDMDL
MODEL 4
REMARK VINA RESULT:      -6.4      3.303      3.831
REMARK  Name = 
REMARK  6 active torsions:
REMARK  status: ('A' for Active; 'I' for Inactive)
REMARK    1  A    between atoms: C_1  and  O_2
REMARK    2  A    between atoms: O_2  and  C_3
REMARK    3  A    between atoms: C_6  and  C_7
REMARK    4  A    between atoms: N_8  and  N_9
REMARK    5  A    between atoms: C_17  and  O_18
REMARK    6  A    between atoms: O_18  and  C_19
REMARK                            x       y       z     vdW  Elec       q    Type
REMARK                         _______ _______ _______ _____ _____    ______ ____
ROOT
ATOM      1  C   UNL     1       7.119   5.097  14.845  0.00  0.00    +0.000 A 
ATOM      2  C   UNL     1       6.349   4.071  14.268  0.00  0.00    +0.000 A 
ATOM      3  C   UNL     1       5.199   3.602  14.891  0.00  0.00    +0.000 A 
ATOM      4  C   UNL     1       4.851   4.093  16.150  0.00  0.00    +0.000 A 
ATOM      5  C   UNL     1       5.666   5.022  16.788  0.00  0.00    +0.000 A 
ATOM      6  C   UNL     1       6.808   5.539  16.144  0.00  0.00    +0.000 A 
ENDROOT
BRANCH   1   8
ATOM      7  C   UNL     1       8.067   5.480  12.719  0.00  0.00    +0.000 C 
ATOM      8  O   UNL     1       8.152   5.659  14.140  0.00  0.00    +0.000 OA
ENDBRANCH   1   8
BRANCH   4   9
ATOM      9  C   UNL     1       3.598   3.670  16.798  0.00  0.00    +0.000 C 
ATOM     10  N   UNL     1       2.747   4.551  17.211  0.00  0.00    +0.000 NA
BRANCH  10  11
ATOM     11  N   UNL     1       1.653   4.051  17.845  0.00  0.00    +0.000 N 
ATOM     12  C   UNL     1       1.785   3.828  19.231  0.00  0.00    +0.000 A 
ATOM     13  C   UNL     1       2.592   4.651  20.006  0.00  0.00    +0.000 A 
ATOM     14  C   UNL     1       2.739   4.387  21.365  0.00  0.00    +0.000 A 
ATOM     15  C   UNL     1       2.045   3.321  21.921  0.00  0.00    +0.000 A 
ATOM     16  C   UNL     1       1.234   2.573  21.084  0.00  0.00    +0.000 A 
ATOM     17  N   UNL     1       1.083   2.800  19.764  0.00  0.00    +0.000 NA
ATOM     18  H   UNL     1       1.179   3.236  17.454  0.00  0.00    +0.000 HD
ENDBRANCH  10  11
ENDBRANCH   4   9
BRANCH   6  19
ATOM     19  O   UNL     1       7.435   6.466  16.931  0.00  0.00    +0.000 OA
ATOM     20  C   UNL     1       7.571   6.242  18.323  0.00  0.00    +0.000 C 
ENDBRANCH   6  19
TORSDOF 4
ENDMDL
MODEL 5
REMARK VINA RESULT:      -6.4      1.467      1.643
REMARK  Name = 
REMARK  6 active torsions:
REMARK  status: ('A' for Active; 'I' for Inactive)
REMARK    1  A    between atoms: C_1  and  O_2
REMARK    2  A    between atoms: O_2  and  C_3
REMARK    3  A    between atoms: C_6  and  C_7
REMARK    4  A    between atoms: N_8  and  N_9
REMARK    5  A    between atoms: C_17  and  O_18
REMARK    6  A    between atoms: O_18  and  C_19
REMARK                            x       y       z     vdW  Elec       q    Type
REMARK                         _______ _______ _______ _____ _____    ______ ____
ROOT
ATOM      1  C   UNL     1       5.561   4.274  17.024  0.00  0.00    +0.000 A 
ATOM      2  C   UNL     1       4.183   4.187  16.757  0.00  0.00    +0.000 A 
ATOM      3  C   UNL     1       3.245   4.656  17.668  0.00  0.00    +0.000 A 
ATOM      4  C   UNL     1       3.671   5.139  18.906  0.00  0.00    +0.000 A 
ATOM      5  C   UNL     1       5.023   5.122  19.234  0.00  0.00    +0.000 A 
ATOM      6  C   UNL     1       5.986   4.693  18.298  0.00  0.00    +0.000 A 
ENDROOT
BRANCH   1   8
ATOM      7  C   UNL     1       6.054   4.297  14.718  0.00  0.00    +0.000 C 
ATOM      8  O   UNL     1       6.471   3.960  16.048  0.00  0.00    +0.000 OA
ENDBRANCH   1   8
BRANCH   4   9
ATOM      9  C   UNL     1       2.706   5.711  19.858  0.00  0.00    +0.000 C 
ATOM     10  N   UNL     1       2.460   6.980  19.855  0.00  0.00    +0.000 NA
BRANCH  10  11
ATOM     11  N   UNL     1       1.596   7.409  20.814  0.00  0.00    +0.000 N 
ATOM     12  C   UNL     1       1.143   8.739  20.694  0.00  0.00    +0.000 A 
ATOM     13  C   UNL     1       0.970   9.316  19.442  0.00  0.00    +0.000 A 
ATOM     14  C   UNL     1       0.561  10.643  19.349  0.00  0.00    +0.000 A 
ATOM     15  C   UNL     1       0.302  11.350  20.516  0.00  0.00    +0.000 A 
ATOM     16  C   UNL     1       0.465  10.687  21.720  0.00  0.00    +0.000 A 
ATOM     17  N   UNL     1       0.871   9.408  21.839  0.00  0.00    +0.000 NA
ATOM     18  H   UNL     1       1.828   7.258  21.796  0.00  0.00    +0.000 HD
ENDBRANCH  10  11
ENDBRANCH   4   9
BRANCH   6  19
ATOM     19  O   UNL     1       7.249   4.800  18.813  0.00  0.00    +0.000 OA
ATOM     20  C   UNL     1       7.886   6.064  18.877  0.00  0.00    +0.000 C 
ENDBRANCH   6  19
TORSDOF 4
ENDMDL
MODEL 6
REMARK VINA RESULT:      -6.4      4.568      7.651
REMARK  Name = 
REMARK  6 active torsions:
REMARK  status: ('A' for Active; 'I' for Inactive)
REMARK    1  A    between atoms: C_1  and  O_2
REMARK    2  A    between atoms: O_2  and  C_3
REMARK    3  A    between atoms: C_6  and  C_7
REMARK    4  A    between atoms: N_8  and  N_9
REMARK    5  A    between atoms: C_17  and  O_18
REMARK    6  A    between atoms: O_18  and  C_19
REMARK                            x       y       z     vdW  Elec       q    Type
REMARK                         _______ _______ _______ _____ _____    ______ ____
ROOT
ATOM      1  C   UNL     1       2.382   3.076  19.688  0.00  0.00    +0.000 A 
ATOM      2  C   UNL     1       1.730   3.914  18.766  0.00  0.00    +0.000 A 
ATOM      3  C   UNL     1       2.446   4.608  17.798  0.00  0.00    +0.000 A 
ATOM      4  C   UNL     1       3.840   4.543  17.797  0.00  0.00    +0.000 A 
ATOM      5  C   UNL     1       4.507   3.814  18.776  0.00  0.00    +0.000 A 
ATOM      6  C   UNL     1       3.788   3.068  19.731  0.00  0.00    +0.000 A 
ENDROOT
BRANCH   1   8
ATOM      7  C   UNL     1       1.386   2.845  21.814  0.00  0.00    +0.000 C 
ATOM      8  O   UNL     1       1.649   2.274  20.525  0.00  0.00    +0.000 OA
ENDBRANCH   1   8
BRANCH   4   9
ATOM      9  C   UNL     1       4.618   5.207  16.738  0.00  0.00    +0.000 C 
ATOM     10  N   UNL     1       5.908   5.124  16.727  0.00  0.00    +0.000 NA
BRANCH  10  11
ATOM     11  N   UNL     1       6.529   5.822  15.738  0.00  0.00    +0.000 N 
ATOM     12  C   UNL     1       6.659   5.162  14.499  0.00  0.00    +0.000 A 
ATOM     13  C   UNL     1       5.689   4.265  14.071  0.00  0.00    +0.000 A 
ATOM     14  C   UNL     1       5.860   3.594  12.862  0.00  0.00    +0.000 A 
ATOM     15  C   UNL     1       6.985   3.866  12.096  0.00  0.00    +0.000 A 
ATOM     16  C   UNL     1       7.884   4.800  12.581  0.00  0.00    +0.000 A 
ATOM     17  N   UNL     1       7.750   5.455  13.752  0.00  0.00    +0.000 NA
ATOM     18  H   UNL     1       7.422   6.274  15.933  0.00  0.00    +0.000 HD
ENDBRANCH  10  11
ENDBRANCH   4   9
BRANCH   6  19
ATOM     19  O   UNL     1       4.639   2.395  20.566  0.00  0.00    +0.000 OA
ATOM     20  C   UNL     1       5.025   1.065  20.266  0.00  0.00    +0.000 C 
ENDBRANCH   6  19
TORSDOF 4
ENDMDL
MODEL 7
REMARK VINA RESULT:      -6.4      4.586      6.412
REMARK  Name = 
REMARK  6 active torsions:
REMARK  status: ('A' for Active; 'I' for Inactive)
REMARK    1  A    between atoms: C_1  and  O_2
REMARK    2  A    between atoms: O_2  and  C_3
REMARK    3  A    between atoms: C_6  and  C_7
REMARK    4  A    between atoms: N_8  and  N_9
REMARK    5  A    between atoms: C_17  and  O_18
REMARK    6  A    between atoms: O_18  and  C_19
REMARK                            x       y       z     vdW  Elec       q    Type
REMARK                         _______ _______ _______ _____ _____    ______ ____
ROOT
ATOM      1  C   UNL     1       6.386   4.963  18.452  0.00  0.00    +0.000 A 
ATOM      2  C   UNL     1       7.457   5.444  19.225  0.00  0.00    +0.000 A 
ATOM      3  C   UNL     1       8.045   6.673  18.950  0.00  0.00    +0.000 A 
ATOM      4  C   UNL     1       7.628   7.399  17.834  0.00  0.00    +0.000 A 
ATOM      5  C   UNL     1       6.651   6.882  16.989  0.00  0.00    +0.000 A 
ATOM      6  C   UNL     1       6.015   5.660  17.287  0.00  0.00    +0.000 A 
ENDROOT
BRANCH   1   8
ATOM      7  C   UNL     1       4.460   4.083  19.490  0.00  0.00    +0.000 C 
ATOM      8  O   UNL     1       5.713   3.833  18.838  0.00  0.00    +0.000 OA
ENDBRANCH   1   8
BRANCH   4   9
ATOM      9  C   UNL     1       8.180   8.736  17.562  0.00  0.00    +0.000 C 
ATOM     10  N   UNL     1       8.670   9.448  18.524  0.00  0.00    +0.000 NA
BRANCH  10  11
ATOM     11  N   UNL     1       9.100  10.689  18.170  0.00  0.00    +0.000 N 
ATOM     12  C   UNL     1       9.248  11.619  19.219  0.00  0.00    +0.000 A 
ATOM     13  C   UNL     1       9.632  11.200  20.486  0.00  0.00    +0.000 A 
ATOM     14  C   UNL     1       9.732  12.131  21.517  0.00  0.00    +0.000 A 
ATOM     15  C   UNL     1       9.475  13.467  21.242  0.00  0.00    +0.000 A 
ATOM     16  C   UNL     1       9.134  13.804  19.943  0.00  0.00    +0.000 A 
ATOM     17  N   UNL     1       9.018  12.922  18.930  0.00  0.00    +0.000 NA
ATOM     18  H   UNL     1       8.639  11.175  17.400  0.00  0.00    +0.000 HD
ENDBRANCH  10  11
ENDBRANCH   4   9
BRANCH   6  19
ATOM     19  O   UNL     1       5.062   5.364  16.351  0.00  0.00    +0.000 OA
ATOM     20  C   UNL     1       5.434   4.763  15.123  0.00  0.00    +0.000 C 
ENDBRANCH   6  19
TORSDOF 4
ENDMDL
MODEL 8
REMARK VINA RESULT:      -6.3      3.915      4.150
REMARK  Name = 
REMARK  6 active torsions:
REMARK  status: ('A' for Active; 'I' for Inactive)
REMARK    1  A    between atoms: C_1  and  O_2
REMARK    2  A    between atoms: O_2  and  C_3
REMARK    3  A    between atoms: C_6  and  C_7
REMARK    4  A    between atoms: N_8  and  N_9
REMARK    5  A    between atoms: C_17  and  O_18
REMARK    6  A    between atoms: O_18  and  C_19
REMARK                            x       y       z     vdW  Elec       q    Type
REMARK                         _______ _______ _______ _____ _____    ______ ____
ROOT
ATOM      1  C   UNL     1       6.901   5.104  15.071  0.00  0.00    +0.000 A 
ATOM      2  C   UNL     1       6.159   3.911  15.135  0.00  0.00    +0.000 A 
ATOM      3  C   UNL     1       5.529   3.521  16.310  0.00  0.00    +0.000 A 
ATOM      4  C   UNL     1       5.708   4.276  17.469  0.00  0.00    +0.000 A 
ATOM      5  C   UNL     1       6.536   5.394  17.454  0.00  0.00    +0.000 A 
ATOM      6  C   UNL     1       7.140   5.825  16.256  0.00  0.00    +0.000 A 
ENDROOT
BRANCH   1   8
ATOM      7  C   UNL     1       7.181   4.644  12.775  0.00  0.00    +0.000 C 
ATOM      8  O   UNL     1       7.375   5.555  13.867  0.00  0.00    +0.000 OA
ENDBRANCH   1   8
BRANCH   4   9
ATOM      9  C   UNL     1       4.991   3.928  18.707  0.00  0.00    +0.000 C 
ATOM     10  N   UNL     1       5.314   2.867  19.372  0.00  0.00    +0.000 NA
BRANCH  10  11
ATOM     11  N   UNL     1       4.550   2.611  20.468  0.00  0.00    +0.000 N 
ATOM     12  C   UNL     1       3.154   2.655  20.276  0.00  0.00    +0.000 A 
ATOM     13  C   UNL     1       2.594   2.274  19.064  0.00  0.00    +0.000 A 
ATOM     14  C   UNL     1       1.216   2.365  18.885  0.00  0.00    +0.000 A 
ATOM     15  C   UNL     1       0.429   2.805  19.940  0.00  0.00    +0.000 A 
ATOM     16  C   UNL     1       1.065   3.130  21.126  0.00  0.00    +0.000 A 
ATOM     17  N   UNL     1       2.397   3.063  21.323  0.00  0.00    +0.000 NA
ATOM     18  H   UNL     1       4.749   3.102  21.339  0.00  0.00    +0.000 HD
ENDBRANCH  10  11
ENDBRANCH   4   9
BRANCH   6  19
ATOM     19  O   UNL     1       7.872   6.963  16.460  0.00  0.00    +0.000 OA
ATOM     20  C   UNL     1       7.597   7.794  17.574  0.00  0.00    +0.000 C 
ENDBRANCH   6  19
TORSDOF 4
ENDMDL
MODEL 9
REMARK VINA RESULT:      -6.2      3.116      4.348
REMARK  Name = 
REMARK  6 active torsions:
REMARK  status: ('A' for Active; 'I' for Inactive)
REMARK    1  A    between atoms: C_1  and  O_2
REMARK    2  A    between atoms: O_2  and  C_3
REMARK    3  A    between atoms: C_6  and  C_7
REMARK    4  A    between atoms: N_8  and  N_9
REMARK    5  A    between atoms: C_17  and  O_18
REMARK    6  A    between atoms: O_18  and  C_19
REMARK                            x       y       z     vdW  Elec       q    Type
REMARK                         _______ _______ _______ _____ _____    ______ ____
ROOT
ATOM      1  C   UNL     1       3.698   3.988  18.082  0.00  0.00    +0.000 A 
ATOM      2  C   UNL     1       4.651   4.884  17.566  0.00  0.00    +0.000 A 
ATOM      3  C   UNL     1       4.392   6.248  17.503  0.00  0.00    +0.000 A 
ATOM      4  C   UNL     1       3.135   6.726  17.872  0.00  0.00    +0.000 A 
ATOM      5  C   UNL     1       2.139   5.840  18.272  0.00  0.00    +0.000 A 
ATOM      6  C   UNL     1       2.408   4.461  18.386  0.00  0.00    +0.000 A 
ENDROOT
BRANCH   1   8
ATOM      7  C   UNL     1       4.321   2.347  19.657  0.00  0.00    +0.000 C 
ATOM      8  O   UNL     1       4.032   2.675  18.291  0.00  0.00    +0.000 OA
ENDBRANCH   1   8
BRANCH   4   9
ATOM      9  C   UNL     1       2.859   8.172  17.886  0.00  0.00    +0.000 C 
ATOM     10  N   UNL     1       1.640   8.604  17.910  0.00  0.00    +0.000 NA
BRANCH  10  11
ATOM     11  N   UNL     1       1.500   9.956  17.863  0.00  0.00    +0.000 N 
ATOM     12  C   UNL     1       0.670  10.530  18.848  0.00  0.00    +0.000 A 
ATOM     13  C   UNL     1       0.590   9.972  20.117  0.00  0.00    +0.000 A 
ATOM     14  C   UNL     1      -0.268  10.531  21.060  0.00  0.00    +0.000 A 
ATOM     15  C   UNL     1      -0.999  11.661  20.717  0.00  0.00    +0.000 A 
ATOM     16  C   UNL     1      -0.831  12.174  19.442  0.00  0.00    +0.000 A 
ATOM     17  N   UNL     1      -0.018  11.645  18.507  0.00  0.00    +0.000 NA
ATOM     18  H   UNL     1       1.265  10.402  16.976  0.00  0.00    +0.000 HD
ENDBRANCH  10  11
ENDBRANCH   4   9
BRANCH   6  19
ATOM     19  O   UNL     1       1.306   3.785  18.835  0.00  0.00    +0.000 OA
ATOM     20  C   UNL     1       0.926   3.871  20.197  0.00  0.00    +0.000 C 
ENDBRANCH   6  19
TORSDOF 4
ENDMDL
