MODEL 1
REMARK VINA RESULT:      -9.4      0.000      0.000
REMARK  Name = 
REMARK  7 active torsions:
REMARK  status: ('A' for Active; 'I' for Inactive)
REMARK    1  A    between atoms: C_1  and  C_2
REMARK    2  A    between atoms: C_5  and  C_6
REMARK    3  A    between atoms: C_7  and  N_8
REMARK    4  A    between atoms: C_9  and  C_11
REMARK    5  A    between atoms: C_15  and  O_16
REMARK    6  A    between atoms: C_17  and  S_18
REMARK    7  A    between atoms: S_18  and  C_21
REMARK                            x       y       z     vdW  Elec       q    Type
REMARK                         _______ _______ _______ _____ _____    ______ ____
ROOT
ATOM      1  C   UNL     1       2.381   7.779  18.543  0.00  0.00    +0.000 A 
ATOM      2  C   UNL     1       2.127   8.853  17.680  0.00  0.00    +0.000 A 
ATOM      3  C   UNL     1       1.475  10.009  18.139  0.00  0.00    +0.000 A 
ATOM      4  C   UNL     1       1.065  10.122  19.478  0.00  0.00    +0.000 A 
ATOM      5  C   UNL     1       0.405  11.319  20.059  0.00  0.00    +0.000 A 
ATOM      6  C   UNL     1       0.052  11.356  21.365  0.00  0.00    +0.000 A 
ATOM      7  C   UNL     1       0.296  10.177  22.220  0.00  0.00    +0.000 A 
ATOM      8  O   UNL     1      -0.045  10.101  23.395  0.00  0.00    +0.000 OA
ATOM      9  N   UNL     1       0.926   9.104  21.659  0.00  0.00    +0.000 N 
ATOM     10  C   UNL     1       1.318   9.031  20.320  0.00  0.00    +0.000 A 
ATOM     11  C   UNL     1       1.970   7.867  19.874  0.00  0.00    +0.000 A 
ATOM     12  H   UNL     1       1.091   8.324  22.286  0.00  0.00    +0.000 HD
ENDROOT
BRANCH   1  14
ATOM     13  N   UNL     1       4.350   6.915  17.368  0.00  0.00    +0.000 N 
ATOM     14  C   UNL     1       3.164   6.615  18.026  0.00  0.00    +0.000 C 
ATOM     15  O   UNL     1       2.754   5.486  18.273  0.00  0.00    +0.000 OA
ATOM     16  H   UNL     1       4.771   7.811  17.576  0.00  0.00    +0.000 HD
BRANCH  13  23
ATOM     17  C   UNL     1       5.898   4.055  13.632  0.00  0.00    +0.000 C 
ATOM     18  C   UNL     1       6.003   4.485  15.068  0.00  0.00    +0.000 A 
ATOM     19  C   UNL     1       6.989   3.960  15.903  0.00  0.00    +0.000 A 
ATOM     20  C   UNL     1       7.094   4.397  17.225  0.00  0.00    +0.000 A 
ATOM     21  C   UNL     1       6.229   5.383  17.734  0.00  0.00    +0.000 A 
ATOM     22  C   UNL     1       6.350   5.770  19.185  0.00  0.00    +0.000 C 
ATOM     23  C   UNL     1       5.222   5.898  16.901  0.00  0.00    +0.000 A 
ATOM     24  C   UNL     1       5.111   5.440  15.582  0.00  0.00    +0.000 A 
ENDBRANCH  13  23
ENDBRANCH   1  14
BRANCH   6  25
ATOM     25  S   UNL     1      -0.715  12.794  21.960  0.00  0.00    +0.000 S 
ATOM     26  O   UNL     1      -0.610  12.835  23.413  0.00  0.00    +0.000 OA
ATOM     27  O   UNL     1      -0.254  13.935  21.183  0.00  0.00    +0.000 OA
BRANCH  25  28
ATOM     28  C   UNL     1      -2.472  12.693  21.648  0.00  0.00    +0.000 A 
ATOM     29  C   UNL     1      -3.371  12.752  22.721  0.00  0.00    +0.000 A 
ATOM     30  C   UNL     1      -4.743  12.670  22.474  0.00  0.00    +0.000 A 
ATOM     31  C   UNL     1      -5.207  12.556  21.163  0.00  0.00    +0.000 A 
ATOM     32 CL   UNL     1      -6.897  12.420  20.866  0.00  0.00    +0.000 Cl
ATOM     33  C   UNL     1      -4.314  12.553  20.090  0.00  0.00    +0.000 A 
ATOM     34  C   UNL     1      -2.940  12.633  20.329  0.00  0.00    +0.000 A 
ENDBRANCH  25  28
ENDBRANCH   6  25
BRANCH   5  35
ATOM     35  O   UNL     1       0.161  12.403  19.236  0.00  0.00    +0.000 OA
ATOM     36  H   UNL     1       0.958  12.916  19.053  0.00  0.00    +0.000 HD
ENDBRANCH   5  35
TORSDOF 5
ENDMDL
MODEL 2
REMARK VINA RESULT:      -9.2      1.121      1.976
REMARK  Name = 
REMARK  7 active torsions:
REMARK  status: ('A' for Active; 'I' for Inactive)
REMARK    1  A    between atoms: C_1  and  C_2
REMARK    2  A    between atoms: C_5  and  C_6
REMARK    3  A    between atoms: C_7  and  N_8
REMARK    4  A    between atoms: C_9  and  C_11
REMARK    5  A    between atoms: C_15  and  O_16
REMARK    6  A    between atoms: C_17  and  S_18
REMARK    7  A    between atoms: S_18  and  C_21
REMARK                            x       y       z     vdW  Elec       q    Type
REMARK                         _______ _______ _______ _____ _____    ______ ____
ROOT
ATOM      1  C   UNL     1       2.421   7.601  18.819  0.00  0.00    +0.000 A 
ATOM      2  C   UNL     1       1.965   7.374  20.124  0.00  0.00    +0.000 A 
ATOM      3  C   UNL     1       1.173   8.325  20.788  0.00  0.00    +0.000 A 
ATOM      4  C   UNL     1       0.812   9.529  20.159  0.00  0.00    +0.000 A 
ATOM      5  C   UNL     1      -0.052  10.572  20.767  0.00  0.00    +0.000 A 
ATOM      6  C   UNL     1      -0.367  11.700  20.090  0.00  0.00    +0.000 A 
ATOM      7  C   UNL     1       0.182  11.915  18.735  0.00  0.00    +0.000 A 
ATOM      8  O   UNL     1      -0.001  12.931  18.075  0.00  0.00    +0.000 OA
ATOM      9  N   UNL     1       0.952  10.924  18.197  0.00  0.00    +0.000 N 
ATOM     10  C   UNL     1       1.289   9.740  18.858  0.00  0.00    +0.000 A 
ATOM     11  C   UNL     1       2.083   8.797  18.181  0.00  0.00    +0.000 A 
ATOM     12  H   UNL     1       1.292  11.103  17.258  0.00  0.00    +0.000 HD
ENDROOT
BRANCH   1  14
ATOM     13  N   UNL     1       4.431   6.855  17.635  0.00  0.00    +0.000 N 
ATOM     14  C   UNL     1       3.177   6.514  18.125  0.00  0.00    +0.000 C 
ATOM     15  O   UNL     1       2.682   5.393  18.094  0.00  0.00    +0.000 OA
ATOM     16  H   UNL     1       4.883   7.653  18.061  0.00  0.00    +0.000 HD
BRANCH  13  23
ATOM     17  C   UNL     1       5.669   4.244  13.612  0.00  0.00    +0.000 C 
ATOM     18  C   UNL     1       5.909   4.604  15.051  0.00  0.00    +0.000 A 
ATOM     19  C   UNL     1       6.993   4.075  15.751  0.00  0.00    +0.000 A 
ATOM     20  C   UNL     1       7.221   4.448  17.077  0.00  0.00    +0.000 A 
ATOM     21  C   UNL     1       6.385   5.374  17.724  0.00  0.00    +0.000 A 
ATOM     22  C   UNL     1       6.643   5.692  19.174  0.00  0.00    +0.000 C 
ATOM     23  C   UNL     1       5.281   5.895  17.028  0.00  0.00    +0.000 A 
ATOM     24  C   UNL     1       5.047   5.500  15.704  0.00  0.00    +0.000 A 
ENDBRANCH  13  23
ENDBRANCH   1  14
BRANCH   6  25
ATOM     25  S   UNL     1      -1.380  12.867  20.878  0.00  0.00    +0.000 S 
ATOM     26  O   UNL     1      -1.310  12.676  22.321  0.00  0.00    +0.000 OA
ATOM     27  O   UNL     1      -1.106  14.185  20.324  0.00  0.00    +0.000 OA
BRANCH  25  28
ATOM     28  C   UNL     1      -3.087  12.533  20.470  0.00  0.00    +0.000 A 
ATOM     29  C   UNL     1      -4.084  12.755  21.429  0.00  0.00    +0.000 A 
ATOM     30  C   UNL     1      -5.418  12.490  21.109  0.00  0.00    +0.000 A 
ATOM     31  C   UNL     1      -5.747  12.031  19.833  0.00  0.00    +0.000 A 
ATOM     32 CL   UNL     1      -7.387  11.671  19.453  0.00  0.00    +0.000 Cl
ATOM     33  C   UNL     1      -4.760  11.861  18.861  0.00  0.00    +0.000 A 
ATOM     34  C   UNL     1      -3.424  12.124  19.174  0.00  0.00    +0.000 A 
ENDBRANCH  25  28
ENDBRANCH   6  25
BRANCH   5  35
ATOM     35  O   UNL     1      -0.534  10.366  22.047  0.00  0.00    +0.000 OA
ATOM     36  H   UNL     1      -0.171  10.993  22.685  0.00  0.00    +0.000 HD
ENDBRANCH   5  35
TORSDOF 5
ENDMDL
MODEL 3
REMARK VINA RESULT:      -9.2      4.207     10.858
REMARK  Name = 
REMARK  7 active torsions:
REMARK  status: ('A' for Active; 'I' for Inactive)
REMARK    1  A    between atoms: C_1  and  C_2
REMARK    2  A    between atoms: C_5  and  C_6
REMARK    3  A    between atoms: C_7  and  N_8
REMARK    4  A    between atoms: C_9  and  C_11
REMARK    5  A    between atoms: C_15  and  O_16
REMARK    6  A    between atoms: C_17  and  S_18
REMARK    7  A    between atoms: S_18  and  C_21
REMARK                            x       y       z     vdW  Elec       q    Type
REMARK                         _______ _______ _______ _____ _____    ______ ____
ROOT
ATOM      1  C   UNL     1       0.567   9.183  20.327  0.00  0.00    +0.000 A 
ATOM      2  C   UNL     1       0.587   8.125  21.244  0.00  0.00    +0.000 A 
ATOM      3  C   UNL     1       1.416   7.010  21.044  0.00  0.00    +0.000 A 
ATOM      4  C   UNL     1       2.254   6.928  19.919  0.00  0.00    +0.000 A 
ATOM      5  C   UNL     1       3.191   5.809  19.645  0.00  0.00    +0.000 A 
ATOM      6  C   UNL     1       3.978   5.810  18.544  0.00  0.00    +0.000 A 
ATOM      7  C   UNL     1       3.882   6.925  17.580  0.00  0.00    +0.000 A 
ATOM      8  O   UNL     1       4.510   6.978  16.529  0.00  0.00    +0.000 OA
ATOM      9  N   UNL     1       3.028   7.949  17.876  0.00  0.00    +0.000 N 
ATOM     10  C   UNL     1       2.210   7.992  19.007  0.00  0.00    +0.000 A 
ATOM     11  C   UNL     1       1.384   9.115  19.196  0.00  0.00    +0.000 A 
ATOM     12  H   UNL     1       3.008   8.703  17.198  0.00  0.00    +0.000 HD
ENDROOT
BRANCH   1  14
ATOM     13  N   UNL     1      -0.138  10.902  21.923  0.00  0.00    +0.000 N 
ATOM     14  C   UNL     1      -0.261  10.388  20.639  0.00  0.00    +0.000 C 
ATOM     15  O   UNL     1      -0.932  10.879  19.738  0.00  0.00    +0.000 OA
ATOM     16  H   UNL     1       0.711  10.674  22.424  0.00  0.00    +0.000 HD
BRANCH  13  23
ATOM     17  C   UNL     1      -3.949  13.022  24.272  0.00  0.00    +0.000 C 
ATOM     18  C   UNL     1      -2.678  13.149  23.480  0.00  0.00    +0.000 A 
ATOM     19  C   UNL     1      -2.123  14.400  23.213  0.00  0.00    +0.000 A 
ATOM     20  C   UNL     1      -0.923  14.498  22.506  0.00  0.00    +0.000 A 
ATOM     21  C   UNL     1      -0.242  13.347  22.070  0.00  0.00    +0.000 A 
ATOM     22  C   UNL     1       1.016  13.517  21.258  0.00  0.00    +0.000 C 
ATOM     23  C   UNL     1      -0.809  12.087  22.320  0.00  0.00    +0.000 A 
ATOM     24  C   UNL     1      -2.023  11.998  23.013  0.00  0.00    +0.000 A 
ENDBRANCH  13  23
ENDBRANCH   1  14
BRANCH   6  25
ATOM     25  S   UNL     1       5.041   4.461  18.302  0.00  0.00    +0.000 S 
ATOM     26  O   UNL     1       6.196   4.588  19.182  0.00  0.00    +0.000 OA
ATOM     27  O   UNL     1       4.262   3.232  18.327  0.00  0.00    +0.000 OA
BRANCH  25  28
ATOM     28  C   UNL     1       5.730   4.546  16.655  0.00  0.00    +0.000 A 
ATOM     29  C   UNL     1       7.028   5.040  16.472  0.00  0.00    +0.000 A 
ATOM     30  C   UNL     1       7.563   5.108  15.184  0.00  0.00    +0.000 A 
ATOM     31  C   UNL     1       6.812   4.660  14.096  0.00  0.00    +0.000 A 
ATOM     32 CL   UNL     1       7.462   4.779  12.506  0.00  0.00    +0.000 Cl
ATOM     33  C   UNL     1       5.540   4.118  14.284  0.00  0.00    +0.000 A 
ATOM     34  C   UNL     1       4.998   4.048  15.570  0.00  0.00    +0.000 A 
ENDBRANCH  25  28
ENDBRANCH   6  25
BRANCH   5  35
ATOM     35  O   UNL     1       3.247   4.760  20.545  0.00  0.00    +0.000 OA
ATOM     36  H   UNL     1       3.953   4.134  20.340  0.00  0.00    +0.000 HD
ENDBRANCH   5  35
TORSDOF 5
ENDMDL
MODEL 4
REMARK VINA RESULT:      -9.0      2.476      2.977
REMARK  Name = 
REMARK  7 active torsions:
REMARK  status: ('A' for Active; 'I' for Inactive)
REMARK    1  A    between atoms: C_1  and  C_2
REMARK    2  A    between atoms: C_5  and  C_6
REMARK    3  A    between atoms: C_7  and  N_8
REMARK    4  A    between atoms: C_9  and  C_11
REMARK    5  A    between atoms: C_15  and  O_16
REMARK    6  A    between atoms: C_17  and  S_18
REMARK    7  A    between atoms: S_18  and  C_21
REMARK                            x       y       z     vdW  Elec       q    Type
REMARK                         _______ _______ _______ _____ _____    ______ ____
ROOT
ATOM      1  C   UNL     1       2.332   7.450  18.538  0.00  0.00    +0.000 A 
ATOM      2  C   UNL     1       1.814   8.380  17.629  0.00  0.00    +0.000 A 
ATOM      3  C   UNL     1       1.052   9.474  18.070  0.00  0.00    +0.000 A 
ATOM      4  C   UNL     1       0.793   9.668  19.437  0.00  0.00    +0.000 A 
ATOM      5  C   UNL     1       0.032  10.814  19.997  0.00  0.00    +0.000 A 
ATOM      6  C   UNL     1      -0.163  10.938  21.330  0.00  0.00    +0.000 A 
ATOM      7  C   UNL     1       0.360   9.901  22.243  0.00  0.00    +0.000 A 
ATOM      8  O   UNL     1       0.179   9.901  23.456  0.00  0.00    +0.000 OA
ATOM      9  N   UNL     1       1.076   8.875  21.697  0.00  0.00    +0.000 N 
ATOM     10  C   UNL     1       1.311   8.719  20.329  0.00  0.00    +0.000 A 
ATOM     11  C   UNL     1       2.076   7.618  19.901  0.00  0.00    +0.000 A 
ATOM     12  H   UNL     1       1.434   8.197  22.361  0.00  0.00    +0.000 HD
ENDROOT
BRANCH   1  14
ATOM     13  N   UNL     1       4.345   6.765  17.320  0.00  0.00    +0.000 N 
ATOM     14  C   UNL     1       3.218   6.360  18.023  0.00  0.00    +0.000 C 
ATOM     15  O   UNL     1       2.936   5.202  18.309  0.00  0.00    +0.000 OA
ATOM     16  H   UNL     1       4.675   7.705  17.494  0.00  0.00    +0.000 HD
BRANCH  13  23
ATOM     17  C   UNL     1       6.090   4.009  13.593  0.00  0.00    +0.000 C 
ATOM     18  C   UNL     1       6.183   4.473  15.019  0.00  0.00    +0.000 A 
ATOM     19  C   UNL     1       7.235   4.066  15.838  0.00  0.00    +0.000 A 
ATOM     20  C   UNL     1       7.326   4.535  17.150  0.00  0.00    +0.000 A 
ATOM     21  C   UNL     1       6.377   5.437  17.664  0.00  0.00    +0.000 A 
ATOM     22  C   UNL     1       6.490   5.860  19.105  0.00  0.00    +0.000 C 
ATOM     23  C   UNL     1       5.304   5.833  16.848  0.00  0.00    +0.000 A 
ATOM     24  C   UNL     1       5.211   5.343  15.540  0.00  0.00    +0.000 A 
ENDBRANCH  13  23
ENDBRANCH   1  14
BRANCH   6  25
ATOM     25  S   UNL     1      -1.065  12.306  21.897  0.00  0.00    +0.000 S 
ATOM     26  O   UNL     1      -2.366  12.338  21.239  0.00  0.00    +0.000 OA
ATOM     27  O   UNL     1      -1.006  12.345  23.351  0.00  0.00    +0.000 OA
BRANCH  25  28
ATOM     28  C   UNL     1      -0.260  13.806  21.355  0.00  0.00    +0.000 A 
ATOM     29  C   UNL     1      -1.025  14.846  20.811  0.00  0.00    +0.000 A 
ATOM     30  C   UNL     1      -0.393  16.016  20.385  0.00  0.00    +0.000 A 
ATOM     31  C   UNL     1       0.989  16.149  20.528  0.00  0.00    +0.000 A 
ATOM     32 CL   UNL     1       1.770  17.578  19.969  0.00  0.00    +0.000 Cl
ATOM     33  C   UNL     1       1.744  15.135  21.120  0.00  0.00    +0.000 A 
ATOM     34  C   UNL     1       1.119  13.962  21.547  0.00  0.00    +0.000 A 
ENDBRANCH  25  28
ENDBRANCH   6  25
BRANCH   5  35
ATOM     35  O   UNL     1      -0.474  11.760  19.124  0.00  0.00    +0.000 OA
ATOM     36  H   UNL     1      -1.410  11.941  19.276  0.00  0.00    +0.000 HD
ENDBRANCH   5  35
TORSDOF 5
ENDMDL
MODEL 5
REMARK VINA RESULT:      -9.0      1.908      2.984
REMARK  Name = 
REMARK  7 active torsions:
REMARK  status: ('A' for Active; 'I' for Inactive)
REMARK    1  A    between atoms: C_1  and  C_2
REMARK    2  A    between atoms: C_5  and  C_6
REMARK    3  A    between atoms: C_7  and  N_8
REMARK    4  A    between atoms: C_9  and  C_11
REMARK    5  A    between atoms: C_15  and  O_16
REMARK    6  A    between atoms: C_17  and  S_18
REMARK    7  A    between atoms: S_18  and  C_21
REMARK                            x       y       z     vdW  Elec       q    Type
REMARK                         _______ _______ _______ _____ _____    ______ ____
ROOT
ATOM      1  C   UNL     1       1.677   8.538  19.550  0.00  0.00    +0.000 A 
ATOM      2  C   UNL     1       1.424   8.038  20.833  0.00  0.00    +0.000 A 
ATOM      3  C   UNL     1       0.599   8.735  21.730  0.00  0.00    +0.000 A 
ATOM      4  C   UNL     1      -0.000   9.951  21.362  0.00  0.00    +0.000 A 
ATOM      5  C   UNL     1      -0.916  10.736  22.229  0.00  0.00    +0.000 A 
ATOM      6  C   UNL     1      -1.466  11.894  21.796  0.00  0.00    +0.000 A 
ATOM      7  C   UNL     1      -1.127  12.405  20.452  0.00  0.00    +0.000 A 
ATOM      8  O   UNL     1      -1.530  13.471  20.002  0.00  0.00    +0.000 OA
ATOM      9  N   UNL     1      -0.301  11.645  19.673  0.00  0.00    +0.000 N 
ATOM     10  C   UNL     1       0.275  10.439  20.078  0.00  0.00    +0.000 A 
ATOM     11  C   UNL     1       1.101   9.752  19.169  0.00  0.00    +0.000 A 
ATOM     12  H   UNL     1      -0.110  12.023  18.751  0.00  0.00    +0.000 HD
ENDROOT
BRANCH   1  14
ATOM     13  N   UNL     1       2.966   6.504  19.098  0.00  0.00    +0.000 N 
ATOM     14  C   UNL     1       2.483   7.708  18.602  0.00  0.00    +0.000 C 
ATOM     15  O   UNL     1       2.605   8.101  17.448  0.00  0.00    +0.000 OA
ATOM     16  H   UNL     1       2.480   6.113  19.894  0.00  0.00    +0.000 HD
BRANCH  13  23
ATOM     17  C   UNL     1       7.297   4.943  17.270  0.00  0.00    +0.000 C 
ATOM     18  C   UNL     1       5.804   4.803  17.373  0.00  0.00    +0.000 A 
ATOM     19  C   UNL     1       5.139   3.749  16.747  0.00  0.00    +0.000 A 
ATOM     20  C   UNL     1       3.756   3.614  16.882  0.00  0.00    +0.000 A 
ATOM     21  C   UNL     1       3.012   4.516  17.663  0.00  0.00    +0.000 A 
ATOM     22  C   UNL     1       1.515   4.356  17.722  0.00  0.00    +0.000 C 
ATOM     23  C   UNL     1       3.676   5.590  18.278  0.00  0.00    +0.000 A 
ATOM     24  C   UNL     1       5.061   5.730  18.121  0.00  0.00    +0.000 A 
ENDBRANCH  13  23
ENDBRANCH   1  14
BRANCH   6  25
ATOM     25  S   UNL     1      -2.523  12.747  22.874  0.00  0.00    +0.000 S 
ATOM     26  O   UNL     1      -3.244  11.791  23.706  0.00  0.00    +0.000 OA
ATOM     27  O   UNL     1      -1.781  13.824  23.514  0.00  0.00    +0.000 OA
BRANCH  25  28
ATOM     28  C   UNL     1      -3.801  13.557  21.925  0.00  0.00    +0.000 A 
ATOM     29  C   UNL     1      -4.744  12.787  21.232  0.00  0.00    +0.000 A 
ATOM     30  C   UNL     1      -5.740  13.423  20.489  0.00  0.00    +0.000 A 
ATOM     31  C   UNL     1      -5.803  14.817  20.462  0.00  0.00    +0.000 A 
ATOM     32 CL   UNL     1      -7.011  15.597  19.515  0.00  0.00    +0.000 Cl
ATOM     33  C   UNL     1      -4.897  15.584  21.195  0.00  0.00    +0.000 A 
ATOM     34  C   UNL     1      -3.898  14.955  21.941  0.00  0.00    +0.000 A 
ENDBRANCH  25  28
ENDBRANCH   6  25
BRANCH   5  35
ATOM     35  O   UNL     1      -1.201  10.256  23.494  0.00  0.00    +0.000 OA
ATOM     36  H   UNL     1      -0.422   9.899  23.939  0.00  0.00    +0.000 HD
ENDBRANCH   5  35
TORSDOF 5
ENDMDL
MODEL 6
REMARK VINA RESULT:      -8.8      2.900      4.008
REMARK  Name = 
REMARK  7 active torsions:
REMARK  status: ('A' for Active; 'I' for Inactive)
REMARK    1  A    between atoms: C_1  and  C_2
REMARK    2  A    between atoms: C_5  and  C_6
REMARK    3  A    between atoms: C_7  and  N_8
REMARK    4  A    between atoms: C_9  and  C_11
REMARK    5  A    between atoms: C_15  and  O_16
REMARK    6  A    between atoms: C_17  and  S_18
REMARK    7  A    between atoms: S_18  and  C_21
REMARK                            x       y       z     vdW  Elec       q    Type
REMARK                         _______ _______ _______ _____ _____    ______ ____
ROOT
ATOM      1  C   UNL     1       1.471   8.898  19.372  0.00  0.00    +0.000 A 
ATOM      2  C   UNL     1       1.519   8.586  20.736  0.00  0.00    +0.000 A 
ATOM      3  C   UNL     1       0.706   9.260  21.660  0.00  0.00    +0.000 A 
ATOM      4  C   UNL     1      -0.184  10.264  21.240  0.00  0.00    +0.000 A 
ATOM      5  C   UNL     1      -1.109  11.001  22.138  0.00  0.00    +0.000 A 
ATOM      6  C   UNL     1      -1.948  11.945  21.654  0.00  0.00    +0.000 A 
ATOM      7  C   UNL     1      -1.924  12.273  20.214  0.00  0.00    +0.000 A 
ATOM      8  O   UNL     1      -2.604  13.154  19.700  0.00  0.00    +0.000 OA
ATOM      9  N   UNL     1      -1.079  11.558  19.413  0.00  0.00    +0.000 N 
ATOM     10  C   UNL     1      -0.208  10.568  19.872  0.00  0.00    +0.000 A 
ATOM     11  C   UNL     1       0.602   9.900  18.935  0.00  0.00    +0.000 A 
ATOM     12  H   UNL     1      -1.109  11.802  18.429  0.00  0.00    +0.000 HD
ENDROOT
BRANCH   1  14
ATOM     13  N   UNL     1       2.785   6.882  18.911  0.00  0.00    +0.000 N 
ATOM     14  C   UNL     1       2.287   8.082  18.421  0.00  0.00    +0.000 C 
ATOM     15  O   UNL     1       2.406   8.483  17.268  0.00  0.00    +0.000 OA
ATOM     16  H   UNL     1       2.302   6.481  19.704  0.00  0.00    +0.000 HD
BRANCH  13  23
ATOM     17  C   UNL     1       6.984   5.755  16.537  0.00  0.00    +0.000 C 
ATOM     18  C   UNL     1       5.571   5.406  16.915  0.00  0.00    +0.000 A 
ATOM     19  C   UNL     1       5.009   4.187  16.538  0.00  0.00    +0.000 A 
ATOM     20  C   UNL     1       3.708   3.865  16.927  0.00  0.00    +0.000 A 
ATOM     21  C   UNL     1       2.949   4.744  17.721  0.00  0.00    +0.000 A 
ATOM     22  C   UNL     1       1.530   4.370  18.059  0.00  0.00    +0.000 C 
ATOM     23  C   UNL     1       3.506   5.981  18.086  0.00  0.00    +0.000 A 
ATOM     24  C   UNL     1       4.805   6.305  17.674  0.00  0.00    +0.000 A 
ENDBRANCH  13  23
ENDBRANCH   1  14
BRANCH   6  25
ATOM     25  S   UNL     1      -2.992  12.759  22.774  0.00  0.00    +0.000 S 
ATOM     26  O   UNL     1      -4.062  13.429  22.044  0.00  0.00    +0.000 OA
ATOM     27  O   UNL     1      -3.336  11.844  23.853  0.00  0.00    +0.000 OA
BRANCH  25  28
ATOM     28  C   UNL     1      -2.092  14.089  23.556  0.00  0.00    +0.000 A 
ATOM     29  C   UNL     1      -1.036  14.707  22.873  0.00  0.00    +0.000 A 
ATOM     30  C   UNL     1      -0.331  15.744  23.488  0.00  0.00    +0.000 A 
ATOM     31  C   UNL     1      -0.700  16.173  24.763  0.00  0.00    +0.000 A 
ATOM     32 CL   UNL     1       0.193  17.428  25.532  0.00  0.00    +0.000 Cl
ATOM     33  C   UNL     1      -1.786  15.594  25.422  0.00  0.00    +0.000 A 
ATOM     34  C   UNL     1      -2.495  14.556  24.814  0.00  0.00    +0.000 A 
ENDBRANCH  25  28
ENDBRANCH   6  25
BRANCH   5  35
ATOM     35  O   UNL     1      -1.098  10.700  23.488  0.00  0.00    +0.000 OA
ATOM     36  H   UNL     1      -0.376  11.134  23.959  0.00  0.00    +0.000 HD
ENDBRANCH   5  35
TORSDOF 5
ENDMDL
MODEL 7
REMARK VINA RESULT:      -8.7      2.045      3.239
REMARK  Name = 
REMARK  7 active torsions:
REMARK  status: ('A' for Active; 'I' for Inactive)
REMARK    1  A    between atoms: C_1  and  C_2
REMARK    2  A    between atoms: C_5  and  C_6
REMARK    3  A    between atoms: C_7  and  N_8
REMARK    4  A    between atoms: C_9  and  C_11
REMARK    5  A    between atoms: C_15  and  O_16
REMARK    6  A    between atoms: C_17  and  S_18
REMARK    7  A    between atoms: S_18  and  C_21
REMARK                            x       y       z     vdW  Elec       q    Type
REMARK                         _______ _______ _______ _____ _____    ______ ____
ROOT
ATOM      1  C   UNL     1       1.432   8.705  20.108  0.00  0.00    +0.000 A 
ATOM      2  C   UNL     1       1.089   8.531  21.454  0.00  0.00    +0.000 A 
ATOM      3  C   UNL     1       0.384   9.523  22.153  0.00  0.00    +0.000 A 
ATOM      4  C   UNL     1      -0.003  10.716  21.519  0.00  0.00    +0.000 A 
ATOM      5  C   UNL     1      -0.783  11.801  22.167  0.00  0.00    +0.000 A 
ATOM      6  C   UNL     1      -1.130  12.916  21.483  0.00  0.00    +0.000 A 
ATOM      7  C   UNL     1      -0.699  13.074  20.079  0.00  0.00    +0.000 A 
ATOM      8  O   UNL     1      -0.915  14.074  19.404  0.00  0.00    +0.000 OA
ATOM      9  N   UNL     1      -0.004  12.046  19.508  0.00  0.00    +0.000 N 
ATOM     10  C   UNL     1       0.361  10.875  20.175  0.00  0.00    +0.000 A 
ATOM     11  C   UNL     1       1.068   9.889  19.462  0.00  0.00    +0.000 A 
ATOM     12  H   UNL     1       0.254  12.187  18.537  0.00  0.00    +0.000 HD
ENDROOT
BRANCH   1  14
ATOM     13  N   UNL     1       2.565   6.534  20.174  0.00  0.00    +0.000 N 
ATOM     14  C   UNL     1       2.097   7.577  19.386  0.00  0.00    +0.000 C 
ATOM     15  O   UNL     1       2.124   7.610  18.161  0.00  0.00    +0.000 OA
ATOM     16  H   UNL     1       2.140   6.428  21.086  0.00  0.00    +0.000 HD
BRANCH  13  23
ATOM     17  C   UNL     1       6.383   4.417  17.834  0.00  0.00    +0.000 C 
ATOM     18  C   UNL     1       5.020   4.308  18.458  0.00  0.00    +0.000 A 
ATOM     19  C   UNL     1       4.372   3.077  18.553  0.00  0.00    +0.000 A 
ATOM     20  C   UNL     1       3.121   2.989  19.168  0.00  0.00    +0.000 A 
ATOM     21  C   UNL     1       2.502   4.125  19.718  0.00  0.00    +0.000 A 
ATOM     22  C   UNL     1       1.125   3.981  20.313  0.00  0.00    +0.000 C 
ATOM     23  C   UNL     1       3.143   5.370  19.605  0.00  0.00    +0.000 A 
ATOM     24  C   UNL     1       4.389   5.453  18.970  0.00  0.00    +0.000 A 
ENDBRANCH  13  23
ENDBRANCH   1  14
BRANCH   6  25
ATOM     25  S   UNL     1      -2.039  14.134  22.318  0.00  0.00    +0.000 S 
ATOM     26  O   UNL     1      -1.510  14.298  23.667  0.00  0.00    +0.000 OA
ATOM     27  O   UNL     1      -2.167  15.303  21.461  0.00  0.00    +0.000 OA
BRANCH  25  28
ATOM     28  C   UNL     1      -3.710  13.551  22.568  0.00  0.00    +0.000 A 
ATOM     29  C   UNL     1      -4.296  13.651  23.836  0.00  0.00    +0.000 A 
ATOM     30  C   UNL     1      -5.601  13.192  24.030  0.00  0.00    +0.000 A 
ATOM     31  C   UNL     1      -6.316  12.662  22.955  0.00  0.00    +0.000 A 
ATOM     32 CL   UNL     1      -7.912  12.065  23.205  0.00  0.00    +0.000 Cl
ATOM     33  C   UNL     1      -5.751  12.613  21.680  0.00  0.00    +0.000 A 
ATOM     34  C   UNL     1      -4.447  13.069  21.479  0.00  0.00    +0.000 A 
ENDBRANCH  25  28
ENDBRANCH   6  25
BRANCH   5  35
ATOM     35  O   UNL     1      -1.154  11.648  23.490  0.00  0.00    +0.000 OA
ATOM     36  H   UNL     1      -2.077  11.382  23.588  0.00  0.00    +0.000 HD
ENDBRANCH   5  35
TORSDOF 5
ENDMDL
MODEL 8
REMARK VINA RESULT:      -8.7      1.749      2.930
REMARK  Name = 
REMARK  7 active torsions:
REMARK  status: ('A' for Active; 'I' for Inactive)
REMARK    1  A    between atoms: C_1  and  C_2
REMARK    2  A    between atoms: C_5  and  C_6
REMARK    3  A    between atoms: C_7  and  N_8
REMARK    4  A    between atoms: C_9  and  C_11
REMARK    5  A    between atoms: C_15  and  O_16
REMARK    6  A    between atoms: C_17  and  S_18
REMARK    7  A    between atoms: S_18  and  C_21
REMARK                            x       y       z     vdW  Elec       q    Type
REMARK                         _______ _______ _______ _____ _____    ______ ____
ROOT
ATOM      1  C   UNL     1       1.655   9.080  19.256  0.00  0.00    +0.000 A 
ATOM      2  C   UNL     1       1.321   8.637  20.542  0.00  0.00    +0.000 A 
ATOM      3  C   UNL     1       0.676   9.486  21.454  0.00  0.00    +0.000 A 
ATOM      4  C   UNL     1       0.341  10.804  21.100  0.00  0.00    +0.000 A 
ATOM      5  C   UNL     1      -0.376  11.758  21.984  0.00  0.00    +0.000 A 
ATOM      6  C   UNL     1      -0.676  13.009  21.563  0.00  0.00    +0.000 A 
ATOM      7  C   UNL     1      -0.256  13.445  20.215  0.00  0.00    +0.000 A 
ATOM      8  O   UNL     1      -0.432  14.576  19.776  0.00  0.00    +0.000 OA
ATOM      9  N   UNL     1       0.378  12.534  19.421  0.00  0.00    +0.000 N 
ATOM     10  C   UNL     1       0.694  11.231  19.813  0.00  0.00    +0.000 A 
ATOM     11  C   UNL     1       1.341  10.391  18.889  0.00  0.00    +0.000 A 
ATOM     12  H   UNL     1       0.631  12.869  18.497  0.00  0.00    +0.000 HD
ENDROOT
BRANCH   1  14
ATOM     13  N   UNL     1       2.846   6.979  18.849  0.00  0.00    +0.000 N 
ATOM     14  C   UNL     1       2.253   8.105  18.294  0.00  0.00    +0.000 C 
ATOM     15  O   UNL     1       2.123   8.321  17.094  0.00  0.00    +0.000 OA
ATOM     16  H   UNL     1       2.544   6.718  19.779  0.00  0.00    +0.000 HD
BRANCH  13  23
ATOM     17  C   UNL     1       6.419   5.397  15.806  0.00  0.00    +0.000 C 
ATOM     18  C   UNL     1       5.136   5.142  16.545  0.00  0.00    +0.000 A 
ATOM     19  C   UNL     1       4.525   3.889  16.509  0.00  0.00    +0.000 A 
ATOM     20  C   UNL     1       3.352   3.660  17.230  0.00  0.00    +0.000 A 
ATOM     21  C   UNL     1       2.776   4.672  18.020  0.00  0.00    +0.000 A 
ATOM     22  C   UNL     1       1.477   4.386  18.726  0.00  0.00    +0.000 C 
ATOM     23  C   UNL     1       3.379   5.941  18.042  0.00  0.00    +0.000 A 
ATOM     24  C   UNL     1       4.545   6.168  17.300  0.00  0.00    +0.000 A 
ENDBRANCH  13  23
ENDBRANCH   1  14
BRANCH   6  25
ATOM     25  S   UNL     1      -1.512  14.059  22.661  0.00  0.00    +0.000 S 
ATOM     26  O   UNL     1      -0.972  13.888  24.005  0.00  0.00    +0.000 OA
ATOM     27  O   UNL     1      -1.574  15.395  22.087  0.00  0.00    +0.000 OA
BRANCH  25  28
ATOM     28  C   UNL     1      -3.213  13.529  22.800  0.00  0.00    +0.000 A 
ATOM     29  C   UNL     1      -3.938  13.217  21.642  0.00  0.00    +0.000 A 
ATOM     30  C   UNL     1      -5.268  12.806  21.753  0.00  0.00    +0.000 A 
ATOM     31  C   UNL     1      -5.854  12.685  23.013  0.00  0.00    +0.000 A 
ATOM     32 CL   UNL     1      -7.505  12.212  23.144  0.00  0.00    +0.000 Cl
ATOM     33  C   UNL     1      -5.116  12.944  24.169  0.00  0.00    +0.000 A 
ATOM     34  C   UNL     1      -3.786  13.356  24.066  0.00  0.00    +0.000 A 
ENDBRANCH  25  28
ENDBRANCH   6  25
BRANCH   5  35
ATOM     35  O   UNL     1      -0.736  11.341  23.252  0.00  0.00    +0.000 OA
ATOM     36  H   UNL     1      -0.788  10.380  23.325  0.00  0.00    +0.000 HD
ENDBRANCH   5  35
TORSDOF 5
ENDMDL
MODEL 9
REMARK VINA RESULT:      -8.7      2.116      3.195
REMARK  Name = 
REMARK  7 active torsions:
REMARK  status: ('A' for Active; 'I' for Inactive)
REMARK    1  A    between atoms: C_1  and  C_2
REMARK    2  A    between atoms: C_5  and  C_6
REMARK    3  A    between atoms: C_7  and  N_8
REMARK    4  A    between atoms: C_9  and  C_11
REMARK    5  A    between atoms: C_15  and  O_16
REMARK    6  A    between atoms: C_17  and  S_18
REMARK    7  A    between atoms: S_18  and  C_21
REMARK                            x       y       z     vdW  Elec       q    Type
REMARK                         _______ _______ _______ _____ _____    ______ ____
ROOT
ATOM      1  C   UNL     1       1.529   8.379  19.843  0.00  0.00    +0.000 A 
ATOM      2  C   UNL     1       1.202   8.165  21.188  0.00  0.00    +0.000 A 
ATOM      3  C   UNL     1       0.592   9.172  21.952  0.00  0.00    +0.000 A 
ATOM      4  C   UNL     1       0.287  10.422  21.387  0.00  0.00    +0.000 A 
ATOM      5  C   UNL     1      -0.391  11.530  22.106  0.00  0.00    +0.000 A 
ATOM      6  C   UNL     1      -0.663  12.701  21.485  0.00  0.00    +0.000 A 
ATOM      7  C   UNL     1      -0.251  12.895  20.080  0.00  0.00    +0.000 A 
ATOM      8  O   UNL     1      -0.403  13.942  19.460  0.00  0.00    +0.000 OA
ATOM      9  N   UNL     1       0.348  11.847  19.443  0.00  0.00    +0.000 N 
ATOM     10  C   UNL     1       0.634  10.619  20.043  0.00  0.00    +0.000 A 
ATOM     11  C   UNL     1       1.246   9.619  19.266  0.00  0.00    +0.000 A 
ATOM     12  H   UNL     1       0.596  12.016  18.474  0.00  0.00    +0.000 HD
ENDROOT
BRANCH   1  14
ATOM     13  N   UNL     1       2.210   6.029  19.719  0.00  0.00    +0.000 N 
ATOM     14  C   UNL     1       2.088   7.240  19.051  0.00  0.00    +0.000 C 
ATOM     15  O   UNL     1       2.332   7.426  17.864  0.00  0.00    +0.000 OA
ATOM     16  H   UNL     1       1.622   5.896  20.531  0.00  0.00    +0.000 HD
BRANCH  13  23
ATOM     17  C   UNL     1       5.239   3.916  16.418  0.00  0.00    +0.000 C 
ATOM     18  C   UNL     1       4.142   3.794  17.438  0.00  0.00    +0.000 A 
ATOM     19  C   UNL     1       3.628   2.548  17.792  0.00  0.00    +0.000 A 
ATOM     20  C   UNL     1       2.634   2.450  18.768  0.00  0.00    +0.000 A 
ATOM     21  C   UNL     1       2.149   3.595  19.426  0.00  0.00    +0.000 A 
ATOM     22  C   UNL     1       1.034   3.435  20.426  0.00  0.00    +0.000 C 
ATOM     23  C   UNL     1       2.651   4.854  19.058  0.00  0.00    +0.000 A 
ATOM     24  C   UNL     1       3.634   4.945  18.064  0.00  0.00    +0.000 A 
ENDBRANCH  13  23
ENDBRANCH   1  14
BRANCH   6  25
ATOM     25  S   UNL     1      -1.456  13.943  22.401  0.00  0.00    +0.000 S 
ATOM     26  O   UNL     1      -0.887  13.997  23.743  0.00  0.00    +0.000 OA
ATOM     27  O   UNL     1      -1.509  15.160  21.605  0.00  0.00    +0.000 OA
BRANCH  25  28
ATOM     28  C   UNL     1      -3.162  13.479  22.665  0.00  0.00    +0.000 A 
ATOM     29  C   UNL     1      -3.972  13.166  21.566  0.00  0.00    +0.000 A 
ATOM     30  C   UNL     1      -5.305  12.807  21.774  0.00  0.00    +0.000 A 
ATOM     31  C   UNL     1      -5.811  12.739  23.073  0.00  0.00    +0.000 A 
ATOM     32 CL   UNL     1      -7.465  12.330  23.323  0.00  0.00    +0.000 Cl
ATOM     33  C   UNL     1      -4.989  12.998  24.170  0.00  0.00    +0.000 A 
ATOM     34  C   UNL     1      -3.655  13.358  23.970  0.00  0.00    +0.000 A 
ENDBRANCH  25  28
ENDBRANCH   6  25
BRANCH   5  35
ATOM     35  O   UNL     1      -0.744  11.339  23.429  0.00  0.00    +0.000 OA
ATOM     36  H   UNL     1      -0.142  10.744  23.891  0.00  0.00    +0.000 HD
ENDBRANCH   5  35
TORSDOF 5
ENDMDL
