MODEL 1
REMARK VINA RESULT:      -7.6      0.000      0.000
REMARK  Name = 
REMARK  8 active torsions:
REMARK  status: ('A' for Active; 'I' for Inactive)
REMARK    1  A    between atoms: C_1  and  N_2
REMARK    2  A    between atoms: C_5  and  N_6
REMARK    3  A    between atoms: C_7  and  C_9
REMARK    4  A    between atoms: C_11  and  C_12
REMARK    5  A    between atoms: C_21  and  N_22
REMARK    6  A    between atoms: C_23  and  N_24
REMARK    7  A    between atoms: C_28  and  C_30
REMARK    8  A    between atoms: C_30  and  N_31
REMARK                            x       y       z     vdW  Elec       q    Type
REMARK                         _______ _______ _______ _____ _____    ______ ____
ROOT
ATOM      1  N   UNL     1       1.633  11.371  19.423  0.00  0.00    +0.000 N 
ATOM      2  C   UNL     1       0.926  10.323  18.842  0.00  0.00    +0.000 C 
ATOM      3  O   UNL     1      -0.064  10.456  18.128  0.00  0.00    +0.000 OA
ATOM      4  H   UNL     1       2.407  11.125  20.021  0.00  0.00    +0.000 HD
ENDROOT
BRANCH   1   9
ATOM      5  C   UNL     1      -0.541  15.826  19.311  0.00  0.00    +0.000 C 
ATOM      6  N   UNL     1       0.377  14.710  19.270  0.00  0.00    +0.000 N 
ATOM      7  N   UNL     1       1.502  14.892  18.552  0.00  0.00    +0.000 NA
ATOM      8  C   UNL     1       2.047  13.682  18.509  0.00  0.00    +0.000 A 
ATOM      9  C   UNL     1       1.315  12.716  19.238  0.00  0.00    +0.000 A 
ATOM     10  C   UNL     1       0.212  13.410  19.753  0.00  0.00    +0.000 A 
BRANCH  10  11
ATOM     11  N   UNL     1      -0.900  13.020  20.484  0.00  0.00    +0.000 N 
ATOM     12  C   UNL     1      -2.165  12.747  19.796  0.00  0.00    +0.000 C 
ATOM     13  C   UNL     1      -3.380  13.228  20.594  0.00  0.00    +0.000 C 
ATOM     14  C   UNL     1      -3.628  12.443  21.879  0.00  0.00    +0.000 C 
ATOM     15  C   UNL     1      -2.843  12.926  23.108  0.00  0.00    +0.000 C 
ATOM     16  F   UNL     1      -2.972  11.922  24.045  0.00  0.00    +0.000 F 
ATOM     17  C   UNL     1      -1.337  13.141  22.897  0.00  0.00    +0.000 C 
ATOM     18  C   UNL     1      -0.717  12.316  21.769  0.00  0.00    +0.000 C 
BRANCH  15  19
ATOM     19  C   UNL     1      -3.516  14.188  23.719  0.00  0.00    +0.000 C 
BRANCH  19  20
ATOM     20  N   UNL     1      -3.817  14.071  25.151  0.00  0.00    +0.000 NA
ATOM     21  H   UNL     1      -4.682  14.574  25.345  0.00  0.00    +0.000 HD
ATOM     22  H   UNL     1      -3.086  14.536  25.689  0.00  0.00    +0.000 HD
ENDBRANCH  19  20
ENDBRANCH  15  19
ENDBRANCH  10  11
ENDBRANCH   1   9
BRANCH   2  23
ATOM     23  C   UNL     1       1.465   8.989  19.164  0.00  0.00    +0.000 A 
ATOM     24  N   UNL     1       2.154   8.213  18.216  0.00  0.00    +0.000 NA
ATOM     25  C   UNL     1       2.475   7.040  18.737  0.00  0.00    +0.000 A 
ATOM     26  S   UNL     1       2.096   6.866  20.406  0.00  0.00    +0.000 S 
ATOM     27  C   UNL     1       1.311   8.379  20.405  0.00  0.00    +0.000 A 
BRANCH  25  28
ATOM     28  C   UNL     1       3.121   5.937  18.013  0.00  0.00    +0.000 A 
ATOM     29  C   UNL     1       4.358   6.121  17.388  0.00  0.00    +0.000 A 
ATOM     30  F   UNL     1       5.004   7.294  17.483  0.00  0.00    +0.000 F 
ATOM     31  C   UNL     1       4.974   5.096  16.664  0.00  0.00    +0.000 A 
ATOM     32  C   UNL     1       4.356   3.852  16.547  0.00  0.00    +0.000 A 
ATOM     33  C   UNL     1       3.129   3.640  17.162  0.00  0.00    +0.000 A 
ATOM     34  C   UNL     1       2.524   4.674  17.881  0.00  0.00    +0.000 A 
ATOM     35  F   UNL     1       1.325   4.416  18.426  0.00  0.00    +0.000 F 
ENDBRANCH  25  28
BRANCH  27  36
ATOM     36  N   UNL     1       0.668   8.816  21.513  0.00  0.00    +0.000 N 
ATOM     37  H   UNL     1       1.116   8.746  22.420  0.00  0.00    +0.000 HD
ATOM     38  H   UNL     1      -0.354   8.773  21.541  0.00  0.00    +0.000 HD
ENDBRANCH  27  36
ENDBRANCH   2  23
TORSDOF 7
ENDMDL
MODEL 2
REMARK VINA RESULT:      -7.6      0.247      1.460
REMARK  Name = 
REMARK  8 active torsions:
REMARK  status: ('A' for Active; 'I' for Inactive)
REMARK    1  A    between atoms: C_1  and  N_2
REMARK    2  A    between atoms: C_5  and  N_6
REMARK    3  A    between atoms: C_7  and  C_9
REMARK    4  A    between atoms: C_11  and  C_12
REMARK    5  A    between atoms: C_21  and  N_22
REMARK    6  A    between atoms: C_23  and  N_24
REMARK    7  A    between atoms: C_28  and  C_30
REMARK    8  A    between atoms: C_30  and  N_31
REMARK                            x       y       z     vdW  Elec       q    Type
REMARK                         _______ _______ _______ _____ _____    ______ ____
ROOT
ATOM      1  N   UNL     1       1.633  11.403  19.445  0.00  0.00    +0.000 N 
ATOM      2  C   UNL     1       0.932  10.362  18.845  0.00  0.00    +0.000 C 
ATOM      3  O   UNL     1      -0.055  10.503  18.126  0.00  0.00    +0.000 OA
ATOM      4  H   UNL     1       2.404  11.150  20.044  0.00  0.00    +0.000 HD
ENDROOT
BRANCH   1   9
ATOM      5  C   UNL     1      -0.550  15.854  19.387  0.00  0.00    +0.000 C 
ATOM      6  N   UNL     1       0.370  14.741  19.333  0.00  0.00    +0.000 N 
ATOM      7  N   UNL     1       1.497  14.935  18.621  0.00  0.00    +0.000 NA
ATOM      8  C   UNL     1       2.044  13.727  18.564  0.00  0.00    +0.000 A 
ATOM      9  C   UNL     1       1.312  12.750  19.277  0.00  0.00    +0.000 A 
ATOM     10  C   UNL     1       0.207  13.434  19.798  0.00  0.00    +0.000 A 
BRANCH  10  11
ATOM     11  N   UNL     1      -0.907  13.032  20.520  0.00  0.00    +0.000 N 
ATOM     12  C   UNL     1      -2.177  12.793  19.828  0.00  0.00    +0.000 C 
ATOM     13  C   UNL     1      -3.384  13.260  20.646  0.00  0.00    +0.000 C 
ATOM     14  C   UNL     1      -3.636  12.437  21.907  0.00  0.00    +0.000 C 
ATOM     15  C   UNL     1      -2.843  12.874  23.147  0.00  0.00    +0.000 C 
ATOM     16  F   UNL     1      -2.979  11.844  24.053  0.00  0.00    +0.000 F 
ATOM     17  C   UNL     1      -1.336  13.082  22.938  0.00  0.00    +0.000 C 
ATOM     18  C   UNL     1      -0.727  12.287  21.783  0.00  0.00    +0.000 C 
BRANCH  15  19
ATOM     19  C   UNL     1      -3.502  14.123  23.800  0.00  0.00    +0.000 C 
BRANCH  19  20
ATOM     20  N   UNL     1      -4.863  13.890  24.296  0.00  0.00    +0.000 NA
ATOM     21  H   UNL     1      -4.900  14.146  25.282  0.00  0.00    +0.000 HD
ATOM     22  H   UNL     1      -5.073  12.893  24.250  0.00  0.00    +0.000 HD
ENDBRANCH  19  20
ENDBRANCH  15  19
ENDBRANCH  10  11
ENDBRANCH   1   9
BRANCH   2  23
ATOM     23  C   UNL     1       1.472   9.024  19.151  0.00  0.00    +0.000 A 
ATOM     24  N   UNL     1       2.170   8.264  18.196  0.00  0.00    +0.000 NA
ATOM     25  C   UNL     1       2.491   7.085  18.702  0.00  0.00    +0.000 A 
ATOM     26  S   UNL     1       2.100   6.885  20.366  0.00  0.00    +0.000 S 
ATOM     27  C   UNL     1       1.310   8.395  20.381  0.00  0.00    +0.000 A 
BRANCH  25  28
ATOM     28  C   UNL     1       3.144   5.994  17.967  0.00  0.00    +0.000 A 
ATOM     29  C   UNL     1       2.525   4.746  17.842  0.00  0.00    +0.000 A 
ATOM     30  F   UNL     1       1.299   4.539  18.347  0.00  0.00    +0.000 F 
ATOM     31  C   UNL     1       3.144   3.684  17.178  0.00  0.00    +0.000 A 
ATOM     32  C   UNL     1       4.411   3.848  16.621  0.00  0.00    +0.000 A 
ATOM     33  C   UNL     1       5.047   5.078  16.726  0.00  0.00    +0.000 A 
ATOM     34  C   UNL     1       4.418   6.132  17.393  0.00  0.00    +0.000 A 
ATOM     35  F   UNL     1       5.096   7.286  17.487  0.00  0.00    +0.000 F 
ENDBRANCH  25  28
BRANCH  27  36
ATOM     36  N   UNL     1       0.658   8.814  21.491  0.00  0.00    +0.000 N 
ATOM     37  H   UNL     1       1.062   9.538  22.074  0.00  0.00    +0.000 HD
ATOM     38  H   UNL     1       0.058   8.153  21.991  0.00  0.00    +0.000 HD
ENDBRANCH  27  36
ENDBRANCH   2  23
TORSDOF 7
ENDMDL
MODEL 3
REMARK VINA RESULT:      -7.5      3.573      9.131
REMARK  Name = 
REMARK  8 active torsions:
REMARK  status: ('A' for Active; 'I' for Inactive)
REMARK    1  A    between atoms: C_1  and  N_2
REMARK    2  A    between atoms: C_5  and  N_6
REMARK    3  A    between atoms: C_7  and  C_9
REMARK    4  A    between atoms: C_11  and  C_12
REMARK    5  A    between atoms: C_21  and  N_22
REMARK    6  A    between atoms: C_23  and  N_24
REMARK    7  A    between atoms: C_28  and  C_30
REMARK    8  A    between atoms: C_30  and  N_31
REMARK                            x       y       z     vdW  Elec       q    Type
REMARK                         _______ _______ _______ _____ _____    ______ ____
ROOT
ATOM      1  N   UNL     1       3.672   7.269  17.825  0.00  0.00    +0.000 N 
ATOM      2  C   UNL     1       2.359   6.961  18.169  0.00  0.00    +0.000 C 
ATOM      3  O   UNL     1       1.730   5.997  17.739  0.00  0.00    +0.000 OA
ATOM      4  H   UNL     1       4.061   8.112  18.219  0.00  0.00    +0.000 HD
ENDROOT
BRANCH   1   9
ATOM      5  C   UNL     1       6.116   3.617  15.530  0.00  0.00    +0.000 C 
ATOM      6  N   UNL     1       5.462   4.851  15.903  0.00  0.00    +0.000 N 
ATOM      7  N   UNL     1       5.851   5.956  15.238  0.00  0.00    +0.000 NA
ATOM      8  C   UNL     1       5.265   6.945  15.901  0.00  0.00    +0.000 A 
ATOM      9  C   UNL     1       4.449   6.495  16.965  0.00  0.00    +0.000 A 
ATOM     10  C   UNL     1       4.574   5.100  16.952  0.00  0.00    +0.000 A 
BRANCH  10  11
ATOM     11  N   UNL     1       4.088   4.094  17.773  0.00  0.00    +0.000 N 
ATOM     12  C   UNL     1       3.443   2.918  17.182  0.00  0.00    +0.000 C 
ATOM     13  C   UNL     1       2.247   2.431  18.005  0.00  0.00    +0.000 C 
ATOM     14  C   UNL     1       2.626   1.844  19.362  0.00  0.00    +0.000 C 
ATOM     15  C   UNL     1       2.778   2.863  20.501  0.00  0.00    +0.000 C 
ATOM     16  F   UNL     1       3.405   2.182  21.523  0.00  0.00    +0.000 F 
ATOM     17  C   UNL     1       3.648   4.089  20.189  0.00  0.00    +0.000 C 
ATOM     18  C   UNL     1       4.699   3.877  19.100  0.00  0.00    +0.000 C 
BRANCH  15  19
ATOM     19  C   UNL     1       1.381   3.281  21.044  0.00  0.00    +0.000 C 
BRANCH  19  20
ATOM     20  N   UNL     1       0.672   4.243  20.192  0.00  0.00    +0.000 NA
ATOM     21  H   UNL     1       1.359   4.812  19.699  0.00  0.00    +0.000 HD
ATOM     22  H   UNL     1       0.136   4.883  20.779  0.00  0.00    +0.000 HD
ENDBRANCH  19  20
ENDBRANCH  15  19
ENDBRANCH  10  11
ENDBRANCH   1   9
BRANCH   2  23
ATOM     23  C   UNL     1       1.749   7.914  19.114  0.00  0.00    +0.000 A 
ATOM     24  N   UNL     1       1.225   9.150  18.694  0.00  0.00    +0.000 NA
ATOM     25  C   UNL     1       0.797   9.839  19.738  0.00  0.00    +0.000 A 
ATOM     26  S   UNL     1       0.872   8.996  21.237  0.00  0.00    +0.000 S 
ATOM     27  C   UNL     1       1.671   7.692  20.485  0.00  0.00    +0.000 A 
BRANCH  25  28
ATOM     28  C   UNL     1       0.271  11.209  19.695  0.00  0.00    +0.000 A 
ATOM     29  C   UNL     1      -0.964  11.481  19.098  0.00  0.00    +0.000 A 
ATOM     30  F   UNL     1      -1.716  10.486  18.600  0.00  0.00    +0.000 F 
ATOM     31  C   UNL     1      -1.468  12.782  19.013  0.00  0.00    +0.000 A 
ATOM     32  C   UNL     1      -0.737  13.851  19.527  0.00  0.00    +0.000 A 
ATOM     33  C   UNL     1       0.491  13.610  20.130  0.00  0.00    +0.000 A 
ATOM     34  C   UNL     1       0.983  12.305  20.207  0.00  0.00    +0.000 A 
ATOM     35  F   UNL     1       2.189  12.141  20.774  0.00  0.00    +0.000 F 
ENDBRANCH  25  28
BRANCH  27  36
ATOM     36  N   UNL     1       2.116   6.646  21.221  0.00  0.00    +0.000 N 
ATOM     37  H   UNL     1       1.682   6.433  22.112  0.00  0.00    +0.000 HD
ATOM     38  H   UNL     1       3.100   6.378  21.155  0.00  0.00    +0.000 HD
ENDBRANCH  27  36
ENDBRANCH   2  23
TORSDOF 7
ENDMDL
MODEL 4
REMARK VINA RESULT:      -7.5      3.550      9.048
REMARK  Name = 
REMARK  8 active torsions:
REMARK  status: ('A' for Active; 'I' for Inactive)
REMARK    1  A    between atoms: C_1  and  N_2
REMARK    2  A    between atoms: C_5  and  N_6
REMARK    3  A    between atoms: C_7  and  C_9
REMARK    4  A    between atoms: C_11  and  C_12
REMARK    5  A    between atoms: C_21  and  N_22
REMARK    6  A    between atoms: C_23  and  N_24
REMARK    7  A    between atoms: C_28  and  C_30
REMARK    8  A    between atoms: C_30  and  N_31
REMARK                            x       y       z     vdW  Elec       q    Type
REMARK                         _______ _______ _______ _____ _____    ______ ____
ROOT
ATOM      1  N   UNL     1       3.657   7.284  17.813  0.00  0.00    +0.000 N 
ATOM      2  C   UNL     1       2.350   6.964  18.165  0.00  0.00    +0.000 C 
ATOM      3  O   UNL     1       1.728   5.991  17.745  0.00  0.00    +0.000 OA
ATOM      4  H   UNL     1       4.039   8.134  18.200  0.00  0.00    +0.000 HD
ENDROOT
BRANCH   1   9
ATOM      5  C   UNL     1       6.118   3.642  15.521  0.00  0.00    +0.000 C 
ATOM      6  N   UNL     1       5.458   4.873  15.893  0.00  0.00    +0.000 N 
ATOM      7  N   UNL     1       5.845   5.979  15.229  0.00  0.00    +0.000 NA
ATOM      8  C   UNL     1       5.254   6.966  15.891  0.00  0.00    +0.000 A 
ATOM      9  C   UNL     1       4.438   6.513  16.954  0.00  0.00    +0.000 A 
ATOM     10  C   UNL     1       4.568   5.118  16.941  0.00  0.00    +0.000 A 
BRANCH  10  11
ATOM     11  N   UNL     1       4.084   4.111  17.761  0.00  0.00    +0.000 N 
ATOM     12  C   UNL     1       3.423   2.943  17.170  0.00  0.00    +0.000 C 
ATOM     13  C   UNL     1       2.234   2.460  18.004  0.00  0.00    +0.000 C 
ATOM     14  C   UNL     1       2.625   1.861  19.352  0.00  0.00    +0.000 C 
ATOM     15  C   UNL     1       2.799   2.871  20.496  0.00  0.00    +0.000 C 
ATOM     16  F   UNL     1       3.432   2.178  21.506  0.00  0.00    +0.000 F 
ATOM     17  C   UNL     1       3.674   4.092  20.182  0.00  0.00    +0.000 C 
ATOM     18  C   UNL     1       4.710   3.880  19.079  0.00  0.00    +0.000 C 
BRANCH  15  19
ATOM     19  C   UNL     1       1.411   3.296  21.059  0.00  0.00    +0.000 C 
BRANCH  19  20
ATOM     20  N   UNL     1       0.675   4.225  20.194  0.00  0.00    +0.000 NA
ATOM     21  H   UNL     1       0.946   4.056  19.227  0.00  0.00    +0.000 HD
ATOM     22  H   UNL     1       0.956   5.182  20.409  0.00  0.00    +0.000 HD
ENDBRANCH  19  20
ENDBRANCH  15  19
ENDBRANCH  10  11
ENDBRANCH   1   9
BRANCH   2  23
ATOM     23  C   UNL     1       1.734   7.917  19.107  0.00  0.00    +0.000 A 
ATOM     24  N   UNL     1       1.198   9.146  18.683  0.00  0.00    +0.000 NA
ATOM     25  C   UNL     1       0.767   9.836  19.725  0.00  0.00    +0.000 A 
ATOM     26  S   UNL     1       0.853   9.001  21.228  0.00  0.00    +0.000 S 
ATOM     27  C   UNL     1       1.661   7.700  20.479  0.00  0.00    +0.000 A 
BRANCH  25  28
ATOM     28  C   UNL     1       0.229  11.202  19.676  0.00  0.00    +0.000 A 
ATOM     29  C   UNL     1       0.944  12.271  20.227  0.00  0.00    +0.000 A 
ATOM     30  F   UNL     1       2.158  12.075  20.764  0.00  0.00    +0.000 F 
ATOM     31  C   UNL     1       0.435  13.572  20.224  0.00  0.00    +0.000 A 
ATOM     32  C   UNL     1      -0.814  13.835  19.666  0.00  0.00    +0.000 A 
ATOM     33  C   UNL     1      -1.543  12.793  19.107  0.00  0.00    +0.000 A 
ATOM     34  C   UNL     1      -1.024  11.497  19.118  0.00  0.00    +0.000 A 
ATOM     35  F   UNL     1      -1.790  10.529  18.590  0.00  0.00    +0.000 F 
ENDBRANCH  25  28
BRANCH  27  36
ATOM     36  N   UNL     1       2.117   6.662  21.220  0.00  0.00    +0.000 N 
ATOM     37  H   UNL     1       2.999   6.740  21.713  0.00  0.00    +0.000 HD
ATOM     38  H   UNL     1       1.870   5.710  20.940  0.00  0.00    +0.000 HD
ENDBRANCH  27  36
ENDBRANCH   2  23
TORSDOF 7
ENDMDL
MODEL 5
REMARK VINA RESULT:      -7.5      2.628      4.485
REMARK  Name = 
REMARK  8 active torsions:
REMARK  status: ('A' for Active; 'I' for Inactive)
REMARK    1  A    between atoms: C_1  and  N_2
REMARK    2  A    between atoms: C_5  and  N_6
REMARK    3  A    between atoms: C_7  and  C_9
REMARK    4  A    between atoms: C_11  and  C_12
REMARK    5  A    between atoms: C_21  and  N_22
REMARK    6  A    between atoms: C_23  and  N_24
REMARK    7  A    between atoms: C_28  and  C_30
REMARK    8  A    between atoms: C_30  and  N_31
REMARK                            x       y       z     vdW  Elec       q    Type
REMARK                         _______ _______ _______ _____ _____    ______ ____
ROOT
ATOM      1  N   UNL     1      -0.098  10.231  21.179  0.00  0.00    +0.000 N 
ATOM      2  C   UNL     1       1.011   9.484  21.564  0.00  0.00    +0.000 C 
ATOM      3  O   UNL     1       1.595   9.599  22.639  0.00  0.00    +0.000 OA
ATOM      4  H   UNL     1      -0.462  10.065  20.253  0.00  0.00    +0.000 HD
ENDROOT
BRANCH   1   9
ATOM      5  C   UNL     1      -1.564  14.413  23.403  0.00  0.00    +0.000 C 
ATOM      6  N   UNL     1      -1.414  13.061  22.913  0.00  0.00    +0.000 N 
ATOM      7  N   UNL     1      -1.996  12.094  23.648  0.00  0.00    +0.000 NA
ATOM      8  C   UNL     1      -1.540  10.970  23.108  0.00  0.00    +0.000 A 
ATOM      9  C   UNL     1      -0.704  11.191  21.989  0.00  0.00    +0.000 A 
ATOM     10  C   UNL     1      -0.636  12.583  21.856  0.00  0.00    +0.000 A 
BRANCH  10  11
ATOM     11  N   UNL     1       0.069  13.424  21.008  0.00  0.00    +0.000 N 
ATOM     12  C   UNL     1      -0.640  14.165  19.961  0.00  0.00    +0.000 C 
ATOM     13  C   UNL     1       0.167  14.258  18.663  0.00  0.00    +0.000 C 
ATOM     14  C   UNL     1       1.417  15.127  18.770  0.00  0.00    +0.000 C 
ATOM     15  C   UNL     1       2.670  14.414  19.298  0.00  0.00    +0.000 C 
ATOM     16  F   UNL     1       3.566  15.418  19.600  0.00  0.00    +0.000 F 
ATOM     17  C   UNL     1       2.481  13.591  20.581  0.00  0.00    +0.000 C 
ATOM     18  C   UNL     1       1.327  14.042  21.475  0.00  0.00    +0.000 C 
BRANCH  15  19
ATOM     19  C   UNL     1       3.327  13.565  18.171  0.00  0.00    +0.000 C 
BRANCH  19  20
ATOM     20  N   UNL     1       2.410  12.618  17.525  0.00  0.00    +0.000 NA
ATOM     21  H   UNL     1       2.083  11.952  18.223  0.00  0.00    +0.000 HD
ATOM     22  H   UNL     1       2.921  12.077  16.828  0.00  0.00    +0.000 HD
ENDBRANCH  19  20
ENDBRANCH  15  19
ENDBRANCH  10  11
ENDBRANCH   1   9
BRANCH   2  23
ATOM     23  C   UNL     1       1.459   8.513  20.549  0.00  0.00    +0.000 A 
ATOM     24  N   UNL     1       1.714   7.167  20.864  0.00  0.00    +0.000 NA
ATOM     25  C   UNL     1       2.161   6.528  19.796  0.00  0.00    +0.000 A 
ATOM     26  S   UNL     1       2.163   7.459  18.348  0.00  0.00    +0.000 S 
ATOM     27  C   UNL     1       1.695   8.847  19.219  0.00  0.00    +0.000 A 
BRANCH  25  28
ATOM     28  C   UNL     1       2.617   5.132  19.769  0.00  0.00    +0.000 A 
ATOM     29  C   UNL     1       3.949   4.822  19.476  0.00  0.00    +0.000 A 
ATOM     30  F   UNL     1       4.847   5.797  19.265  0.00  0.00    +0.000 F 
ATOM     31  C   UNL     1       4.396   3.500  19.409  0.00  0.00    +0.000 A 
ATOM     32  C   UNL     1       3.510   2.448  19.635  0.00  0.00    +0.000 A 
ATOM     33  C   UNL     1       2.183   2.727  19.933  0.00  0.00    +0.000 A 
ATOM     34  C   UNL     1       1.748   4.053  19.995  0.00  0.00    +0.000 A 
ATOM     35  F   UNL     1       0.448   4.257  20.258  0.00  0.00    +0.000 F 
ENDBRANCH  25  28
BRANCH  27  36
ATOM     36  N   UNL     1       1.599  10.045  18.595  0.00  0.00    +0.000 N 
ATOM     37  H   UNL     1       2.326  10.742  18.721  0.00  0.00    +0.000 HD
ATOM     38  H   UNL     1       0.671  10.431  18.405  0.00  0.00    +0.000 HD
ENDBRANCH  27  36
ENDBRANCH   2  23
TORSDOF 7
ENDMDL
MODEL 6
REMARK VINA RESULT:      -7.4      3.533     10.057
REMARK  Name = 
REMARK  8 active torsions:
REMARK  status: ('A' for Active; 'I' for Inactive)
REMARK    1  A    between atoms: C_1  and  N_2
REMARK    2  A    between atoms: C_5  and  N_6
REMARK    3  A    between atoms: C_7  and  C_9
REMARK    4  A    between atoms: C_11  and  C_12
REMARK    5  A    between atoms: C_21  and  N_22
REMARK    6  A    between atoms: C_23  and  N_24
REMARK    7  A    between atoms: C_28  and  C_30
REMARK    8  A    between atoms: C_30  and  N_31
REMARK                            x       y       z     vdW  Elec       q    Type
REMARK                         _______ _______ _______ _____ _____    ______ ____
ROOT
ATOM      1  N   UNL     1       1.625   5.486  18.877  0.00  0.00    +0.000 N 
ATOM      2  C   UNL     1       2.187   6.352  19.808  0.00  0.00    +0.000 C 
ATOM      3  O   UNL     1       2.976   6.019  20.689  0.00  0.00    +0.000 OA
ATOM      4  H   UNL     1       0.960   5.880  18.229  0.00  0.00    +0.000 HD
ENDROOT
BRANCH   1   9
ATOM      5  C   UNL     1       3.753   1.048  18.278  0.00  0.00    +0.000 C 
ATOM      6  N   UNL     1       2.896   2.159  18.626  0.00  0.00    +0.000 N 
ATOM      7  N   UNL     1       1.611   1.857  18.896  0.00  0.00    +0.000 NA
ATOM      8  C   UNL     1       1.019   3.042  18.975  0.00  0.00    +0.000 A 
ATOM      9  C   UNL     1       1.916   4.124  18.812  0.00  0.00    +0.000 A 
ATOM     10  C   UNL     1       3.165   3.529  18.594  0.00  0.00    +0.000 A 
BRANCH  10  11
ATOM     11  N   UNL     1       4.421   4.036  18.299  0.00  0.00    +0.000 N 
ATOM     12  C   UNL     1       5.481   3.992  19.310  0.00  0.00    +0.000 C 
ATOM     13  C   UNL     1       6.361   5.245  19.290  0.00  0.00    +0.000 C 
ATOM     14  C   UNL     1       7.225   5.376  18.038  0.00  0.00    +0.000 C 
ATOM     15  C   UNL     1       6.543   6.042  16.834  0.00  0.00    +0.000 C 
ATOM     16  F   UNL     1       7.365   5.785  15.757  0.00  0.00    +0.000 F 
ATOM     17  C   UNL     1       5.154   5.500  16.468  0.00  0.00    +0.000 C 
ATOM     18  C   UNL     1       4.888   4.057  16.898  0.00  0.00    +0.000 C 
BRANCH  15  19
ATOM     19  C   UNL     1       6.521   7.588  17.011  0.00  0.00    +0.000 C 
BRANCH  19  20
ATOM     20  N   UNL     1       7.819   8.167  17.376  0.00  0.00    +0.000 NA
ATOM     21  H   UNL     1       7.694   9.162  17.557  0.00  0.00    +0.000 HD
ATOM     22  H   UNL     1       8.455   8.096  16.583  0.00  0.00    +0.000 HD
ENDBRANCH  19  20
ENDBRANCH  15  19
ENDBRANCH  10  11
ENDBRANCH   1   9
BRANCH   2  23
ATOM     23  C   UNL     1       1.745   7.752  19.665  0.00  0.00    +0.000 A 
ATOM     24  N   UNL     1       0.909   8.371  20.611  0.00  0.00    +0.000 NA
ATOM     25  C   UNL     1       0.611   9.599  20.218  0.00  0.00    +0.000 A 
ATOM     26  S   UNL     1       1.420  10.113  18.788  0.00  0.00    +0.000 S 
ATOM     27  C   UNL     1       2.085   8.557  18.583  0.00  0.00    +0.000 A 
BRANCH  25  28
ATOM     28  C   UNL     1      -0.310  10.511  20.906  0.00  0.00    +0.000 A 
ATOM     29  C   UNL     1      -1.157  11.353  20.178  0.00  0.00    +0.000 A 
ATOM     30  F   UNL     1      -1.180  11.305  18.837  0.00  0.00    +0.000 F 
ATOM     31  C   UNL     1      -2.016  12.256  20.811  0.00  0.00    +0.000 A 
ATOM     32  C   UNL     1      -2.046  12.337  22.202  0.00  0.00    +0.000 A 
ATOM     33  C   UNL     1      -1.219  11.509  22.950  0.00  0.00    +0.000 A 
ATOM     34  C   UNL     1      -0.364  10.612  22.305  0.00  0.00    +0.000 A 
ATOM     35  F   UNL     1       0.432   9.861  23.082  0.00  0.00    +0.000 F 
ENDBRANCH  25  28
BRANCH  27  36
ATOM     36  N   UNL     1       2.823   8.269  17.485  0.00  0.00    +0.000 N 
ATOM     37  H   UNL     1       3.402   7.437  17.467  0.00  0.00    +0.000 HD
ATOM     38  H   UNL     1       3.167   9.037  16.904  0.00  0.00    +0.000 HD
ENDBRANCH  27  36
ENDBRANCH   2  23
TORSDOF 7
ENDMDL
MODEL 7
REMARK VINA RESULT:      -7.4      3.513     10.106
REMARK  Name = 
REMARK  8 active torsions:
REMARK  status: ('A' for Active; 'I' for Inactive)
REMARK    1  A    between atoms: C_1  and  N_2
REMARK    2  A    between atoms: C_5  and  N_6
REMARK    3  A    between atoms: C_7  and  C_9
REMARK    4  A    between atoms: C_11  and  C_12
REMARK    5  A    between atoms: C_21  and  N_22
REMARK    6  A    between atoms: C_23  and  N_24
REMARK    7  A    between atoms: C_28  and  C_30
REMARK    8  A    between atoms: C_30  and  N_31
REMARK                            x       y       z     vdW  Elec       q    Type
REMARK                         _______ _______ _______ _____ _____    ______ ____
ROOT
ATOM      1  N   UNL     1       1.697   5.532  18.981  0.00  0.00    +0.000 N 
ATOM      2  C   UNL     1       1.906   6.299  20.122  0.00  0.00    +0.000 C 
ATOM      3  O   UNL     1       2.329   5.866  21.191  0.00  0.00    +0.000 OA
ATOM      4  H   UNL     1       1.309   6.003  18.178  0.00  0.00    +0.000 HD
ENDROOT
BRANCH   1   9
ATOM      5  C   UNL     1       3.770   1.076  18.321  0.00  0.00    +0.000 C 
ATOM      6  N   UNL     1       2.931   2.194  18.691  0.00  0.00    +0.000 N 
ATOM      7  N   UNL     1       1.649   1.903  18.985  0.00  0.00    +0.000 NA
ATOM      8  C   UNL     1       1.070   3.094  19.081  0.00  0.00    +0.000 A 
ATOM      9  C   UNL     1       1.974   4.167  18.904  0.00  0.00    +0.000 A 
ATOM     10  C   UNL     1       3.213   3.561  18.659  0.00  0.00    +0.000 A 
BRANCH  10  11
ATOM     11  N   UNL     1       4.468   4.058  18.340  0.00  0.00    +0.000 N 
ATOM     12  C   UNL     1       5.546   4.005  19.333  0.00  0.00    +0.000 C 
ATOM     13  C   UNL     1       6.435   5.251  19.295  0.00  0.00    +0.000 C 
ATOM     14  C   UNL     1       7.277   5.374  18.028  0.00  0.00    +0.000 C 
ATOM     15  C   UNL     1       6.579   6.045  16.837  0.00  0.00    +0.000 C 
ATOM     16  F   UNL     1       7.379   5.782  15.745  0.00  0.00    +0.000 F 
ATOM     17  C   UNL     1       5.179   5.515  16.496  0.00  0.00    +0.000 C 
ATOM     18  C   UNL     1       4.909   4.075  16.931  0.00  0.00    +0.000 C 
BRANCH  15  19
ATOM     19  C   UNL     1       6.573   7.591  17.013  0.00  0.00    +0.000 C 
BRANCH  19  20
ATOM     20  N   UNL     1       7.871   8.154  17.404  0.00  0.00    +0.000 NA
ATOM     21  H   UNL     1       7.728   9.106  17.737  0.00  0.00    +0.000 HD
ATOM     22  H   UNL     1       8.471   8.222  16.582  0.00  0.00    +0.000 HD
ENDBRANCH  19  20
ENDBRANCH  15  19
ENDBRANCH  10  11
ENDBRANCH   1   9
BRANCH   2  23
ATOM     23  C   UNL     1       1.562   7.724  19.955  0.00  0.00    +0.000 A 
ATOM     24  N   UNL     1       0.696   8.391  20.838  0.00  0.00    +0.000 NA
ATOM     25  C   UNL     1       0.504   9.635  20.432  0.00  0.00    +0.000 A 
ATOM     26  S   UNL     1       1.449  10.101  19.071  0.00  0.00    +0.000 S 
ATOM     27  C   UNL     1       2.032   8.508  18.907  0.00  0.00    +0.000 A 
BRANCH  25  28
ATOM     28  C   UNL     1      -0.410  10.601  21.054  0.00  0.00    +0.000 A 
ATOM     29  C   UNL     1      -0.519  10.687  22.446  0.00  0.00    +0.000 A 
ATOM     30  F   UNL     1       0.249   9.923  23.239  0.00  0.00    +0.000 F 
ATOM     31  C   UNL     1      -1.408  11.573  23.059  0.00  0.00    +0.000 A 
ATOM     32  C   UNL     1      -2.219  12.401  22.284  0.00  0.00    +0.000 A 
ATOM     33  C   UNL     1      -2.128  12.340  20.899  0.00  0.00    +0.000 A 
ATOM     34  C   UNL     1      -1.235  11.449  20.299  0.00  0.00    +0.000 A 
ATOM     35  F   UNL     1      -1.216  11.416  18.957  0.00  0.00    +0.000 F 
ENDBRANCH  25  28
BRANCH  27  36
ATOM     36  N   UNL     1       2.832   8.177  17.866  0.00  0.00    +0.000 N 
ATOM     37  H   UNL     1       3.264   7.261  17.829  0.00  0.00    +0.000 HD
ATOM     38  H   UNL     1       3.365   8.915  17.397  0.00  0.00    +0.000 HD
ENDBRANCH  27  36
ENDBRANCH   2  23
TORSDOF 7
ENDMDL
MODEL 8
REMARK VINA RESULT:      -7.4      2.887      4.894
REMARK  Name = 
REMARK  8 active torsions:
REMARK  status: ('A' for Active; 'I' for Inactive)
REMARK    1  A    between atoms: C_1  and  N_2
REMARK    2  A    between atoms: C_5  and  N_6
REMARK    3  A    between atoms: C_7  and  C_9
REMARK    4  A    between atoms: C_11  and  C_12
REMARK    5  A    between atoms: C_21  and  N_22
REMARK    6  A    between atoms: C_23  and  N_24
REMARK    7  A    between atoms: C_28  and  C_30
REMARK    8  A    between atoms: C_30  and  N_31
REMARK                            x       y       z     vdW  Elec       q    Type
REMARK                         _______ _______ _______ _____ _____    ______ ____
ROOT
ATOM      1  N   UNL     1       1.056   9.877  19.769  0.00  0.00    +0.000 N 
ATOM      2  C   UNL     1       1.281   9.184  18.584  0.00  0.00    +0.000 C 
ATOM      3  O   UNL     1       0.762   9.456  17.504  0.00  0.00    +0.000 OA
ATOM      4  H   UNL     1       1.515   9.527  20.597  0.00  0.00    +0.000 HD
ENDROOT
BRANCH   1   9
ATOM      5  C   UNL     1      -0.819  14.453  20.122  0.00  0.00    +0.000 C 
ATOM      6  N   UNL     1      -0.598  13.036  19.937  0.00  0.00    +0.000 N 
ATOM      7  N   UNL     1      -1.678  12.243  20.074  0.00  0.00    +0.000 NA
ATOM      8  C   UNL     1      -1.171  11.016  20.063  0.00  0.00    +0.000 A 
ATOM      9  C   UNL     1       0.229  10.995  19.868  0.00  0.00    +0.000 A 
ATOM     10  C   UNL     1       0.602  12.342  19.771  0.00  0.00    +0.000 A 
BRANCH  10  11
ATOM     11  N   UNL     1       1.825  12.983  19.648  0.00  0.00    +0.000 N 
ATOM     12  C   UNL     1       2.664  13.187  20.834  0.00  0.00    +0.000 C 
ATOM     13  C   UNL     1       3.380  14.540  20.817  0.00  0.00    +0.000 C 
ATOM     14  C   UNL     1       4.453  14.660  19.737  0.00  0.00    +0.000 C 
ATOM     15  C   UNL     1       3.949  15.102  18.356  0.00  0.00    +0.000 C 
ATOM     16  F   UNL     1       4.990  14.853  17.487  0.00  0.00    +0.000 F 
ATOM     17  C   UNL     1       2.730  14.341  17.814  0.00  0.00    +0.000 C 
ATOM     18  C   UNL     1       2.553  12.927  18.365  0.00  0.00    +0.000 C 
BRANCH  15  19
ATOM     19  C   UNL     1       3.715  16.641  18.330  0.00  0.00    +0.000 C 
BRANCH  19  20
ATOM     20  N   UNL     1       2.925  17.107  17.185  0.00  0.00    +0.000 NA
ATOM     21  H   UNL     1       3.390  17.916  16.776  0.00  0.00    +0.000 HD
ATOM     22  H   UNL     1       2.015  17.431  17.512  0.00  0.00    +0.000 HD
ENDBRANCH  19  20
ENDBRANCH  15  19
ENDBRANCH  10  11
ENDBRANCH   1   9
BRANCH   2  23
ATOM     23  C   UNL     1       2.213   8.049  18.723  0.00  0.00    +0.000 A 
ATOM     24  N   UNL     1       3.126   7.706  17.711  0.00  0.00    +0.000 NA
ATOM     25  C   UNL     1       3.797   6.619  18.056  0.00  0.00    +0.000 A 
ATOM     26  S   UNL     1       3.471   6.047  19.646  0.00  0.00    +0.000 S 
ATOM     27  C   UNL     1       2.245   7.215  19.835  0.00  0.00    +0.000 A 
BRANCH  25  28
ATOM     28  C   UNL     1       4.770   5.917  17.210  0.00  0.00    +0.000 A 
ATOM     29  C   UNL     1       4.478   4.655  16.683  0.00  0.00    +0.000 A 
ATOM     30  F   UNL     1       3.282   4.085  16.898  0.00  0.00    +0.000 F 
ATOM     31  C   UNL     1       5.402   3.952  15.905  0.00  0.00    +0.000 A 
ATOM     32  C   UNL     1       6.654   4.503  15.637  0.00  0.00    +0.000 A 
ATOM     33  C   UNL     1       6.970   5.757  16.144  0.00  0.00    +0.000 A 
ATOM     34  C   UNL     1       6.037   6.448  16.920  0.00  0.00    +0.000 A 
ATOM     35  F   UNL     1       6.412   7.642  17.406  0.00  0.00    +0.000 F 
ENDBRANCH  25  28
BRANCH  27  36
ATOM     36  N   UNL     1       1.481   7.228  20.953  0.00  0.00    +0.000 N 
ATOM     37  H   UNL     1       1.633   7.937  21.662  0.00  0.00    +0.000 HD
ATOM     38  H   UNL     1       1.110   6.344  21.310  0.00  0.00    +0.000 HD
ENDBRANCH  27  36
ENDBRANCH   2  23
TORSDOF 7
ENDMDL
MODEL 9
REMARK VINA RESULT:      -7.4      2.611      4.753
REMARK  Name = 
REMARK  8 active torsions:
REMARK  status: ('A' for Active; 'I' for Inactive)
REMARK    1  A    between atoms: C_1  and  N_2
REMARK    2  A    between atoms: C_5  and  N_6
REMARK    3  A    between atoms: C_7  and  C_9
REMARK    4  A    between atoms: C_11  and  C_12
REMARK    5  A    between atoms: C_21  and  N_22
REMARK    6  A    between atoms: C_23  and  N_24
REMARK    7  A    between atoms: C_28  and  C_30
REMARK    8  A    between atoms: C_30  and  N_31
REMARK                            x       y       z     vdW  Elec       q    Type
REMARK                         _______ _______ _______ _____ _____    ______ ____
ROOT
ATOM      1  N   UNL     1      -0.131  10.216  21.182  0.00  0.00    +0.000 N 
ATOM      2  C   UNL     1       1.007   9.505  21.547  0.00  0.00    +0.000 C 
ATOM      3  O   UNL     1       1.606   9.638  22.612  0.00  0.00    +0.000 OA
ATOM      4  H   UNL     1      -0.505  10.040  20.262  0.00  0.00    +0.000 HD
ENDROOT
BRANCH   1   9
ATOM      5  C   UNL     1      -1.681  14.345  23.447  0.00  0.00    +0.000 C 
ATOM      6  N   UNL     1      -1.502  13.001  22.946  0.00  0.00    +0.000 N 
ATOM      7  N   UNL     1      -2.053  12.015  23.680  0.00  0.00    +0.000 NA
ATOM      8  C   UNL     1      -1.575  10.907  23.128  0.00  0.00    +0.000 A 
ATOM      9  C   UNL     1      -0.754  11.155  22.003  0.00  0.00    +0.000 A 
ATOM     10  C   UNL     1      -0.721  12.550  21.880  0.00  0.00    +0.000 A 
BRANCH  10  11
ATOM     11  N   UNL     1      -0.044  13.414  21.033  0.00  0.00    +0.000 N 
ATOM     12  C   UNL     1      -0.776  14.124  19.979  0.00  0.00    +0.000 C 
ATOM     13  C   UNL     1       0.033  14.243  18.685  0.00  0.00    +0.000 C 
ATOM     14  C   UNL     1       1.250  15.158  18.795  0.00  0.00    +0.000 C 
ATOM     15  C   UNL     1       2.526  14.495  19.331  0.00  0.00    +0.000 C 
ATOM     16  F   UNL     1       3.382  15.533  19.634  0.00  0.00    +0.000 F 
ATOM     17  C   UNL     1       2.362  13.670  20.616  0.00  0.00    +0.000 C 
ATOM     18  C   UNL     1       1.187  14.080  21.503  0.00  0.00    +0.000 C 
BRANCH  15  19
ATOM     19  C   UNL     1       3.219  13.667  18.210  0.00  0.00    +0.000 C 
BRANCH  19  20
ATOM     20  N   UNL     1       4.503  14.220  17.765  0.00  0.00    +0.000 NA
ATOM     21  H   UNL     1       4.652  15.116  18.229  0.00  0.00    +0.000 HD
ATOM     22  H   UNL     1       4.458  14.418  16.766  0.00  0.00    +0.000 HD
ENDBRANCH  19  20
ENDBRANCH  15  19
ENDBRANCH  10  11
ENDBRANCH   1   9
BRANCH   2  23
ATOM     23  C   UNL     1       1.469   8.550  20.522  0.00  0.00    +0.000 A 
ATOM     24  N   UNL     1       1.740   7.204  20.824  0.00  0.00    +0.000 NA
ATOM     25  C   UNL     1       2.196   6.582  19.750  0.00  0.00    +0.000 A 
ATOM     26  S   UNL     1       2.191   7.528  18.313  0.00  0.00    +0.000 S 
ATOM     27  C   UNL     1       1.704   8.901  19.197  0.00  0.00    +0.000 A 
BRANCH  25  28
ATOM     28  C   UNL     1       2.669   5.192  19.710  0.00  0.00    +0.000 A 
ATOM     29  C   UNL     1       1.803   4.135  20.010  0.00  0.00    +0.000 A 
ATOM     30  F   UNL     1       0.511   4.368  20.289  0.00  0.00    +0.000 F 
ATOM     31  C   UNL     1       2.240   2.807  20.012  0.00  0.00    +0.000 A 
ATOM     32  C   UNL     1       3.567   2.505  19.714  0.00  0.00    +0.000 A 
ATOM     33  C   UNL     1       4.448   3.535  19.408  0.00  0.00    +0.000 A 
ATOM     34  C   UNL     1       3.998   4.858  19.410  0.00  0.00    +0.000 A 
ATOM     35  F   UNL     1       4.904   5.810  19.135  0.00  0.00    +0.000 F 
ENDBRANCH  25  28
BRANCH  27  36
ATOM     36  N   UNL     1       1.596  10.105  18.586  0.00  0.00    +0.000 N 
ATOM     37  H   UNL     1       0.754  10.658  18.702  0.00  0.00    +0.000 HD
ATOM     38  H   UNL     1       2.082  10.254  17.698  0.00  0.00    +0.000 HD
ENDBRANCH  27  36
ENDBRANCH   2  23
TORSDOF 7
ENDMDL
