MODEL 1
REMARK VINA RESULT:      -8.3      0.000      0.000
REMARK  Name = 
REMARK  7 active torsions:
REMARK  status: ('A' for Active; 'I' for Inactive)
REMARK    1  A    between atoms: C_1  and  N_2
REMARK    2  A    between atoms: N_5  and  C_6
REMARK    3  A    between atoms: C_6  and  C_7
REMARK    4  A    between atoms: C_7  and  N_8
REMARK    5  A    between atoms: C_9  and  C_11
REMARK    6  A    between atoms: C_13  and  C_14
REMARK    7  A    between atoms: C_14  and  C_15
REMARK                            x       y       z     vdW  Elec       q    Type
REMARK                         _______ _______ _______ _____ _____    ______ ____
ROOT
ATOM      1  C   UNL     1       0.053  10.587  20.914  0.00  0.00    +0.000 A 
ATOM      2  C   UNL     1      -0.863  11.613  20.630  0.00  0.00    +0.000 A 
ATOM      3  C   UNL     1      -1.769  12.065  21.604  0.00  0.00    +0.000 A 
ATOM      4  C   UNL     1      -1.731  11.489  22.882  0.00  0.00    +0.000 A 
ATOM      5  C   UNL     1      -0.817  10.480  23.175  0.00  0.00    +0.000 A 
ATOM      6  C   UNL     1       0.065  10.034  22.194  0.00  0.00    +0.000 A 
ATOM      7  F   UNL     1       0.918   9.053  22.526  0.00  0.00    +0.000 F 
ENDROOT
BRANCH   1   9
ATOM      8  N   UNL     1       1.273   8.774  19.812  0.00  0.00    +0.000 N 
ATOM      9  C   UNL     1       0.956  10.115  19.828  0.00  0.00    +0.000 C 
ATOM     10  O   UNL     1       1.374  10.904  18.987  0.00  0.00    +0.000 OA
ATOM     11  H   UNL     1       0.952   8.167  20.559  0.00  0.00    +0.000 HD
BRANCH   8  12
ATOM     12  C   UNL     1       2.078   8.195  18.758  0.00  0.00    +0.000 C 
BRANCH  12  13
ATOM     13  C   UNL     1       2.600   6.795  19.130  0.00  0.00    +0.000 C 
BRANCH  13  18
ATOM     14  C   UNL     1       4.343   2.364  19.952  0.00  0.00    +0.000 C 
ATOM     15  N   UNL     1       3.958   3.318  18.918  0.00  0.00    +0.000 NA
ATOM     16  C   UNL     1       4.780   4.539  18.991  0.00  0.00    +0.000 C 
ATOM     17  C   UNL     1       4.359   5.572  17.921  0.00  0.00    +0.000 C 
ATOM     18  N   UNL     1       2.928   5.962  17.958  0.00  0.00    +0.000 NA
ATOM     19  C   UNL     1       2.122   4.719  17.951  0.00  0.00    +0.000 C 
ATOM     20  C   UNL     1       2.530   3.670  19.017  0.00  0.00    +0.000 C 
ENDBRANCH  13  18
ENDBRANCH  12  13
ENDBRANCH   8  12
ENDBRANCH   1   9
BRANCH   3  21
ATOM     21  C   UNL     1      -2.752  13.167  21.272  0.00  0.00    +0.000 C 
BRANCH  21  22
ATOM     22  C   UNL     1      -4.165  12.642  21.050  0.00  0.00    +0.000 A 
ATOM     23  N   UNL     1      -4.941  12.597  22.093  0.00  0.00    +0.000 NA
ATOM     24  N   UNL     1      -6.199  12.114  21.912  0.00  0.00    +0.000 N 
ATOM     25  C   UNL     1      -6.722  11.647  20.734  0.00  0.00    +0.000 A 
ATOM     26  O   UNL     1      -7.859  11.194  20.658  0.00  0.00    +0.000 OA
ATOM     27  C   UNL     1      -5.835  11.730  19.557  0.00  0.00    +0.000 A 
ATOM     28  C   UNL     1      -4.582  12.206  19.672  0.00  0.00    +0.000 A 
ATOM     29  N   UNL     1      -3.748  12.294  18.571  0.00  0.00    +0.000 N 
ATOM     30  C   UNL     1      -4.065  11.632  17.316  0.00  0.00    +0.000 C 
ATOM     31  C   UNL     1      -5.555  11.805  17.042  0.00  0.00    +0.000 C 
ATOM     32  C   UNL     1      -6.392  11.298  18.225  0.00  0.00    +0.000 C 
ATOM     33  H   UNL     1      -6.792  12.066  22.736  0.00  0.00    +0.000 HD
ATOM     34  H   UNL     1      -2.803  12.632  18.691  0.00  0.00    +0.000 HD
ENDBRANCH  21  22
ENDBRANCH   3  21
TORSDOF 6
ENDMDL
MODEL 2
REMARK VINA RESULT:      -8.3      2.146      3.205
REMARK  Name = 
REMARK  7 active torsions:
REMARK  status: ('A' for Active; 'I' for Inactive)
REMARK    1  A    between atoms: C_1  and  N_2
REMARK    2  A    between atoms: N_5  and  C_6
REMARK    3  A    between atoms: C_6  and  C_7
REMARK    4  A    between atoms: C_7  and  N_8
REMARK    5  A    between atoms: C_9  and  C_11
REMARK    6  A    between atoms: C_13  and  C_14
REMARK    7  A    between atoms: C_14  and  C_15
REMARK                            x       y       z     vdW  Elec       q    Type
REMARK                         _______ _______ _______ _____ _____    ______ ____
ROOT
ATOM      1  C   UNL     1       1.439   8.867  19.470  0.00  0.00    +0.000 A 
ATOM      2  C   UNL     1       0.948  10.099  19.007  0.00  0.00    +0.000 A 
ATOM      3  C   UNL     1       0.162  10.921  19.832  0.00  0.00    +0.000 A 
ATOM      4  C   UNL     1      -0.109  10.504  21.142  0.00  0.00    +0.000 A 
ATOM      5  C   UNL     1       0.385   9.289  21.613  0.00  0.00    +0.000 A 
ATOM      6  C   UNL     1       1.150   8.479  20.778  0.00  0.00    +0.000 A 
ATOM      7  F   UNL     1       1.593   7.315  21.278  0.00  0.00    +0.000 F 
ENDROOT
BRANCH   1   9
ATOM      8  N   UNL     1       2.484   6.720  18.932  0.00  0.00    +0.000 N 
ATOM      9  C   UNL     1       2.224   8.014  18.536  0.00  0.00    +0.000 C 
ATOM     10  O   UNL     1       2.599   8.465  17.457  0.00  0.00    +0.000 OA
ATOM     11  H   UNL     1       2.205   6.406  19.855  0.00  0.00    +0.000 HD
BRANCH   8  12
ATOM     12  C   UNL     1       3.172   5.783  18.070  0.00  0.00    +0.000 C 
BRANCH  12  13
ATOM     13  C   UNL     1       4.697   5.816  18.276  0.00  0.00    +0.000 C 
BRANCH  13  18
ATOM     14  C   UNL     1       6.988   4.827  14.139  0.00  0.00    +0.000 C 
ATOM     15  N   UNL     1       6.634   4.310  15.456  0.00  0.00    +0.000 NA
ATOM     16  C   UNL     1       5.172   4.219  15.613  0.00  0.00    +0.000 C 
ATOM     17  C   UNL     1       4.783   3.703  17.018  0.00  0.00    +0.000 C 
ATOM     18  N   UNL     1       5.334   4.492  18.148  0.00  0.00    +0.000 NA
ATOM     19  C   UNL     1       6.793   4.627  17.934  0.00  0.00    +0.000 C 
ATOM     20  C   UNL     1       7.203   5.142  16.531  0.00  0.00    +0.000 C 
ENDBRANCH  13  18
ENDBRANCH  12  13
ENDBRANCH   8  12
ENDBRANCH   1   9
BRANCH   3  21
ATOM     21  C   UNL     1      -0.361  12.241  19.308  0.00  0.00    +0.000 C 
BRANCH  21  22
ATOM     22  C   UNL     1      -1.880  12.265  19.196  0.00  0.00    +0.000 A 
ATOM     23  N   UNL     1      -2.527  12.851  20.160  0.00  0.00    +0.000 NA
ATOM     24  N   UNL     1      -3.884  12.863  20.081  0.00  0.00    +0.000 N 
ATOM     25  C   UNL     1      -4.640  12.293  19.089  0.00  0.00    +0.000 A 
ATOM     26  O   UNL     1      -5.866  12.317  19.105  0.00  0.00    +0.000 OA
ATOM     27  C   UNL     1      -3.887  11.655  17.990  0.00  0.00    +0.000 A 
ATOM     28  C   UNL     1      -2.543  11.618  18.009  0.00  0.00    +0.000 A 
ATOM     29  N   UNL     1      -1.830  11.028  16.979  0.00  0.00    +0.000 N 
ATOM     30  C   UNL     1      -2.477  10.186  15.986  0.00  0.00    +0.000 C 
ATOM     31  C   UNL     1      -3.805  10.828  15.599  0.00  0.00    +0.000 C 
ATOM     32  C   UNL     1      -4.673  11.081  16.840  0.00  0.00    +0.000 C 
ATOM     33  H   UNL     1      -4.382  13.307  20.847  0.00  0.00    +0.000 HD
ATOM     34  H   UNL     1      -0.821  10.993  17.031  0.00  0.00    +0.000 HD
ENDBRANCH  21  22
ENDBRANCH   3  21
TORSDOF 6
ENDMDL
MODEL 3
REMARK VINA RESULT:      -8.3      0.881      1.237
REMARK  Name = 
REMARK  7 active torsions:
REMARK  status: ('A' for Active; 'I' for Inactive)
REMARK    1  A    between atoms: C_1  and  N_2
REMARK    2  A    between atoms: N_5  and  C_6
REMARK    3  A    between atoms: C_6  and  C_7
REMARK    4  A    between atoms: C_7  and  N_8
REMARK    5  A    between atoms: C_9  and  C_11
REMARK    6  A    between atoms: C_13  and  C_14
REMARK    7  A    between atoms: C_14  and  C_15
REMARK                            x       y       z     vdW  Elec       q    Type
REMARK                         _______ _______ _______ _____ _____    ______ ____
ROOT
ATOM      1  C   UNL     1       0.105  10.037  20.400  0.00  0.00    +0.000 A 
ATOM      2  C   UNL     1      -0.706  11.176  20.267  0.00  0.00    +0.000 A 
ATOM      3  C   UNL     1      -1.385  11.714  21.373  0.00  0.00    +0.000 A 
ATOM      4  C   UNL     1      -1.223  11.108  22.627  0.00  0.00    +0.000 A 
ATOM      5  C   UNL     1      -0.411   9.985  22.768  0.00  0.00    +0.000 A 
ATOM      6  C   UNL     1       0.244   9.456  21.659  0.00  0.00    +0.000 A 
ATOM      7  F   UNL     1       1.007   8.368  21.850  0.00  0.00    +0.000 F 
ENDROOT
BRANCH   1   9
ATOM      8  N   UNL     1       1.831   8.634  19.376  0.00  0.00    +0.000 N 
ATOM      9  C   UNL     1       0.761   9.481  19.184  0.00  0.00    +0.000 C 
ATOM     10  O   UNL     1       0.337   9.769  18.069  0.00  0.00    +0.000 OA
ATOM     11  H   UNL     1       2.184   8.468  20.312  0.00  0.00    +0.000 HD
BRANCH   8  12
ATOM     12  C   UNL     1       2.492   7.978  18.269  0.00  0.00    +0.000 C 
BRANCH  12  13
ATOM     13  C   UNL     1       2.450   6.445  18.394  0.00  0.00    +0.000 C 
BRANCH  13  18
ATOM     14  C   UNL     1       3.446   1.723  18.625  0.00  0.00    +0.000 C 
ATOM     15  N   UNL     1       3.527   2.992  19.339  0.00  0.00    +0.000 NA
ATOM     16  C   UNL     1       2.184   3.549  19.581  0.00  0.00    +0.000 C 
ATOM     17  C   UNL     1       2.258   4.912  20.308  0.00  0.00    +0.000 C 
ATOM     18  N   UNL     1       3.082   5.940  19.627  0.00  0.00    +0.000 NA
ATOM     19  C   UNL     1       4.403   5.337  19.334  0.00  0.00    +0.000 C 
ATOM     20  C   UNL     1       4.350   3.970  18.606  0.00  0.00    +0.000 C 
ENDBRANCH  13  18
ENDBRANCH  12  13
ENDBRANCH   8  12
ENDBRANCH   1   9
BRANCH   3  21
ATOM     21  C   UNL     1      -2.258  12.938  21.204  0.00  0.00    +0.000 C 
BRANCH  21  22
ATOM     22  C   UNL     1      -3.734  12.588  21.062  0.00  0.00    +0.000 A 
ATOM     23  N   UNL     1      -4.447  12.615  22.150  0.00  0.00    +0.000 NA
ATOM     24  N   UNL     1      -5.762  12.287  22.041  0.00  0.00    +0.000 N 
ATOM     25  C   UNL     1      -6.405  11.906  20.892  0.00  0.00    +0.000 A 
ATOM     26  O   UNL     1      -7.591  11.592  20.879  0.00  0.00    +0.000 OA
ATOM     27  C   UNL     1      -5.586  11.906  19.663  0.00  0.00    +0.000 A 
ATOM     28  C   UNL     1      -4.281  12.229  19.707  0.00  0.00    +0.000 A 
ATOM     29  N   UNL     1      -3.509  12.239  18.558  0.00  0.00    +0.000 N 
ATOM     30  C   UNL     1      -3.976  11.641  17.318  0.00  0.00    +0.000 C 
ATOM     31  C   UNL     1      -5.449  11.994  17.137  0.00  0.00    +0.000 C 
ATOM     32  C   UNL     1      -6.269  11.567  18.363  0.00  0.00    +0.000 C 
ATOM     33  H   UNL     1      -6.307  12.294  22.898  0.00  0.00    +0.000 HD
ATOM     34  H   UNL     1      -2.525  12.461  18.624  0.00  0.00    +0.000 HD
ENDBRANCH  21  22
ENDBRANCH   3  21
TORSDOF 6
ENDMDL
MODEL 4
REMARK VINA RESULT:      -8.2      1.659      2.362
REMARK  Name = 
REMARK  7 active torsions:
REMARK  status: ('A' for Active; 'I' for Inactive)
REMARK    1  A    between atoms: C_1  and  N_2
REMARK    2  A    between atoms: N_5  and  C_6
REMARK    3  A    between atoms: C_6  and  C_7
REMARK    4  A    between atoms: C_7  and  N_8
REMARK    5  A    between atoms: C_9  and  C_11
REMARK    6  A    between atoms: C_13  and  C_14
REMARK    7  A    between atoms: C_14  and  C_15
REMARK                            x       y       z     vdW  Elec       q    Type
REMARK                         _______ _______ _______ _____ _____    ______ ____
ROOT
ATOM      1  C   UNL     1       1.354   9.120  19.459  0.00  0.00    +0.000 A 
ATOM      2  C   UNL     1       0.790  10.373  19.169  0.00  0.00    +0.000 A 
ATOM      3  C   UNL     1       0.007  11.052  20.118  0.00  0.00    +0.000 A 
ATOM      4  C   UNL     1      -0.188  10.468  21.377  0.00  0.00    +0.000 A 
ATOM      5  C   UNL     1       0.378   9.230  21.676  0.00  0.00    +0.000 A 
ATOM      6  C   UNL     1       1.140   8.565  20.720  0.00  0.00    +0.000 A 
ATOM      7  F   UNL     1       1.654   7.372  21.057  0.00  0.00    +0.000 F 
ENDROOT
BRANCH   1   9
ATOM      8  N   UNL     1       2.960   7.396  18.796  0.00  0.00    +0.000 N 
ATOM      9  C   UNL     1       2.133   8.424  18.399  0.00  0.00    +0.000 C 
ATOM     10  O   UNL     1       2.015   8.763  17.225  0.00  0.00    +0.000 OA
ATOM     11  H   UNL     1       3.071   7.187  19.783  0.00  0.00    +0.000 HD
BRANCH   8  12
ATOM     12  C   UNL     1       3.703   6.603  17.841  0.00  0.00    +0.000 C 
BRANCH  12  13
ATOM     13  C   UNL     1       4.107   5.233  18.413  0.00  0.00    +0.000 C 
BRANCH  13  18
ATOM     14  C   UNL     1       1.536   2.547  21.498  0.00  0.00    +0.000 C 
ATOM     15  N   UNL     1       1.893   2.735  20.096  0.00  0.00    +0.000 NA
ATOM     16  C   UNL     1       3.343   2.570  19.893  0.00  0.00    +0.000 C 
ATOM     17  C   UNL     1       3.739   2.801  18.416  0.00  0.00    +0.000 C 
ATOM     18  N   UNL     1       3.328   4.112  17.856  0.00  0.00    +0.000 NA
ATOM     19  C   UNL     1       1.883   4.286  18.131  0.00  0.00    +0.000 C 
ATOM     20  C   UNL     1       1.466   4.058  19.606  0.00  0.00    +0.000 C 
ENDBRANCH  13  18
ENDBRANCH  12  13
ENDBRANCH   8  12
ENDBRANCH   1   9
BRANCH   3  21
ATOM     21  C   UNL     1      -0.596  12.398  19.779  0.00  0.00    +0.000 C 
BRANCH  21  22
ATOM     22  C   UNL     1      -2.114  12.347  19.666  0.00  0.00    +0.000 A 
ATOM     23  N   UNL     1      -2.790  12.789  20.686  0.00  0.00    +0.000 NA
ATOM     24  N   UNL     1      -4.146  12.733  20.605  0.00  0.00    +0.000 N 
ATOM     25  C   UNL     1      -4.871  12.230  19.556  0.00  0.00    +0.000 A 
ATOM     26  O   UNL     1      -6.098  12.183  19.571  0.00  0.00    +0.000 OA
ATOM     27  C   UNL     1      -4.088  11.758  18.397  0.00  0.00    +0.000 A 
ATOM     28  C   UNL     1      -2.743  11.796  18.415  0.00  0.00    +0.000 A 
ATOM     29  N   UNL     1      -2.002  11.362  17.329  0.00  0.00    +0.000 N 
ATOM     30  C   UNL     1      -2.603  10.595  16.250  0.00  0.00    +0.000 C 
ATOM     31  C   UNL     1      -3.967  11.199  15.931  0.00  0.00    +0.000 C 
ATOM     32  C   UNL     1      -4.844  11.267  17.189  0.00  0.00    +0.000 C 
ATOM     33  H   UNL     1      -4.666  13.063  21.413  0.00  0.00    +0.000 HD
ATOM     34  H   UNL     1      -0.993  11.378  17.380  0.00  0.00    +0.000 HD
ENDBRANCH  21  22
ENDBRANCH   3  21
TORSDOF 6
ENDMDL
MODEL 5
REMARK VINA RESULT:      -8.1      3.591     10.382
REMARK  Name = 
REMARK  7 active torsions:
REMARK  status: ('A' for Active; 'I' for Inactive)
REMARK    1  A    between atoms: C_1  and  N_2
REMARK    2  A    between atoms: N_5  and  C_6
REMARK    3  A    between atoms: C_6  and  C_7
REMARK    4  A    between atoms: C_7  and  N_8
REMARK    5  A    between atoms: C_9  and  C_11
REMARK    6  A    between atoms: C_13  and  C_14
REMARK    7  A    between atoms: C_14  and  C_15
REMARK                            x       y       z     vdW  Elec       q    Type
REMARK                         _______ _______ _______ _____ _____    ______ ____
ROOT
ATOM      1  C   UNL     1       2.180   5.664  20.097  0.00  0.00    +0.000 A 
ATOM      2  C   UNL     1       3.463   5.200  19.765  0.00  0.00    +0.000 A 
ATOM      3  C   UNL     1       3.744   3.824  19.716  0.00  0.00    +0.000 A 
ATOM      4  C   UNL     1       2.713   2.912  19.982  0.00  0.00    +0.000 A 
ATOM      5  C   UNL     1       1.435   3.365  20.301  0.00  0.00    +0.000 A 
ATOM      6  C   UNL     1       1.176   4.732  20.360  0.00  0.00    +0.000 A 
ATOM      7  F   UNL     1      -0.070   5.114  20.680  0.00  0.00    +0.000 F 
ENDROOT
BRANCH   1   9
ATOM      8  N   UNL     1       1.429   7.622  21.361  0.00  0.00    +0.000 N 
ATOM      9  C   UNL     1       1.951   7.133  20.183  0.00  0.00    +0.000 C 
ATOM     10  O   UNL     1       2.238   7.857  19.235  0.00  0.00    +0.000 OA
ATOM     11  H   UNL     1       1.153   6.982  22.098  0.00  0.00    +0.000 HD
BRANCH   8  12
ATOM     12  C   UNL     1       1.240   9.039  21.580  0.00  0.00    +0.000 C 
BRANCH  12  13
ATOM     13  C   UNL     1      -0.075   9.551  20.964  0.00  0.00    +0.000 C 
BRANCH  13  18
ATOM     14  C   UNL     1      -2.263  10.065  16.688  0.00  0.00    +0.000 C 
ATOM     15  N   UNL     1      -1.442  10.732  17.692  0.00  0.00    +0.000 NA
ATOM     16  C   UNL     1      -0.151  10.042  17.863  0.00  0.00    +0.000 C 
ATOM     17  C   UNL     1       0.715  10.721  18.950  0.00  0.00    +0.000 C 
ATOM     18  N   UNL     1       0.065  10.848  20.278  0.00  0.00    +0.000 NA
ATOM     19  C   UNL     1      -1.258  11.483  20.073  0.00  0.00    +0.000 C 
ATOM     20  C   UNL     1      -2.141  10.817  18.987  0.00  0.00    +0.000 C 
ENDBRANCH  13  18
ENDBRANCH  12  13
ENDBRANCH   8  12
ENDBRANCH   1   9
BRANCH   3  21
ATOM     21  C   UNL     1       5.136   3.348  19.362  0.00  0.00    +0.000 C 
BRANCH  21  22
ATOM     22  C   UNL     1       5.965   4.425  18.672  0.00  0.00    +0.000 A 
ATOM     23  N   UNL     1       6.580   5.272  19.444  0.00  0.00    +0.000 NA
ATOM     24  N   UNL     1       7.308   6.248  18.841  0.00  0.00    +0.000 N 
ATOM     25  C   UNL     1       7.436   6.441  17.490  0.00  0.00    +0.000 A 
ATOM     26  O   UNL     1       8.086   7.369  17.020  0.00  0.00    +0.000 OA
ATOM     27  C   UNL     1       6.752   5.455  16.629  0.00  0.00    +0.000 A 
ATOM     28  C   UNL     1       6.023   4.461  17.168  0.00  0.00    +0.000 A 
ATOM     29  N   UNL     1       5.385   3.529  16.368  0.00  0.00    +0.000 N 
ATOM     30  C   UNL     1       5.231   3.727  14.937  0.00  0.00    +0.000 C 
ATOM     31  C   UNL     1       6.532   4.302  14.387  0.00  0.00    +0.000 C 
ATOM     32  C   UNL     1       6.927   5.582  15.138  0.00  0.00    +0.000 C 
ATOM     33  H   UNL     1       7.771   6.916  19.451  0.00  0.00    +0.000 HD
ATOM     34  H   UNL     1       4.823   2.808  16.800  0.00  0.00    +0.000 HD
ENDBRANCH  21  22
ENDBRANCH   3  21
TORSDOF 6
ENDMDL
MODEL 6
REMARK VINA RESULT:      -8.1      3.138     10.559
REMARK  Name = 
REMARK  7 active torsions:
REMARK  status: ('A' for Active; 'I' for Inactive)
REMARK    1  A    between atoms: C_1  and  N_2
REMARK    2  A    between atoms: N_5  and  C_6
REMARK    3  A    between atoms: C_6  and  C_7
REMARK    4  A    between atoms: C_7  and  N_8
REMARK    5  A    between atoms: C_9  and  C_11
REMARK    6  A    between atoms: C_13  and  C_14
REMARK    7  A    between atoms: C_14  and  C_15
REMARK                            x       y       z     vdW  Elec       q    Type
REMARK                         _______ _______ _______ _____ _____    ______ ____
ROOT
ATOM      1  C   UNL     1       1.997   5.644  20.030  0.00  0.00    +0.000 A 
ATOM      2  C   UNL     1       3.192   5.077  19.557  0.00  0.00    +0.000 A 
ATOM      3  C   UNL     1       3.352   3.683  19.485  0.00  0.00    +0.000 A 
ATOM      4  C   UNL     1       2.288   2.858  19.873  0.00  0.00    +0.000 A 
ATOM      5  C   UNL     1       1.095   3.413  20.332  0.00  0.00    +0.000 A 
ATOM      6  C   UNL     1       0.957   4.797  20.410  0.00  0.00    +0.000 A 
ATOM      7  F   UNL     1      -0.209   5.279  20.868  0.00  0.00    +0.000 F 
ENDROOT
BRANCH   1   9
ATOM      8  N   UNL     1       1.404   7.647  21.306  0.00  0.00    +0.000 N 
ATOM      9  C   UNL     1       1.901   7.127  20.131  0.00  0.00    +0.000 C 
ATOM     10  O   UNL     1       2.269   7.833  19.198  0.00  0.00    +0.000 OA
ATOM     11  H   UNL     1       1.057   7.026  22.030  0.00  0.00    +0.000 HD
BRANCH   8  12
ATOM     12  C   UNL     1       1.339   9.073  21.541  0.00  0.00    +0.000 C 
BRANCH  12  13
ATOM     13  C   UNL     1       0.087   9.709  20.909  0.00  0.00    +0.000 C 
BRANCH  13  18
ATOM     14  C   UNL     1      -3.589  11.601  18.410  0.00  0.00    +0.000 C 
ATOM     15  N   UNL     1      -2.150  11.662  18.639  0.00  0.00    +0.000 NA
ATOM     16  C   UNL     1      -1.504  10.385  18.287  0.00  0.00    +0.000 C 
ATOM     17  C   UNL     1       0.018  10.426  18.557  0.00  0.00    +0.000 C 
ATOM     18  N   UNL     1       0.397  10.782  19.947  0.00  0.00    +0.000 NA
ATOM     19  C   UNL     1      -0.316  12.031  20.302  0.00  0.00    +0.000 C 
ATOM     20  C   UNL     1      -1.843  12.010  20.038  0.00  0.00    +0.000 C 
ENDBRANCH  13  18
ENDBRANCH  12  13
ENDBRANCH   8  12
ENDBRANCH   1   9
BRANCH   3  21
ATOM     21  C   UNL     1       4.652   3.096  18.978  0.00  0.00    +0.000 C 
BRANCH  21  22
ATOM     22  C   UNL     1       5.209   3.856  17.780  0.00  0.00    +0.000 A 
ATOM     23  N   UNL     1       4.717   3.551  16.616  0.00  0.00    +0.000 NA
ATOM     24  N   UNL     1       5.218   4.209  15.537  0.00  0.00    +0.000 N 
ATOM     25  C   UNL     1       6.215   5.150  15.558  0.00  0.00    +0.000 A 
ATOM     26  O   UNL     1       6.639   5.677  14.534  0.00  0.00    +0.000 OA
ATOM     27  C   UNL     1       6.743   5.501  16.891  0.00  0.00    +0.000 A 
ATOM     28  C   UNL     1       6.281   4.890  17.997  0.00  0.00    +0.000 A 
ATOM     29  N   UNL     1       6.767   5.219  19.250  0.00  0.00    +0.000 N 
ATOM     30  C   UNL     1       7.971   6.015  19.419  0.00  0.00    +0.000 C 
ATOM     31  C   UNL     1       7.953   7.142  18.392  0.00  0.00    +0.000 C 
ATOM     32  C   UNL     1       7.788   6.585  16.971  0.00  0.00    +0.000 C 
ATOM     33  H   UNL     1       4.840   3.953  14.630  0.00  0.00    +0.000 HD
ATOM     34  H   UNL     1       6.419   4.725  20.061  0.00  0.00    +0.000 HD
ENDBRANCH  21  22
ENDBRANCH   3  21
TORSDOF 6
ENDMDL
MODEL 7
REMARK VINA RESULT:      -8.1      1.305      1.630
REMARK  Name = 
REMARK  7 active torsions:
REMARK  status: ('A' for Active; 'I' for Inactive)
REMARK    1  A    between atoms: C_1  and  N_2
REMARK    2  A    between atoms: N_5  and  C_6
REMARK    3  A    between atoms: C_6  and  C_7
REMARK    4  A    between atoms: C_7  and  N_8
REMARK    5  A    between atoms: C_9  and  C_11
REMARK    6  A    between atoms: C_13  and  C_14
REMARK    7  A    between atoms: C_14  and  C_15
REMARK                            x       y       z     vdW  Elec       q    Type
REMARK                         _______ _______ _______ _____ _____    ______ ____
ROOT
ATOM      1  C   UNL     1       0.861   9.665  19.804  0.00  0.00    +0.000 A 
ATOM      2  C   UNL     1       0.114  10.815  19.501  0.00  0.00    +0.000 A 
ATOM      3  C   UNL     1      -0.663  11.453  20.483  0.00  0.00    +0.000 A 
ATOM      4  C   UNL     1      -0.665  10.936  21.785  0.00  0.00    +0.000 A 
ATOM      5  C   UNL     1       0.083   9.802  22.096  0.00  0.00    +0.000 A 
ATOM      6  C   UNL     1       0.836   9.173  21.108  0.00  0.00    +0.000 A 
ATOM      7  F   UNL     1       1.530   8.080  21.459  0.00  0.00    +0.000 F 
ENDROOT
BRANCH   1   9
ATOM      8  N   UNL     1       2.195   7.778  18.994  0.00  0.00    +0.000 N 
ATOM      9  C   UNL     1       1.626   9.002  18.712  0.00  0.00    +0.000 C 
ATOM     10  O   UNL     1       1.719   9.537  17.612  0.00  0.00    +0.000 OA
ATOM     11  H   UNL     1       2.142   7.399  19.934  0.00  0.00    +0.000 HD
BRANCH   8  12
ATOM     12  C   UNL     1       2.893   7.013  17.985  0.00  0.00    +0.000 C 
BRANCH  12  13
ATOM     13  C   UNL     1       3.627   5.798  18.582  0.00  0.00    +0.000 C 
BRANCH  13  18
ATOM     14  C   UNL     1       1.555   2.584  21.534  0.00  0.00    +0.000 C 
ATOM     15  N   UNL     1       1.971   2.842  20.161  0.00  0.00    +0.000 NA
ATOM     16  C   UNL     1       3.429   3.044  20.078  0.00  0.00    +0.000 C 
ATOM     17  C   UNL     1       3.878   3.352  18.631  0.00  0.00    +0.000 C 
ATOM     18  N   UNL     1       3.202   4.512  18.000  0.00  0.00    +0.000 NA
ATOM     19  C   UNL     1       1.741   4.320  18.154  0.00  0.00    +0.000 C 
ATOM     20  C   UNL     1       1.271   4.010  19.598  0.00  0.00    +0.000 C 
ENDBRANCH  13  18
ENDBRANCH  12  13
ENDBRANCH   8  12
ENDBRANCH   1   9
BRANCH   3  21
ATOM     21  C   UNL     1      -1.464  12.687  20.131  0.00  0.00    +0.000 C 
BRANCH  21  22
ATOM     22  C   UNL     1      -2.941  12.544  20.478  0.00  0.00    +0.000 A 
ATOM     23  N   UNL     1      -3.266  12.722  21.725  0.00  0.00    +0.000 NA
ATOM     24  N   UNL     1      -4.578  12.580  22.052  0.00  0.00    +0.000 N 
ATOM     25  C   UNL     1      -5.591  12.242  21.193  0.00  0.00    +0.000 A 
ATOM     26  O   UNL     1      -6.750  12.099  21.571  0.00  0.00    +0.000 OA
ATOM     27  C   UNL     1      -5.207  12.069  19.778  0.00  0.00    +0.000 A 
ATOM     28  C   UNL     1      -3.926  12.205  19.392  0.00  0.00    +0.000 A 
ATOM     29  N   UNL     1      -3.559  12.052  18.066  0.00  0.00    +0.000 N 
ATOM     30  C   UNL     1      -4.461  11.471  17.085  0.00  0.00    +0.000 C 
ATOM     31  C   UNL     1      -5.862  12.021  17.333  0.00  0.00    +0.000 C 
ATOM     32  C   UNL     1      -6.300  11.772  18.784  0.00  0.00    +0.000 C 
ATOM     33  H   UNL     1      -4.821  12.703  23.031  0.00  0.00    +0.000 HD
ATOM     34  H   UNL     1      -2.585  12.135  17.808  0.00  0.00    +0.000 HD
ENDBRANCH  21  22
ENDBRANCH   3  21
TORSDOF 6
ENDMDL
MODEL 8
REMARK VINA RESULT:      -8.0      1.716      2.927
REMARK  Name = 
REMARK  7 active torsions:
REMARK  status: ('A' for Active; 'I' for Inactive)
REMARK    1  A    between atoms: C_1  and  N_2
REMARK    2  A    between atoms: N_5  and  C_6
REMARK    3  A    between atoms: C_6  and  C_7
REMARK    4  A    between atoms: C_7  and  N_8
REMARK    5  A    between atoms: C_9  and  C_11
REMARK    6  A    between atoms: C_13  and  C_14
REMARK    7  A    between atoms: C_14  and  C_15
REMARK                            x       y       z     vdW  Elec       q    Type
REMARK                         _______ _______ _______ _____ _____    ______ ____
ROOT
ATOM      1  C   UNL     1       1.201   9.092  19.618  0.00  0.00    +0.000 A 
ATOM      2  C   UNL     1       0.620  10.323  19.271  0.00  0.00    +0.000 A 
ATOM      3  C   UNL     1      -0.186  11.025  20.183  0.00  0.00    +0.000 A 
ATOM      4  C   UNL     1      -0.387  10.487  21.462  0.00  0.00    +0.000 A 
ATOM      5  C   UNL     1       0.196   9.272  21.817  0.00  0.00    +0.000 A 
ATOM      6  C   UNL     1       0.981   8.583  20.897  0.00  0.00    +0.000 A 
ATOM      7  F   UNL     1       1.511   7.413  21.287  0.00  0.00    +0.000 F 
ENDROOT
BRANCH   1   9
ATOM      8  N   UNL     1       2.515   7.138  18.948  0.00  0.00    +0.000 N 
ATOM      9  C   UNL     1       2.005   8.368  18.594  0.00  0.00    +0.000 C 
ATOM     10  O   UNL     1       2.179   8.863  17.485  0.00  0.00    +0.000 OA
ATOM     11  H   UNL     1       2.395   6.792  19.894  0.00  0.00    +0.000 HD
BRANCH   8  12
ATOM     12  C   UNL     1       3.245   6.317  18.007  0.00  0.00    +0.000 C 
BRANCH  12  13
ATOM     13  C   UNL     1       2.492   5.018  17.664  0.00  0.00    +0.000 C 
BRANCH  13  18
ATOM     14  C   UNL     1       1.366   2.518  21.641  0.00  0.00    +0.000 C 
ATOM     15  N   UNL     1       2.242   2.569  20.477  0.00  0.00    +0.000 NA
ATOM     16  C   UNL     1       3.074   3.785  20.493  0.00  0.00    +0.000 C 
ATOM     17  C   UNL     1       3.984   3.867  19.245  0.00  0.00    +0.000 C 
ATOM     18  N   UNL     1       3.270   3.798  17.946  0.00  0.00    +0.000 NA
ATOM     19  C   UNL     1       2.391   2.607  17.978  0.00  0.00    +0.000 C 
ATOM     20  C   UNL     1       1.472   2.506  19.222  0.00  0.00    +0.000 C 
ENDBRANCH  13  18
ENDBRANCH  12  13
ENDBRANCH   8  12
ENDBRANCH   1   9
BRANCH   3  21
ATOM     21  C   UNL     1      -0.806  12.346  19.785  0.00  0.00    +0.000 C 
BRANCH  21  22
ATOM     22  C   UNL     1      -2.146  12.174  19.080  0.00  0.00    +0.000 A 
ATOM     23  N   UNL     1      -2.105  11.855  17.820  0.00  0.00    +0.000 NA
ATOM     24  N   UNL     1      -3.294  11.716  17.174  0.00  0.00    +0.000 N 
ATOM     25  C   UNL     1      -4.536  11.905  17.723  0.00  0.00    +0.000 A 
ATOM     26  O   UNL     1      -5.566  11.793  17.064  0.00  0.00    +0.000 OA
ATOM     27  C   UNL     1      -4.563  12.242  19.160  0.00  0.00    +0.000 A 
ATOM     28  C   UNL     1      -3.420  12.385  19.854  0.00  0.00    +0.000 A 
ATOM     29  N   UNL     1      -3.437  12.693  21.203  0.00  0.00    +0.000 N 
ATOM     30  C   UNL     1      -4.647  13.149  21.868  0.00  0.00    +0.000 C 
ATOM     31  C   UNL     1      -5.821  12.321  21.355  0.00  0.00    +0.000 C 
ATOM     32  C   UNL     1      -5.909  12.385  19.824  0.00  0.00    +0.000 C 
ATOM     33  H   UNL     1      -3.252  11.484  16.186  0.00  0.00    +0.000 HD
ATOM     34  H   UNL     1      -2.563  12.819  21.694  0.00  0.00    +0.000 HD
ENDBRANCH  21  22
ENDBRANCH   3  21
TORSDOF 6
ENDMDL
MODEL 9
REMARK VINA RESULT:      -8.0      3.687     10.513
REMARK  Name = 
REMARK  7 active torsions:
REMARK  status: ('A' for Active; 'I' for Inactive)
REMARK    1  A    between atoms: C_1  and  N_2
REMARK    2  A    between atoms: N_5  and  C_6
REMARK    3  A    between atoms: C_6  and  C_7
REMARK    4  A    between atoms: C_7  and  N_8
REMARK    5  A    between atoms: C_9  and  C_11
REMARK    6  A    between atoms: C_13  and  C_14
REMARK    7  A    between atoms: C_14  and  C_15
REMARK                            x       y       z     vdW  Elec       q    Type
REMARK                         _______ _______ _______ _____ _____    ______ ____
ROOT
ATOM      1  C   UNL     1       2.156   5.796  20.021  0.00  0.00    +0.000 A 
ATOM      2  C   UNL     1       3.427   5.299  19.691  0.00  0.00    +0.000 A 
ATOM      3  C   UNL     1       3.698   3.921  19.731  0.00  0.00    +0.000 A 
ATOM      4  C   UNL     1       2.668   3.039  20.085  0.00  0.00    +0.000 A 
ATOM      5  C   UNL     1       1.400   3.524  20.402  0.00  0.00    +0.000 A 
ATOM      6  C   UNL     1       1.152   4.894  20.371  0.00  0.00    +0.000 A 
ATOM      7  F   UNL     1      -0.083   5.308  20.694  0.00  0.00    +0.000 F 
ENDROOT
BRANCH   1   9
ATOM      8  N   UNL     1       2.163   7.930  18.820  0.00  0.00    +0.000 N 
ATOM      9  C   UNL     1       1.940   7.269  20.009  0.00  0.00    +0.000 C 
ATOM     10  O   UNL     1       1.563   7.845  21.026  0.00  0.00    +0.000 OA
ATOM     11  H   UNL     1       2.528   7.425  18.020  0.00  0.00    +0.000 HD
BRANCH   8  12
ATOM     12  C   UNL     1       1.910   9.347  18.677  0.00  0.00    +0.000 C 
BRANCH  12  13
ATOM     13  C   UNL     1       0.475   9.635  18.202  0.00  0.00    +0.000 C 
BRANCH  13  18
ATOM     14  C   UNL     1      -0.254  14.382  18.728  0.00  0.00    +0.000 C 
ATOM     15  N   UNL     1      -0.596  13.062  19.244  0.00  0.00    +0.000 NA
ATOM     16  C   UNL     1       0.600  12.365  19.750  0.00  0.00    +0.000 C 
ATOM     17  C   UNL     1       0.254  10.950  20.269  0.00  0.00    +0.000 C 
ATOM     18  N   UNL     1      -0.425  10.072  19.285  0.00  0.00    +0.000 NA
ATOM     19  C   UNL     1      -1.584  10.818  18.741  0.00  0.00    +0.000 C 
ATOM     20  C   UNL     1      -1.258  12.239  18.216  0.00  0.00    +0.000 C 
ENDBRANCH  13  18
ENDBRANCH  12  13
ENDBRANCH   8  12
ENDBRANCH   1   9
BRANCH   3  21
ATOM     21  C   UNL     1       5.077   3.409  19.378  0.00  0.00    +0.000 C 
BRANCH  21  22
ATOM     22  C   UNL     1       5.930   4.461  18.678  0.00  0.00    +0.000 A 
ATOM     23  N   UNL     1       6.557   5.306  19.443  0.00  0.00    +0.000 NA
ATOM     24  N   UNL     1       7.307   6.261  18.831  0.00  0.00    +0.000 N 
ATOM     25  C   UNL     1       7.446   6.433  17.478  0.00  0.00    +0.000 A 
ATOM     26  O   UNL     1       8.116   7.343  17.000  0.00  0.00    +0.000 OA
ATOM     27  C   UNL     1       6.747   5.449  16.627  0.00  0.00    +0.000 A 
ATOM     28  C   UNL     1       5.997   4.477  17.175  0.00  0.00    +0.000 A 
ATOM     29  N   UNL     1       5.345   3.546  16.384  0.00  0.00    +0.000 N 
ATOM     30  C   UNL     1       5.203   3.729  14.949  0.00  0.00    +0.000 C 
ATOM     31  C   UNL     1       6.517   4.272  14.399  0.00  0.00    +0.000 C 
ATOM     32  C   UNL     1       6.932   5.553  15.135  0.00  0.00    +0.000 C 
ATOM     33  H   UNL     1       7.779   6.927  19.435  0.00  0.00    +0.000 HD
ATOM     34  H   UNL     1       4.767   2.842  16.821  0.00  0.00    +0.000 HD
ENDBRANCH  21  22
ENDBRANCH   3  21
TORSDOF 6
ENDMDL
