MODEL 1
REMARK VINA RESULT:      -8.0      0.000      0.000
REMARK  Name = 
REMARK  7 active torsions:
REMARK  status: ('A' for Active; 'I' for Inactive)
REMARK    1  A    between atoms: C_1  and  N_2
REMARK    2  A    between atoms: N_2  and  C_3
REMARK    3  A    between atoms: N_2  and  C_4
REMARK    4  A    between atoms: C_7  and  C_8
REMARK    5  A    between atoms: C_16  and  N_17
REMARK    6  A    between atoms: N_17  and  C_18
REMARK    7  A    between atoms: N_17  and  C_19
REMARK                            x       y       z     vdW  Elec       q    Type
REMARK                         _______ _______ _______ _____ _____    ______ ____
ROOT
ATOM      1  C   UNL     1       3.337   6.495  18.057  0.00  0.00    +0.000 A 
ATOM      2  C   UNL     1       4.207   6.815  17.039  0.00  0.00    +0.000 A 
ATOM      3  C   UNL     1       4.958   5.841  16.440  0.00  0.00    +0.000 A 
ATOM      4  N   UNL     1       5.739   6.272  15.430  0.00  0.00    +0.000 NA
ATOM      5  C   UNL     1       6.450   5.362  14.746  0.00  0.00    +0.000 A 
ATOM      6  C   UNL     1       6.414   4.019  15.020  0.00  0.00    +0.000 A 
ATOM      7  C   UNL     1       5.596   3.585  16.067  0.00  0.00    +0.000 A 
ATOM      8  C   UNL     1       4.840   4.500  16.850  0.00  0.00    +0.000 A 
ATOM      9  C   UNL     1       3.944   4.213  17.931  0.00  0.00    +0.000 A 
ATOM     10  N   UNL     1       3.221   5.216  18.498  0.00  0.00    +0.000 NA
ENDROOT
BRANCH   1  14
ATOM     11  C   UNL     1       0.838   9.625  19.828  0.00  0.00    +0.000 A 
ATOM     12  C   UNL     1       1.173   9.612  18.465  0.00  0.00    +0.000 A 
ATOM     13  C   UNL     1       1.950   8.591  17.884  0.00  0.00    +0.000 A 
ATOM     14  C   UNL     1       2.426   7.512  18.639  0.00  0.00    +0.000 A 
ATOM     15  C   UNL     1       2.043   7.491  19.990  0.00  0.00    +0.000 A 
ATOM     16  C   UNL     1       1.279   8.521  20.567  0.00  0.00    +0.000 A 
BRANCH  11  18
ATOM     17  C   UNL     1      -0.187  10.634  21.840  0.00  0.00    +0.000 C 
ATOM     18  N   UNL     1       0.098  10.652  20.412  0.00  0.00    +0.000 N 
ATOM     19  C   UNL     1      -0.705  11.539  19.577  0.00  0.00    +0.000 C 
ENDBRANCH  11  18
ENDBRANCH   1  14
BRANCH   9  20
ATOM     20  N   UNL     1       3.668   2.923  18.382  0.00  0.00    +0.000 N 
ATOM     21  C   UNL     1       2.503   2.240  17.822  0.00  0.00    +0.000 C 
ATOM     22  C   UNL     1       4.109   2.391  19.665  0.00  0.00    +0.000 C 
ENDBRANCH   9  20
TORSDOF 3
ENDMDL
MODEL 2
REMARK VINA RESULT:      -7.9      0.367      1.304
REMARK  Name = 
REMARK  7 active torsions:
REMARK  status: ('A' for Active; 'I' for Inactive)
REMARK    1  A    between atoms: C_1  and  N_2
REMARK    2  A    between atoms: N_2  and  C_3
REMARK    3  A    between atoms: N_2  and  C_4
REMARK    4  A    between atoms: C_7  and  C_8
REMARK    5  A    between atoms: C_16  and  N_17
REMARK    6  A    between atoms: N_17  and  C_18
REMARK    7  A    between atoms: N_17  and  C_19
REMARK                            x       y       z     vdW  Elec       q    Type
REMARK                         _______ _______ _______ _____ _____    ______ ____
ROOT
ATOM      1  C   UNL     1       3.236   6.721  18.141  0.00  0.00    +0.000 A 
ATOM      2  C   UNL     1       4.138   6.952  17.126  0.00  0.00    +0.000 A 
ATOM      3  C   UNL     1       4.826   5.913  16.563  0.00  0.00    +0.000 A 
ATOM      4  N   UNL     1       5.647   6.261  15.553  0.00  0.00    +0.000 NA
ATOM      5  C   UNL     1       6.301   5.285  14.903  0.00  0.00    +0.000 A 
ATOM      6  C   UNL     1       6.169   3.957  15.212  0.00  0.00    +0.000 A 
ATOM      7  C   UNL     1       5.311   3.609  16.259  0.00  0.00    +0.000 A 
ATOM      8  C   UNL     1       4.611   4.595  17.008  0.00  0.00    +0.000 A 
ATOM      9  C   UNL     1       3.685   4.400  18.083  0.00  0.00    +0.000 A 
ATOM     10  N   UNL     1       3.027   5.466  18.614  0.00  0.00    +0.000 NA
ENDROOT
BRANCH   1  14
ATOM     11  C   UNL     1       0.552   9.817  19.684  0.00  0.00    +0.000 A 
ATOM     12  C   UNL     1       1.058   8.790  20.495  0.00  0.00    +0.000 A 
ATOM     13  C   UNL     1       1.947   7.810  20.011  0.00  0.00    +0.000 A 
ATOM     14  C   UNL     1       2.390   7.814  18.683  0.00  0.00    +0.000 A 
ATOM     15  C   UNL     1       1.932   8.874  17.885  0.00  0.00    +0.000 A 
ATOM     16  C   UNL     1       1.034   9.841  18.370  0.00  0.00    +0.000 A 
BRANCH  11  18
ATOM     17  C   UNL     1      -0.466  11.042  21.577  0.00  0.00    +0.000 C 
ATOM     18  N   UNL     1      -0.355  10.768  20.151  0.00  0.00    +0.000 N 
ATOM     19  C   UNL     1      -1.444  11.221  19.292  0.00  0.00    +0.000 C 
ENDBRANCH  11  18
ENDBRANCH   1  14
BRANCH   9  20
ATOM     20  N   UNL     1       3.315   3.145  18.565  0.00  0.00    +0.000 N 
ATOM     21  C   UNL     1       4.174   2.522  19.572  0.00  0.00    +0.000 C 
ATOM     22  C   UNL     1       2.468   2.206  17.843  0.00  0.00    +0.000 C 
ENDBRANCH   9  20
TORSDOF 3
ENDMDL
MODEL 3
REMARK VINA RESULT:      -7.8      0.406      1.302
REMARK  Name = 
REMARK  7 active torsions:
REMARK  status: ('A' for Active; 'I' for Inactive)
REMARK    1  A    between atoms: C_1  and  N_2
REMARK    2  A    between atoms: N_2  and  C_3
REMARK    3  A    between atoms: N_2  and  C_4
REMARK    4  A    between atoms: C_7  and  C_8
REMARK    5  A    between atoms: C_16  and  N_17
REMARK    6  A    between atoms: N_17  and  C_18
REMARK    7  A    between atoms: N_17  and  C_19
REMARK                            x       y       z     vdW  Elec       q    Type
REMARK                         _______ _______ _______ _____ _____    ______ ____
ROOT
ATOM      1  C   UNL     1       3.196   6.677  18.177  0.00  0.00    +0.000 A 
ATOM      2  C   UNL     1       4.105   6.931  17.175  0.00  0.00    +0.000 A 
ATOM      3  C   UNL     1       4.796   5.905  16.592  0.00  0.00    +0.000 A 
ATOM      4  N   UNL     1       5.624   6.276  15.596  0.00  0.00    +0.000 NA
ATOM      5  C   UNL     1       6.282   5.314  14.928  0.00  0.00    +0.000 A 
ATOM      6  C   UNL     1       6.146   3.979  15.205  0.00  0.00    +0.000 A 
ATOM      7  C   UNL     1       5.281   3.608  16.238  0.00  0.00    +0.000 A 
ATOM      8  C   UNL     1       4.577   4.577  17.004  0.00  0.00    +0.000 A 
ATOM      9  C   UNL     1       3.643   4.358  18.069  0.00  0.00    +0.000 A 
ATOM     10  N   UNL     1       2.983   5.412  18.619  0.00  0.00    +0.000 NA
ENDROOT
BRANCH   1  14
ATOM     11  C   UNL     1       0.505   9.734  19.787  0.00  0.00    +0.000 A 
ATOM     12  C   UNL     1       1.063   8.727  20.589  0.00  0.00    +0.000 A 
ATOM     13  C   UNL     1       1.955   7.761  20.083  0.00  0.00    +0.000 A 
ATOM     14  C   UNL     1       2.348   7.758  18.739  0.00  0.00    +0.000 A 
ATOM     15  C   UNL     1       1.837   8.799  17.947  0.00  0.00    +0.000 A 
ATOM     16  C   UNL     1       0.937   9.753  18.455  0.00  0.00    +0.000 A 
BRANCH  11  18
ATOM     17  C   UNL     1      -1.365  11.303  19.384  0.00  0.00    +0.000 C 
ATOM     18  N   UNL     1      -0.404  10.671  20.277  0.00  0.00    +0.000 N 
ATOM     19  C   UNL     1      -0.173  11.301  21.573  0.00  0.00    +0.000 C 
ENDBRANCH  11  18
ENDBRANCH   1  14
BRANCH   9  20
ATOM     20  N   UNL     1       3.269   3.093  18.519  0.00  0.00    +0.000 N 
ATOM     21  C   UNL     1       1.902   2.649  18.245  0.00  0.00    +0.000 C 
ATOM     22  C   UNL     1       3.912   2.391  19.621  0.00  0.00    +0.000 C 
ENDBRANCH   9  20
TORSDOF 3
ENDMDL
MODEL 4
REMARK VINA RESULT:      -7.7      0.553      1.156
REMARK  Name = 
REMARK  7 active torsions:
REMARK  status: ('A' for Active; 'I' for Inactive)
REMARK    1  A    between atoms: C_1  and  N_2
REMARK    2  A    between atoms: N_2  and  C_3
REMARK    3  A    between atoms: N_2  and  C_4
REMARK    4  A    between atoms: C_7  and  C_8
REMARK    5  A    between atoms: C_16  and  N_17
REMARK    6  A    between atoms: N_17  and  C_18
REMARK    7  A    between atoms: N_17  and  C_19
REMARK                            x       y       z     vdW  Elec       q    Type
REMARK                         _______ _______ _______ _____ _____    ______ ____
ROOT
ATOM      1  C   UNL     1       3.070   6.727  18.395  0.00  0.00    +0.000 A 
ATOM      2  C   UNL     1       3.939   7.012  17.366  0.00  0.00    +0.000 A 
ATOM      3  C   UNL     1       4.641   6.008  16.757  0.00  0.00    +0.000 A 
ATOM      4  N   UNL     1       5.427   6.408  15.737  0.00  0.00    +0.000 NA
ATOM      5  C   UNL     1       6.091   5.469  15.044  0.00  0.00    +0.000 A 
ATOM      6  C   UNL     1       6.004   4.129  15.319  0.00  0.00    +0.000 A 
ATOM      7  C   UNL     1       5.183   3.729  16.376  0.00  0.00    +0.000 A 
ATOM      8  C   UNL     1       4.475   4.673  17.169  0.00  0.00    +0.000 A 
ATOM      9  C   UNL     1       3.581   4.422  18.261  0.00  0.00    +0.000 A 
ATOM     10  N   UNL     1       2.908   5.454  18.837  0.00  0.00    +0.000 NA
ENDROOT
BRANCH   1  14
ATOM     11  C   UNL     1       0.723   9.950  20.206  0.00  0.00    +0.000 A 
ATOM     12  C   UNL     1       1.084   9.954  18.851  0.00  0.00    +0.000 A 
ATOM     13  C   UNL     1       1.811   8.905  18.255  0.00  0.00    +0.000 A 
ATOM     14  C   UNL     1       2.208   7.780  18.988  0.00  0.00    +0.000 A 
ATOM     15  C   UNL     1       1.797   7.745  20.331  0.00  0.00    +0.000 A 
ATOM     16  C   UNL     1       1.083   8.802  20.922  0.00  0.00    +0.000 A 
BRANCH  11  18
ATOM     17  C   UNL     1       0.121  12.349  20.257  0.00  0.00    +0.000 C 
ATOM     18  N   UNL     1       0.033  11.003  20.806  0.00  0.00    +0.000 N 
ATOM     19  C   UNL     1      -0.468  10.863  22.169  0.00  0.00    +0.000 C 
ENDBRANCH  11  18
ENDBRANCH   1  14
BRANCH   9  20
ATOM     20  N   UNL     1       3.259   3.145  18.716  0.00  0.00    +0.000 N 
ATOM     21  C   UNL     1       4.177   2.505  19.657  0.00  0.00    +0.000 C 
ATOM     22  C   UNL     1       2.395   2.213  18.003  0.00  0.00    +0.000 C 
ENDBRANCH   9  20
TORSDOF 3
ENDMDL
MODEL 5
REMARK VINA RESULT:      -7.5      1.054      1.598
REMARK  Name = 
REMARK  7 active torsions:
REMARK  status: ('A' for Active; 'I' for Inactive)
REMARK    1  A    between atoms: C_1  and  N_2
REMARK    2  A    between atoms: N_2  and  C_3
REMARK    3  A    between atoms: N_2  and  C_4
REMARK    4  A    between atoms: C_7  and  C_8
REMARK    5  A    between atoms: C_16  and  N_17
REMARK    6  A    between atoms: N_17  and  C_18
REMARK    7  A    between atoms: N_17  and  C_19
REMARK                            x       y       z     vdW  Elec       q    Type
REMARK                         _______ _______ _______ _____ _____    ______ ____
ROOT
ATOM      1  C   UNL     1       2.681   6.971  18.890  0.00  0.00    +0.000 A 
ATOM      2  C   UNL     1       3.535   7.246  17.846  0.00  0.00    +0.000 A 
ATOM      3  C   UNL     1       4.147   6.227  17.168  0.00  0.00    +0.000 A 
ATOM      4  N   UNL     1       4.926   6.621  16.141  0.00  0.00    +0.000 NA
ATOM      5  C   UNL     1       5.502   5.674  15.384  0.00  0.00    +0.000 A 
ATOM      6  C   UNL     1       5.332   4.332  15.600  0.00  0.00    +0.000 A 
ATOM      7  C   UNL     1       4.519   3.937  16.666  0.00  0.00    +0.000 A 
ATOM      8  C   UNL     1       3.903   4.888  17.525  0.00  0.00    +0.000 A 
ATOM      9  C   UNL     1       3.029   4.646  18.635  0.00  0.00    +0.000 A 
ATOM     10  N   UNL     1       2.446   5.692  19.280  0.00  0.00    +0.000 NA
ENDROOT
BRANCH   1  14
ATOM     11  C   UNL     1       0.215  10.042  20.805  0.00  0.00    +0.000 A 
ATOM     12  C   UNL     1       0.691   8.920  21.500  0.00  0.00    +0.000 A 
ATOM     13  C   UNL     1       1.511   7.946  20.897  0.00  0.00    +0.000 A 
ATOM     14  C   UNL     1       1.912   8.050  19.560  0.00  0.00    +0.000 A 
ATOM     15  C   UNL     1       1.486   9.202  18.879  0.00  0.00    +0.000 A 
ATOM     16  C   UNL     1       0.656  10.163  19.482  0.00  0.00    +0.000 A 
BRANCH  11  18
ATOM     17  C   UNL     1      -1.005  10.873  22.790  0.00  0.00    +0.000 C 
ATOM     18  N   UNL     1      -0.624  10.990  21.389  0.00  0.00    +0.000 N 
ATOM     19  C   UNL     1      -1.420  11.876  20.547  0.00  0.00    +0.000 C 
ENDBRANCH  11  18
ENDBRANCH   1  14
BRANCH   9  20
ATOM     20  N   UNL     1       2.634   3.373  19.042  0.00  0.00    +0.000 N 
ATOM     21  C   UNL     1       1.226   3.012  18.882  0.00  0.00    +0.000 C 
ATOM     22  C   UNL     1       3.344   2.571  20.029  0.00  0.00    +0.000 C 
ENDBRANCH   9  20
TORSDOF 3
ENDMDL
MODEL 6
REMARK VINA RESULT:      -7.5      1.121      1.500
REMARK  Name = 
REMARK  7 active torsions:
REMARK  status: ('A' for Active; 'I' for Inactive)
REMARK    1  A    between atoms: C_1  and  N_2
REMARK    2  A    between atoms: N_2  and  C_3
REMARK    3  A    between atoms: N_2  and  C_4
REMARK    4  A    between atoms: C_7  and  C_8
REMARK    5  A    between atoms: C_16  and  N_17
REMARK    6  A    between atoms: N_17  and  C_18
REMARK    7  A    between atoms: N_17  and  C_19
REMARK                            x       y       z     vdW  Elec       q    Type
REMARK                         _______ _______ _______ _____ _____    ______ ____
ROOT
ATOM      1  C   UNL     1       2.614   6.940  18.971  0.00  0.00    +0.000 A 
ATOM      2  C   UNL     1       3.467   7.243  17.934  0.00  0.00    +0.000 A 
ATOM      3  C   UNL     1       4.120   6.246  17.263  0.00  0.00    +0.000 A 
ATOM      4  N   UNL     1       4.894   6.666  16.242  0.00  0.00    +0.000 NA
ATOM      5  C   UNL     1       5.509   5.739  15.491  0.00  0.00    +0.000 A 
ATOM      6  C   UNL     1       5.383   4.391  15.707  0.00  0.00    +0.000 A 
ATOM      7  C   UNL     1       4.574   3.970  16.766  0.00  0.00    +0.000 A 
ATOM      8  C   UNL     1       3.918   4.900  17.619  0.00  0.00    +0.000 A 
ATOM      9  C   UNL     1       3.043   4.629  18.721  0.00  0.00    +0.000 A 
ATOM     10  N   UNL     1       2.419   5.655  19.360  0.00  0.00    +0.000 NA
ENDROOT
BRANCH   1  14
ATOM     11  C   UNL     1       0.423  10.147  20.994  0.00  0.00    +0.000 A 
ATOM     12  C   UNL     1       0.795  10.228  19.644  0.00  0.00    +0.000 A 
ATOM     13  C   UNL     1       1.471   9.185  18.980  0.00  0.00    +0.000 A 
ATOM     14  C   UNL     1       1.803   7.993  19.633  0.00  0.00    +0.000 A 
ATOM     15  C   UNL     1       1.381   7.886  20.969  0.00  0.00    +0.000 A 
ATOM     16  C   UNL     1       0.718   8.935  21.630  0.00  0.00    +0.000 A 
BRANCH  11  18
ATOM     17  C   UNL     1       0.124  12.575  21.366  0.00  0.00    +0.000 C 
ATOM     18  N   UNL     1      -0.216  11.190  21.664  0.00  0.00    +0.000 N 
ATOM     19  C   UNL     1      -0.939  10.926  22.903  0.00  0.00    +0.000 C 
ENDBRANCH  11  18
ENDBRANCH   1  14
BRANCH   9  20
ATOM     20  N   UNL     1       2.689   3.343  19.126  0.00  0.00    +0.000 N 
ATOM     21  C   UNL     1       1.278   2.967  19.041  0.00  0.00    +0.000 C 
ATOM     22  C   UNL     1       3.465   2.532  20.054  0.00  0.00    +0.000 C 
ENDBRANCH   9  20
TORSDOF 3
ENDMDL
MODEL 7
REMARK VINA RESULT:      -7.2      1.245      3.356
REMARK  Name = 
REMARK  7 active torsions:
REMARK  status: ('A' for Active; 'I' for Inactive)
REMARK    1  A    between atoms: C_1  and  N_2
REMARK    2  A    between atoms: N_2  and  C_3
REMARK    3  A    between atoms: N_2  and  C_4
REMARK    4  A    between atoms: C_7  and  C_8
REMARK    5  A    between atoms: C_16  and  N_17
REMARK    6  A    between atoms: N_17  and  C_18
REMARK    7  A    between atoms: N_17  and  C_19
REMARK                            x       y       z     vdW  Elec       q    Type
REMARK                         _______ _______ _______ _____ _____    ______ ____
ROOT
ATOM      1  C   UNL     1       2.563   6.678  18.361  0.00  0.00    +0.000 A 
ATOM      2  C   UNL     1       1.942   5.518  18.768  0.00  0.00    +0.000 A 
ATOM      3  C   UNL     1       2.473   4.300  18.445  0.00  0.00    +0.000 A 
ATOM      4  N   UNL     1       1.798   3.242  18.936  0.00  0.00    +0.000 NA
ATOM      5  C   UNL     1       2.300   2.015  18.722  0.00  0.00    +0.000 A 
ATOM      6  C   UNL     1       3.465   1.789  18.036  0.00  0.00    +0.000 A 
ATOM      7  C   UNL     1       4.157   2.895  17.537  0.00  0.00    +0.000 A 
ATOM      8  C   UNL     1       3.666   4.219  17.703  0.00  0.00    +0.000 A 
ATOM      9  C   UNL     1       4.266   5.448  17.275  0.00  0.00    +0.000 A 
ATOM     10  N   UNL     1       3.698   6.635  17.618  0.00  0.00    +0.000 NA
ENDROOT
BRANCH   1  14
ATOM     11  C   UNL     1       0.903  10.538  19.594  0.00  0.00    +0.000 A 
ATOM     12  C   UNL     1       1.016   9.453  20.476  0.00  0.00    +0.000 A 
ATOM     13  C   UNL     1       1.579   8.219  20.093  0.00  0.00    +0.000 A 
ATOM     14  C   UNL     1       2.074   8.009  18.801  0.00  0.00    +0.000 A 
ATOM     15  C   UNL     1       2.017   9.111  17.934  0.00  0.00    +0.000 A 
ATOM     16  C   UNL     1       1.442  10.336  18.317  0.00  0.00    +0.000 A 
BRANCH  11  18
ATOM     17  C   UNL     1       0.015  12.030  21.356  0.00  0.00    +0.000 C 
ATOM     18  N   UNL     1       0.316  11.749  19.959  0.00  0.00    +0.000 N 
ATOM     19  C   UNL     1      -0.338  12.576  18.950  0.00  0.00    +0.000 C 
ENDBRANCH  11  18
ENDBRANCH   1  14
BRANCH   9  20
ATOM     20  N   UNL     1       5.488   5.519  16.607  0.00  0.00    +0.000 N 
ATOM     21  C   UNL     1       6.569   6.271  17.242  0.00  0.00    +0.000 C 
ATOM     22  C   UNL     1       5.647   5.349  15.169  0.00  0.00    +0.000 C 
ENDBRANCH   9  20
TORSDOF 3
ENDMDL
MODEL 8
REMARK VINA RESULT:      -7.2      1.604      2.506
REMARK  Name = 
REMARK  7 active torsions:
REMARK  status: ('A' for Active; 'I' for Inactive)
REMARK    1  A    between atoms: C_1  and  N_2
REMARK    2  A    between atoms: N_2  and  C_3
REMARK    3  A    between atoms: N_2  and  C_4
REMARK    4  A    between atoms: C_7  and  C_8
REMARK    5  A    between atoms: C_16  and  N_17
REMARK    6  A    between atoms: N_17  and  C_18
REMARK    7  A    between atoms: N_17  and  C_19
REMARK                            x       y       z     vdW  Elec       q    Type
REMARK                         _______ _______ _______ _____ _____    ______ ____
ROOT
ATOM      1  C   UNL     1       2.253   7.080  19.717  0.00  0.00    +0.000 A 
ATOM      2  C   UNL     1       3.094   7.195  18.632  0.00  0.00    +0.000 A 
ATOM      3  C   UNL     1       3.620   6.077  18.046  0.00  0.00    +0.000 A 
ATOM      4  N   UNL     1       4.394   6.317  16.968  0.00  0.00    +0.000 NA
ATOM      5  C   UNL     1       4.887   5.264  16.296  0.00  0.00    +0.000 A 
ATOM      6  C   UNL     1       4.637   3.964  16.648  0.00  0.00    +0.000 A 
ATOM      7  C   UNL     1       3.830   3.729  17.765  0.00  0.00    +0.000 A 
ATOM      8  C   UNL     1       3.300   4.798  18.538  0.00  0.00    +0.000 A 
ATOM      9  C   UNL     1       2.444   4.724  19.685  0.00  0.00    +0.000 A 
ATOM     10  N   UNL     1       1.948   5.864  20.236  0.00  0.00    +0.000 NA
ENDROOT
BRANCH   1  14
ATOM     11  C   UNL     1       0.044  10.475  21.383  0.00  0.00    +0.000 A 
ATOM     12  C   UNL     1       0.520   9.424  22.181  0.00  0.00    +0.000 A 
ATOM     13  C   UNL     1       1.259   8.346  21.655  0.00  0.00    +0.000 A 
ATOM     14  C   UNL     1       1.574   8.268  20.294  0.00  0.00    +0.000 A 
ATOM     15  C   UNL     1       1.151   9.348  19.502  0.00  0.00    +0.000 A 
ATOM     16  C   UNL     1       0.402  10.414  20.030  0.00  0.00    +0.000 A 
BRANCH  11  18
ATOM     17  C   UNL     1      -0.429  12.900  21.507  0.00  0.00    +0.000 C 
ATOM     18  N   UNL     1      -0.716  11.526  21.895  0.00  0.00    +0.000 N 
ATOM     19  C   UNL     1      -1.539  11.319  23.082  0.00  0.00    +0.000 C 
ENDBRANCH  11  18
ENDBRANCH   1  14
BRANCH   9  20
ATOM     20  N   UNL     1       1.980   3.525  20.225  0.00  0.00    +0.000 N 
ATOM     21  C   UNL     1       0.836   2.885  19.578  0.00  0.00    +0.000 C 
ATOM     22  C   UNL     1       2.190   3.112  21.606  0.00  0.00    +0.000 C 
ENDBRANCH   9  20
TORSDOF 3
ENDMDL
MODEL 9
REMARK VINA RESULT:      -7.1      1.554      3.431
REMARK  Name = 
REMARK  7 active torsions:
REMARK  status: ('A' for Active; 'I' for Inactive)
REMARK    1  A    between atoms: C_1  and  N_2
REMARK    2  A    between atoms: N_2  and  C_3
REMARK    3  A    between atoms: N_2  and  C_4
REMARK    4  A    between atoms: C_7  and  C_8
REMARK    5  A    between atoms: C_16  and  N_17
REMARK    6  A    between atoms: N_17  and  C_18
REMARK    7  A    between atoms: N_17  and  C_19
REMARK                            x       y       z     vdW  Elec       q    Type
REMARK                         _______ _______ _______ _____ _____    ______ ____
ROOT
ATOM      1  C   UNL     1       2.773   6.423  18.511  0.00  0.00    +0.000 A 
ATOM      2  C   UNL     1       1.943   5.327  18.590  0.00  0.00    +0.000 A 
ATOM      3  C   UNL     1       2.453   4.064  18.472  0.00  0.00    +0.000 A 
ATOM      4  N   UNL     1       1.548   3.075  18.608  0.00  0.00    +0.000 NA
ATOM      5  C   UNL     1       1.987   1.806  18.577  0.00  0.00    +0.000 A 
ATOM      6  C   UNL     1       3.306   1.470  18.420  0.00  0.00    +0.000 A 
ATOM      7  C   UNL     1       4.235   2.506  18.285  0.00  0.00    +0.000 A 
ATOM      8  C   UNL     1       3.834   3.870  18.280  0.00  0.00    +0.000 A 
ATOM      9  C   UNL     1       4.660   5.037  18.176  0.00  0.00    +0.000 A 
ATOM     10  N   UNL     1       4.105   6.273  18.296  0.00  0.00    +0.000 NA
ENDROOT
BRANCH   1  14
ATOM     11  C   UNL     1       1.057  10.400  19.155  0.00  0.00    +0.000 A 
ATOM     12  C   UNL     1       1.061   9.413  20.152  0.00  0.00    +0.000 A 
ATOM     13  C   UNL     1       1.640   8.143  19.961  0.00  0.00    +0.000 A 
ATOM     14  C   UNL     1       2.263   7.795  18.757  0.00  0.00    +0.000 A 
ATOM     15  C   UNL     1       2.313   8.801  17.778  0.00  0.00    +0.000 A 
ATOM     16  C   UNL     1       1.721  10.061  17.970  0.00  0.00    +0.000 A 
BRANCH  11  18
ATOM     17  C   UNL     1      -0.794  11.962  18.650  0.00  0.00    +0.000 C 
ATOM     18  N   UNL     1       0.455  11.645  19.330  0.00  0.00    +0.000 N 
ATOM     19  C   UNL     1       1.226  12.758  19.873  0.00  0.00    +0.000 C 
ENDBRANCH  11  18
ENDBRANCH   1  14
BRANCH   9  20
ATOM     20  N   UNL     1       6.049   4.992  18.069  0.00  0.00    +0.000 N 
ATOM     21  C   UNL     1       6.835   5.567  19.160  0.00  0.00    +0.000 C 
ATOM     22  C   UNL     1       6.771   4.883  16.809  0.00  0.00    +0.000 C 
ENDBRANCH   9  20
TORSDOF 3
ENDMDL
