MODEL 1
REMARK VINA RESULT:      -5.9      0.000      0.000
REMARK  Name = 
REMARK  10 active torsions:
REMARK  status: ('A' for Active; 'I' for Inactive)
REMARK    1  A    between atoms: C_1  and  O_2
REMARK    2  A    between atoms: O_2  and  C_3
REMARK    3  A    between atoms: C_3  and  C_5
REMARK    4  A    between atoms: C_5  and  C_6
REMARK    5  A    between atoms: C_5  and  C_7
REMARK    6  A    between atoms: C_7  and  S_8
REMARK    7  A    between atoms: S_8  and  N_11
REMARK    8  A    between atoms: N_11  and  C_12
REMARK    9  A    between atoms: C_12  and  C_13
REMARK   10  A    between atoms: C_15  and  C_16
REMARK                            x       y       z     vdW  Elec       q    Type
REMARK                         _______ _______ _______ _____ _____    ______ ____
ROOT
ATOM      1  S   UNL     1       7.517   4.781  17.724  0.00  0.00    +0.000 S 
ATOM      2  O   UNL     1       8.709   3.989  17.945  0.00  0.00    +0.000 OA
ATOM      3  O   UNL     1       7.359   6.092  18.312  0.00  0.00    +0.000 OA
ENDROOT
BRANCH   1   4
ATOM      4  N   UNL     1       6.199   3.879  18.218  0.00  0.00    +0.000 NA
ATOM      5  H   UNL     1       6.266   2.862  18.163  0.00  0.00    +0.000 HD
BRANCH   4   6
ATOM      6  C   UNL     1       5.487   4.375  19.409  0.00  0.00    +0.000 C 
BRANCH   6   7
ATOM      7  C   UNL     1       4.141   3.710  19.506  0.00  0.00    +0.000 A 
ATOM      8  N   UNL     1       3.057   4.278  20.006  0.00  0.00    +0.000 NA
ATOM      9  C   UNL     1       1.973   3.420  19.880  0.00  0.00    +0.000 A 
ATOM     10  C   UNL     1       0.636   3.866  20.348  0.00  0.00    +0.000 C 
ATOM     11  C   UNL     1       2.262   2.201  19.298  0.00  0.00    +0.000 A 
ATOM     12  S   UNL     1       3.922   2.116  18.897  0.00  0.00    +0.000 S 
ENDBRANCH   6   7
ENDBRANCH   4   6
ENDBRANCH   1   4
BRANCH   1  13
ATOM     13  C   UNL     1       7.280   4.932  15.962  0.00  0.00    +0.000 C 
BRANCH  13  14
ATOM     14  C   UNL     1       5.814   4.719  15.552  0.00  0.00    +0.000 C 
ATOM     15  C   UNL     1       5.649   4.245  14.107  0.00  0.00    +0.000 C 
BRANCH  14  16
ATOM     16  C   UNL     1       5.049   6.016  15.745  0.00  0.00    +0.000 C 
ATOM     17  O   UNL     1       5.194   7.019  15.060  0.00  0.00    +0.000 OA
BRANCH  16  19
ATOM     18  C   UNL     1       3.947   7.130  17.499  0.00  0.00    +0.000 C 
ATOM     19  O   UNL     1       4.194   5.909  16.800  0.00  0.00    +0.000 OA
ENDBRANCH  16  19
ENDBRANCH  14  16
ENDBRANCH  13  14
ENDBRANCH   1  13
TORSDOF 7
ENDMDL
MODEL 2
REMARK VINA RESULT:      -5.8      2.116      3.250
REMARK  Name = 
REMARK  10 active torsions:
REMARK  status: ('A' for Active; 'I' for Inactive)
REMARK    1  A    between atoms: C_1  and  O_2
REMARK    2  A    between atoms: O_2  and  C_3
REMARK    3  A    between atoms: C_3  and  C_5
REMARK    4  A    between atoms: C_5  and  C_6
REMARK    5  A    between atoms: C_5  and  C_7
REMARK    6  A    between atoms: C_7  and  S_8
REMARK    7  A    between atoms: S_8  and  N_11
REMARK    8  A    between atoms: N_11  and  C_12
REMARK    9  A    between atoms: C_12  and  C_13
REMARK   10  A    between atoms: C_15  and  C_16
REMARK                            x       y       z     vdW  Elec       q    Type
REMARK                         _______ _______ _______ _____ _____    ______ ____
ROOT
ATOM      1  S   UNL     1       4.415   5.827  18.331  0.00  0.00    +0.000 S 
ATOM      2  O   UNL     1       5.164   5.327  19.465  0.00  0.00    +0.000 OA
ATOM      3  O   UNL     1       3.150   6.507  18.499  0.00  0.00    +0.000 OA
ENDROOT
BRANCH   1   4
ATOM      4  N   UNL     1       4.129   4.547  17.295  0.00  0.00    +0.000 NA
ATOM      5  H   UNL     1       4.554   4.577  16.367  0.00  0.00    +0.000 HD
BRANCH   4   6
ATOM      6  C   UNL     1       4.117   3.207  17.911  0.00  0.00    +0.000 C 
BRANCH   6   7
ATOM      7  C   UNL     1       2.906   3.069  18.792  0.00  0.00    +0.000 A 
ATOM      8  N   UNL     1       2.942   2.724  20.068  0.00  0.00    +0.000 NA
ATOM      9  C   UNL     1       1.661   2.759  20.602  0.00  0.00    +0.000 A 
ATOM     10  C   UNL     1       1.465   2.438  22.040  0.00  0.00    +0.000 C 
ATOM     11  C   UNL     1       0.668   3.115  19.710  0.00  0.00    +0.000 A 
ATOM     12  S   UNL     1       1.341   3.415  18.167  0.00  0.00    +0.000 S 
ENDBRANCH   6   7
ENDBRANCH   4   6
ENDBRANCH   1   4
BRANCH   1  13
ATOM     13  C   UNL     1       5.494   6.891  17.389  0.00  0.00    +0.000 C 
BRANCH  13  14
ATOM     14  C   UNL     1       6.978   6.631  17.693  0.00  0.00    +0.000 C 
ATOM     15  C   UNL     1       7.869   7.853  17.463  0.00  0.00    +0.000 C 
BRANCH  14  16
ATOM     16  C   UNL     1       7.471   5.482  16.833  0.00  0.00    +0.000 C 
ATOM     17  O   UNL     1       7.995   4.464  17.264  0.00  0.00    +0.000 OA
BRANCH  16  19
ATOM     18  C   UNL     1       7.052   4.608  14.690  0.00  0.00    +0.000 C 
ATOM     19  O   UNL     1       7.265   5.755  15.515  0.00  0.00    +0.000 OA
ENDBRANCH  16  19
ENDBRANCH  14  16
ENDBRANCH  13  14
ENDBRANCH   1  13
TORSDOF 7
ENDMDL
MODEL 3
REMARK VINA RESULT:      -5.8      1.871      2.939
REMARK  Name = 
REMARK  10 active torsions:
REMARK  status: ('A' for Active; 'I' for Inactive)
REMARK    1  A    between atoms: C_1  and  O_2
REMARK    2  A    between atoms: O_2  and  C_3
REMARK    3  A    between atoms: C_3  and  C_5
REMARK    4  A    between atoms: C_5  and  C_6
REMARK    5  A    between atoms: C_5  and  C_7
REMARK    6  A    between atoms: C_7  and  S_8
REMARK    7  A    between atoms: S_8  and  N_11
REMARK    8  A    between atoms: N_11  and  C_12
REMARK    9  A    between atoms: C_12  and  C_13
REMARK   10  A    between atoms: C_15  and  C_16
REMARK                            x       y       z     vdW  Elec       q    Type
REMARK                         _______ _______ _______ _____ _____    ______ ____
ROOT
ATOM      1  S   UNL     1       4.404   4.036  16.955  0.00  0.00    +0.000 S 
ATOM      2  O   UNL     1       4.054   5.432  16.797  0.00  0.00    +0.000 OA
ATOM      3  O   UNL     1       3.395   3.001  17.003  0.00  0.00    +0.000 OA
ENDROOT
BRANCH   1   4
ATOM      4  N   UNL     1       5.302   3.885  18.358  0.00  0.00    +0.000 NA
ATOM      5  H   UNL     1       6.286   3.625  18.271  0.00  0.00    +0.000 HD
BRANCH   4   6
ATOM      6  C   UNL     1       5.030   4.881  19.410  0.00  0.00    +0.000 C 
BRANCH   6   7
ATOM      7  C   UNL     1       3.645   4.670  19.958  0.00  0.00    +0.000 A 
ATOM      8  N   UNL     1       3.229   3.559  20.540  0.00  0.00    +0.000 NA
ATOM      9  C   UNL     1       1.927   3.723  20.994  0.00  0.00    +0.000 A 
ATOM     10  C   UNL     1       1.264   2.605  21.714  0.00  0.00    +0.000 C 
ATOM     11  C   UNL     1       1.370   4.958  20.729  0.00  0.00    +0.000 A 
ATOM     12  S   UNL     1       2.491   5.945  19.895  0.00  0.00    +0.000 S 
ENDBRANCH   6   7
ENDBRANCH   4   6
ENDBRANCH   1   4
BRANCH   1  13
ATOM     13  C   UNL     1       5.569   3.615  15.670  0.00  0.00    +0.000 C 
BRANCH  13  14
ATOM     14  C   UNL     1       6.351   4.840  15.170  0.00  0.00    +0.000 C 
ATOM     15  C   UNL     1       7.017   4.623  13.811  0.00  0.00    +0.000 C 
BRANCH  14  16
ATOM     16  C   UNL     1       7.409   5.208  16.194  0.00  0.00    +0.000 C 
ATOM     17  O   UNL     1       8.013   4.405  16.892  0.00  0.00    +0.000 OA
BRANCH  16  19
ATOM     18  C   UNL     1       7.379   7.146  17.528  0.00  0.00    +0.000 C 
ATOM     19  O   UNL     1       7.575   6.559  16.239  0.00  0.00    +0.000 OA
ENDBRANCH  16  19
ENDBRANCH  14  16
ENDBRANCH  13  14
ENDBRANCH   1  13
TORSDOF 7
ENDMDL
MODEL 4
REMARK VINA RESULT:      -5.7      1.727      2.544
REMARK  Name = 
REMARK  10 active torsions:
REMARK  status: ('A' for Active; 'I' for Inactive)
REMARK    1  A    between atoms: C_1  and  O_2
REMARK    2  A    between atoms: O_2  and  C_3
REMARK    3  A    between atoms: C_3  and  C_5
REMARK    4  A    between atoms: C_5  and  C_6
REMARK    5  A    between atoms: C_5  and  C_7
REMARK    6  A    between atoms: C_7  and  S_8
REMARK    7  A    between atoms: S_8  and  N_11
REMARK    8  A    between atoms: N_11  and  C_12
REMARK    9  A    between atoms: C_12  and  C_13
REMARK   10  A    between atoms: C_15  and  C_16
REMARK                            x       y       z     vdW  Elec       q    Type
REMARK                         _______ _______ _______ _____ _____    ______ ____
ROOT
ATOM      1  S   UNL     1       6.792   6.211  18.036  0.00  0.00    +0.000 S 
ATOM      2  O   UNL     1       8.042   6.623  18.640  0.00  0.00    +0.000 OA
ATOM      3  O   UNL     1       5.874   7.171  17.464  0.00  0.00    +0.000 OA
ENDROOT
BRANCH   1   4
ATOM      4  N   UNL     1       5.926   5.350  19.177  0.00  0.00    +0.000 NA
ATOM      5  H   UNL     1       6.362   5.185  20.086  0.00  0.00    +0.000 HD
BRANCH   4   6
ATOM      6  C   UNL     1       4.481   5.636  19.243  0.00  0.00    +0.000 C 
BRANCH   6   7
ATOM      7  C   UNL     1       3.712   4.343  19.276  0.00  0.00    +0.000 A 
ATOM      8  N   UNL     1       2.425   4.228  19.001  0.00  0.00    +0.000 NA
ATOM      9  C   UNL     1       2.048   2.893  19.055  0.00  0.00    +0.000 A 
ATOM     10  C   UNL     1       0.642   2.523  18.746  0.00  0.00    +0.000 C 
ATOM     11  C   UNL     1       3.060   2.017  19.392  0.00  0.00    +0.000 A 
ATOM     12  S   UNL     1       4.520   2.870  19.647  0.00  0.00    +0.000 S 
ENDBRANCH   6   7
ENDBRANCH   4   6
ENDBRANCH   1   4
BRANCH   1  13
ATOM     13  C   UNL     1       7.164   4.990  16.789  0.00  0.00    +0.000 C 
BRANCH  13  14
ATOM     14  C   UNL     1       6.098   4.946  15.682  0.00  0.00    +0.000 C 
ATOM     15  C   UNL     1       5.050   3.852  15.890  0.00  0.00    +0.000 C 
BRANCH  14  16
ATOM     16  C   UNL     1       6.779   4.740  14.341  0.00  0.00    +0.000 C 
ATOM     17  O   UNL     1       7.778   5.339  13.968  0.00  0.00    +0.000 OA
BRANCH  16  19
ATOM     18  C   UNL     1       6.578   3.647  12.268  0.00  0.00    +0.000 C 
ATOM     19  O   UNL     1       6.108   3.809  13.607  0.00  0.00    +0.000 OA
ENDBRANCH  16  19
ENDBRANCH  14  16
ENDBRANCH  13  14
ENDBRANCH   1  13
TORSDOF 7
ENDMDL
MODEL 5
REMARK VINA RESULT:      -5.7      2.145      2.866
REMARK  Name = 
REMARK  10 active torsions:
REMARK  status: ('A' for Active; 'I' for Inactive)
REMARK    1  A    between atoms: C_1  and  O_2
REMARK    2  A    between atoms: O_2  and  C_3
REMARK    3  A    between atoms: C_3  and  C_5
REMARK    4  A    between atoms: C_5  and  C_6
REMARK    5  A    between atoms: C_5  and  C_7
REMARK    6  A    between atoms: C_7  and  S_8
REMARK    7  A    between atoms: S_8  and  N_11
REMARK    8  A    between atoms: N_11  and  C_12
REMARK    9  A    between atoms: C_12  and  C_13
REMARK   10  A    between atoms: C_15  and  C_16
REMARK                            x       y       z     vdW  Elec       q    Type
REMARK                         _______ _______ _______ _____ _____    ______ ____
ROOT
ATOM      1  S   UNL     1       5.797   4.594  18.720  0.00  0.00    +0.000 S 
ATOM      2  O   UNL     1       5.366   3.348  19.318  0.00  0.00    +0.000 OA
ATOM      3  O   UNL     1       7.163   5.054  18.828  0.00  0.00    +0.000 OA
ENDROOT
BRANCH   1   4
ATOM      4  N   UNL     1       4.836   5.819  19.330  0.00  0.00    +0.000 NA
ATOM      5  H   UNL     1       5.293   6.681  19.633  0.00  0.00    +0.000 HD
BRANCH   4   6
ATOM      6  C   UNL     1       3.545   6.026  18.650  0.00  0.00    +0.000 C 
BRANCH   6   7
ATOM      7  C   UNL     1       2.533   5.046  19.179  0.00  0.00    +0.000 A 
ATOM      8  N   UNL     1       2.047   4.027  18.493  0.00  0.00    +0.000 NA
ATOM      9  C   UNL     1       1.193   3.283  19.296  0.00  0.00    +0.000 A 
ATOM     10  C   UNL     1       0.552   2.063  18.740  0.00  0.00    +0.000 C 
ATOM     11  C   UNL     1       1.033   3.767  20.579  0.00  0.00    +0.000 A 
ATOM     12  S   UNL     1       1.966   5.182  20.798  0.00  0.00    +0.000 S 
ENDBRANCH   6   7
ENDBRANCH   4   6
ENDBRANCH   1   4
BRANCH   1  13
ATOM     13  C   UNL     1       5.363   4.549  16.990  0.00  0.00    +0.000 C 
BRANCH  13  14
ATOM     14  C   UNL     1       6.097   5.628  16.178  0.00  0.00    +0.000 C 
ATOM     15  C   UNL     1       5.162   6.686  15.589  0.00  0.00    +0.000 C 
BRANCH  14  16
ATOM     16  C   UNL     1       6.875   4.966  15.055  0.00  0.00    +0.000 C 
ATOM     17  O   UNL     1       7.898   5.416  14.557  0.00  0.00    +0.000 OA
BRANCH  16  19
ATOM     18  C   UNL     1       6.154   3.633  13.257  0.00  0.00    +0.000 C 
ATOM     19  O   UNL     1       6.262   3.812  14.670  0.00  0.00    +0.000 OA
ENDBRANCH  16  19
ENDBRANCH  14  16
ENDBRANCH  13  14
ENDBRANCH   1  13
TORSDOF 7
ENDMDL
MODEL 6
REMARK VINA RESULT:      -5.6      2.986      4.351
REMARK  Name = 
REMARK  10 active torsions:
REMARK  status: ('A' for Active; 'I' for Inactive)
REMARK    1  A    between atoms: C_1  and  O_2
REMARK    2  A    between atoms: O_2  and  C_3
REMARK    3  A    between atoms: C_3  and  C_5
REMARK    4  A    between atoms: C_5  and  C_6
REMARK    5  A    between atoms: C_5  and  C_7
REMARK    6  A    between atoms: C_7  and  S_8
REMARK    7  A    between atoms: S_8  and  N_11
REMARK    8  A    between atoms: N_11  and  C_12
REMARK    9  A    between atoms: C_12  and  C_13
REMARK   10  A    between atoms: C_15  and  C_16
REMARK                            x       y       z     vdW  Elec       q    Type
REMARK                         _______ _______ _______ _____ _____    ______ ____
ROOT
ATOM      1  S   UNL     1       3.862   3.665  18.632  0.00  0.00    +0.000 S 
ATOM      2  O   UNL     1       2.462   3.434  18.344  0.00  0.00    +0.000 OA
ATOM      3  O   UNL     1       4.615   2.782  19.494  0.00  0.00    +0.000 OA
ENDROOT
BRANCH   1   4
ATOM      4  N   UNL     1       4.009   5.198  19.281  0.00  0.00    +0.000 NA
ATOM      5  H   UNL     1       4.427   5.927  18.700  0.00  0.00    +0.000 HD
BRANCH   4   6
ATOM      6  C   UNL     1       2.883   5.659  20.112  0.00  0.00    +0.000 C 
BRANCH   6   7
ATOM      7  C   UNL     1       2.370   6.972  19.585  0.00  0.00    +0.000 A 
ATOM      8  N   UNL     1       1.690   7.853  20.297  0.00  0.00    +0.000 NA
ATOM      9  C   UNL     1       1.433   8.981  19.531  0.00  0.00    +0.000 A 
ATOM     10  C   UNL     1       0.704  10.123  20.142  0.00  0.00    +0.000 C 
ATOM     11  C   UNL     1       1.911   8.927  18.237  0.00  0.00    +0.000 A 
ATOM     12  S   UNL     1       2.702   7.436  17.961  0.00  0.00    +0.000 S 
ENDBRANCH   6   7
ENDBRANCH   4   6
ENDBRANCH   1   4
BRANCH   1  13
ATOM     13  C   UNL     1       4.727   3.789  17.075  0.00  0.00    +0.000 C 
BRANCH  13  14
ATOM     14  C   UNL     1       5.610   5.045  16.999  0.00  0.00    +0.000 C 
ATOM     15  C   UNL     1       5.541   5.755  15.646  0.00  0.00    +0.000 C 
BRANCH  14  16
ATOM     16  C   UNL     1       7.049   4.662  17.292  0.00  0.00    +0.000 C 
ATOM     17  O   UNL     1       7.896   4.434  16.440  0.00  0.00    +0.000 OA
BRANCH  16  19
ATOM     18  C   UNL     1       7.665   5.814  19.248  0.00  0.00    +0.000 C 
ATOM     19  O   UNL     1       7.255   4.589  18.636  0.00  0.00    +0.000 OA
ENDBRANCH  16  19
ENDBRANCH  14  16
ENDBRANCH  13  14
ENDBRANCH   1  13
TORSDOF 7
ENDMDL
MODEL 7
REMARK VINA RESULT:      -5.6      1.891      2.820
REMARK  Name = 
REMARK  10 active torsions:
REMARK  status: ('A' for Active; 'I' for Inactive)
REMARK    1  A    between atoms: C_1  and  O_2
REMARK    2  A    between atoms: O_2  and  C_3
REMARK    3  A    between atoms: C_3  and  C_5
REMARK    4  A    between atoms: C_5  and  C_6
REMARK    5  A    between atoms: C_5  and  C_7
REMARK    6  A    between atoms: C_7  and  S_8
REMARK    7  A    between atoms: S_8  and  N_11
REMARK    8  A    between atoms: N_11  and  C_12
REMARK    9  A    between atoms: C_12  and  C_13
REMARK   10  A    between atoms: C_15  and  C_16
REMARK                            x       y       z     vdW  Elec       q    Type
REMARK                         _______ _______ _______ _____ _____    ______ ____
ROOT
ATOM      1  S   UNL     1       4.428   3.672  17.208  0.00  0.00    +0.000 S 
ATOM      2  O   UNL     1       4.054   5.062  17.048  0.00  0.00    +0.000 OA
ATOM      3  O   UNL     1       3.452   2.609  17.127  0.00  0.00    +0.000 OA
ENDROOT
BRANCH   1   4
ATOM      4  N   UNL     1       5.183   3.509  18.691  0.00  0.00    +0.000 NA
ATOM      5  H   UNL     1       5.720   4.302  19.045  0.00  0.00    +0.000 HD
BRANCH   4   6
ATOM      6  C   UNL     1       4.425   2.781  19.725  0.00  0.00    +0.000 C 
BRANCH   6   7
ATOM      7  C   UNL     1       3.189   3.559  20.086  0.00  0.00    +0.000 A 
ATOM      8  N   UNL     1       3.152   4.867  20.267  0.00  0.00    +0.000 NA
ATOM      9  C   UNL     1       1.848   5.272  20.519  0.00  0.00    +0.000 A 
ATOM     10  C   UNL     1       1.563   6.716  20.722  0.00  0.00    +0.000 C 
ATOM     11  C   UNL     1       0.917   4.252  20.543  0.00  0.00    +0.000 A 
ATOM     12  S   UNL     1       1.678   2.751  20.245  0.00  0.00    +0.000 S 
ENDBRANCH   6   7
ENDBRANCH   4   6
ENDBRANCH   1   4
BRANCH   1  13
ATOM     13  C   UNL     1       5.730   3.319  16.039  0.00  0.00    +0.000 C 
BRANCH  13  14
ATOM     14  C   UNL     1       5.874   4.421  14.978  0.00  0.00    +0.000 C 
ATOM     15  C   UNL     1       5.793   3.898  13.543  0.00  0.00    +0.000 C 
BRANCH  14  16
ATOM     16  C   UNL     1       7.198   5.136  15.177  0.00  0.00    +0.000 C 
ATOM     17  O   UNL     1       7.892   5.583  14.274  0.00  0.00    +0.000 OA
BRANCH  16  19
ATOM     18  C   UNL     1       7.296   6.461  17.119  0.00  0.00    +0.000 C 
ATOM     19  O   UNL     1       7.512   5.190  16.502  0.00  0.00    +0.000 OA
ENDBRANCH  16  19
ENDBRANCH  14  16
ENDBRANCH  13  14
ENDBRANCH   1  13
TORSDOF 7
ENDMDL
MODEL 8
REMARK VINA RESULT:      -5.5      2.339      3.124
REMARK  Name = 
REMARK  10 active torsions:
REMARK  status: ('A' for Active; 'I' for Inactive)
REMARK    1  A    between atoms: C_1  and  O_2
REMARK    2  A    between atoms: O_2  and  C_3
REMARK    3  A    between atoms: C_3  and  C_5
REMARK    4  A    between atoms: C_5  and  C_6
REMARK    5  A    between atoms: C_5  and  C_7
REMARK    6  A    between atoms: C_7  and  S_8
REMARK    7  A    between atoms: S_8  and  N_11
REMARK    8  A    between atoms: N_11  and  C_12
REMARK    9  A    between atoms: C_12  and  C_13
REMARK   10  A    between atoms: C_15  and  C_16
REMARK                            x       y       z     vdW  Elec       q    Type
REMARK                         _______ _______ _______ _____ _____    ______ ____
ROOT
ATOM      1  S   UNL     1       6.201   5.258  16.145  0.00  0.00    +0.000 S 
ATOM      2  O   UNL     1       7.316   4.435  16.563  0.00  0.00    +0.000 OA
ATOM      3  O   UNL     1       6.326   6.693  16.011  0.00  0.00    +0.000 OA
ENDROOT
BRANCH   1   4
ATOM      4  N   UNL     1       4.936   4.992  17.205  0.00  0.00    +0.000 NA
ATOM      5  H   UNL     1       3.994   4.920  16.819  0.00  0.00    +0.000 HD
BRANCH   4   6
ATOM      6  C   UNL     1       5.208   4.060  18.314  0.00  0.00    +0.000 C 
BRANCH   6   7
ATOM      7  C   UNL     1       3.918   3.446  18.785  0.00  0.00    +0.000 A 
ATOM      8  N   UNL     1       3.519   3.411  20.045  0.00  0.00    +0.000 NA
ATOM      9  C   UNL     1       2.256   2.840  20.124  0.00  0.00    +0.000 A 
ATOM     10  C   UNL     1       1.592   2.728  21.449  0.00  0.00    +0.000 C 
ATOM     11  C   UNL     1       1.725   2.432  18.916  0.00  0.00    +0.000 A 
ATOM     12  S   UNL     1       2.821   2.767  17.647  0.00  0.00    +0.000 S 
ENDBRANCH   6   7
ENDBRANCH   4   6
ENDBRANCH   1   4
BRANCH   1  13
ATOM     13  C   UNL     1       5.591   4.609  14.599  0.00  0.00    +0.000 C 
BRANCH  13  14
ATOM     14  C   UNL     1       6.724   4.097  13.695  0.00  0.00    +0.000 C 
ATOM     15  C   UNL     1       7.666   5.203  13.217  0.00  0.00    +0.000 C 
BRANCH  14  16
ATOM     16  C   UNL     1       6.124   3.394  12.492  0.00  0.00    +0.000 C 
ATOM     17  O   UNL     1       6.757   2.718  11.692  0.00  0.00    +0.000 OA
BRANCH  16  19
ATOM     18  C   UNL     1       4.141   3.108  11.259  0.00  0.00    +0.000 C 
ATOM     19  O   UNL     1       4.787   3.640  12.418  0.00  0.00    +0.000 OA
ENDBRANCH  16  19
ENDBRANCH  14  16
ENDBRANCH  13  14
ENDBRANCH   1  13
TORSDOF 7
ENDMDL
MODEL 9
REMARK VINA RESULT:      -5.5      2.675      3.462
REMARK  Name = 
REMARK  10 active torsions:
REMARK  status: ('A' for Active; 'I' for Inactive)
REMARK    1  A    between atoms: C_1  and  O_2
REMARK    2  A    between atoms: O_2  and  C_3
REMARK    3  A    between atoms: C_3  and  C_5
REMARK    4  A    between atoms: C_5  and  C_6
REMARK    5  A    between atoms: C_5  and  C_7
REMARK    6  A    between atoms: C_7  and  S_8
REMARK    7  A    between atoms: S_8  and  N_11
REMARK    8  A    between atoms: N_11  and  C_12
REMARK    9  A    between atoms: C_12  and  C_13
REMARK   10  A    between atoms: C_15  and  C_16
REMARK                            x       y       z     vdW  Elec       q    Type
REMARK                         _______ _______ _______ _____ _____    ______ ____
ROOT
ATOM      1  S   UNL     1       6.385   4.999  16.090  0.00  0.00    +0.000 S 
ATOM      2  O   UNL     1       5.444   5.107  14.995  0.00  0.00    +0.000 OA
ATOM      3  O   UNL     1       7.757   4.597  15.873  0.00  0.00    +0.000 OA
ENDROOT
BRANCH   1   4
ATOM      4  N   UNL     1       5.752   3.934  17.212  0.00  0.00    +0.000 NA
ATOM      5  H   UNL     1       6.013   4.059  18.192  0.00  0.00    +0.000 HD
BRANCH   4   6
ATOM      6  C   UNL     1       4.348   3.537  17.006  0.00  0.00    +0.000 C 
BRANCH   6   7
ATOM      7  C   UNL     1       3.538   3.897  18.221  0.00  0.00    +0.000 A 
ATOM      8  N   UNL     1       2.392   3.331  18.554  0.00  0.00    +0.000 NA
ATOM      9  C   UNL     1       1.945   3.844  19.764  0.00  0.00    +0.000 A 
ATOM     10  C   UNL     1       0.683   3.325  20.352  0.00  0.00    +0.000 C 
ATOM     11  C   UNL     1       2.758   4.812  20.320  0.00  0.00    +0.000 A 
ATOM     12  S   UNL     1       4.114   5.092  19.317  0.00  0.00    +0.000 S 
ENDBRANCH   6   7
ENDBRANCH   4   6
ENDBRANCH   1   4
BRANCH   1  13
ATOM     13  C   UNL     1       6.395   6.559  16.957  0.00  0.00    +0.000 C 
BRANCH  13  14
ATOM     14  C   UNL     1       7.738   6.827  17.656  0.00  0.00    +0.000 C 
ATOM     15  C   UNL     1       7.874   6.118  19.004  0.00  0.00    +0.000 C 
BRANCH  14  16
ATOM     16  C   UNL     1       7.907   8.322  17.855  0.00  0.00    +0.000 C 
ATOM     17  O   UNL     1       7.334   9.182  17.201  0.00  0.00    +0.000 OA
BRANCH  16  19
ATOM     18  C   UNL     1       9.098   9.950  19.066  0.00  0.00    +0.000 C 
ATOM     19  O   UNL     1       8.803   8.568  18.852  0.00  0.00    +0.000 OA
ENDBRANCH  16  19
ENDBRANCH  14  16
ENDBRANCH  13  14
ENDBRANCH   1  13
TORSDOF 7
ENDMDL
