MODEL 1
REMARK VINA RESULT:      -7.8      0.000      0.000
REMARK  Name = 
REMARK  9 active torsions:
REMARK  status: ('A' for Active; 'I' for Inactive)
REMARK    1  A    between atoms: C_1  and  C_2
REMARK    2  A    between atoms: C_2  and  N_3
REMARK    3  A    between atoms: C_4  and  C_6
REMARK    4  A    between atoms: C_10  and  C_11
REMARK    5  A    between atoms: C_13  and  O_14
REMARK    6  A    between atoms: O_14  and  C_15
REMARK    7  A    between atoms: C_18  and  O_19
REMARK    8  A    between atoms: O_19  and  C_20
REMARK    9  A    between atoms: C_25  and  N_26
REMARK                            x       y       z     vdW  Elec       q    Type
REMARK                         _______ _______ _______ _____ _____    ______ ____
ROOT
ATOM      1  C   UNL     1       1.655   9.667  18.585  0.00  0.00    +0.000 A 
ATOM      2  N   UNL     1       2.308   9.175  17.515  0.00  0.00    +0.000 NA
ATOM      3  N   UNL     1       2.782   7.885  17.555  0.00  0.00    +0.000 NA
ATOM      4  C   UNL     1       2.650   7.089  18.636  0.00  0.00    +0.000 A 
ATOM      5  C   UNL     1       3.310   5.824  18.712  0.00  0.00    +0.000 A 
ATOM      6  C   UNL     1       3.061   5.003  19.830  0.00  0.00    +0.000 A 
ATOM      7  C   UNL     1       2.233   5.416  20.865  0.00  0.00    +0.000 A 
ATOM      8  C   UNL     1       1.675   6.687  20.829  0.00  0.00    +0.000 A 
ATOM      9  C   UNL     1       1.875   7.554  19.732  0.00  0.00    +0.000 A 
ATOM     10  C   UNL     1       1.358   8.883  19.707  0.00  0.00    +0.000 A 
ENDROOT
BRANCH   5  11
ATOM     11  C   UNL     1       4.348   5.412  17.696  0.00  0.00    +0.000 A 
ATOM     12  C   UNL     1       5.520   6.199  17.573  0.00  0.00    +0.000 A 
ATOM     13  C   UNL     1       6.517   5.940  16.631  0.00  0.00    +0.000 A 
ATOM     14  C   UNL     1       6.423   4.809  15.841  0.00  0.00    +0.000 A 
ATOM     15  C   UNL     1       5.315   3.971  15.967  0.00  0.00    +0.000 A 
ATOM     16  C   UNL     1       4.277   4.257  16.875  0.00  0.00    +0.000 A 
BRANCH  13  17
ATOM     17  O   UNL     1       7.546   6.838  16.592  0.00  0.00    +0.000 OA
ATOM     18  C   UNL     1       7.661   7.657  17.750  0.00  0.00    +0.000 C 
ENDBRANCH  13  17
BRANCH  16  19
ATOM     19  O   UNL     1       3.162   3.455  16.965  0.00  0.00    +0.000 OA
ATOM     20  C   UNL     1       3.342   2.191  17.604  0.00  0.00    +0.000 C 
ENDBRANCH  16  19
ENDBRANCH   5  11
BRANCH   1  22
ATOM     21  N   UNL     1       2.269  11.999  18.167  0.00  0.00    +0.000 N 
ATOM     22  C   UNL     1       1.251  11.110  18.471  0.00  0.00    +0.000 C 
ATOM     23  O   UNL     1       0.086  11.467  18.634  0.00  0.00    +0.000 OA
ATOM     24  H   UNL     1       3.192  11.611  17.988  0.00  0.00    +0.000 HD
BRANCH  21  26
ATOM     25  C   UNL     1       3.348  14.207  18.240  0.00  0.00    +0.000 C 
ATOM     26  C   UNL     1       2.058  13.425  18.072  0.00  0.00    +0.000 C 
ENDBRANCH  21  26
ENDBRANCH   1  22
BRANCH  10  27
ATOM     27  N   UNL     1       0.776   9.449  20.874  0.00  0.00    +0.000 N 
ATOM     28  H   UNL     1       0.168   8.831  21.398  0.00  0.00    +0.000 HD
ATOM     29  H   UNL     1       0.326  10.355  20.685  0.00  0.00    +0.000 HD
ENDBRANCH  10  27
TORSDOF 6
ENDMDL
MODEL 2
REMARK VINA RESULT:      -7.5      1.112      1.303
REMARK  Name = 
REMARK  9 active torsions:
REMARK  status: ('A' for Active; 'I' for Inactive)
REMARK    1  A    between atoms: C_1  and  C_2
REMARK    2  A    between atoms: C_2  and  N_3
REMARK    3  A    between atoms: C_4  and  C_6
REMARK    4  A    between atoms: C_10  and  C_11
REMARK    5  A    between atoms: C_13  and  O_14
REMARK    6  A    between atoms: O_14  and  C_15
REMARK    7  A    between atoms: C_18  and  O_19
REMARK    8  A    between atoms: O_19  and  C_20
REMARK    9  A    between atoms: C_25  and  N_26
REMARK                            x       y       z     vdW  Elec       q    Type
REMARK                         _______ _______ _______ _____ _____    ______ ____
ROOT
ATOM      1  C   UNL     1       1.600   9.609  18.653  0.00  0.00    +0.000 A 
ATOM      2  N   UNL     1       2.236   9.133  17.566  0.00  0.00    +0.000 NA
ATOM      3  N   UNL     1       2.734   7.852  17.588  0.00  0.00    +0.000 NA
ATOM      4  C   UNL     1       2.640   7.049  18.668  0.00  0.00    +0.000 A 
ATOM      5  C   UNL     1       3.324   5.795  18.722  0.00  0.00    +0.000 A 
ATOM      6  C   UNL     1       3.115   4.964  19.841  0.00  0.00    +0.000 A 
ATOM      7  C   UNL     1       2.304   5.358  20.897  0.00  0.00    +0.000 A 
ATOM      8  C   UNL     1       1.723   6.620  20.880  0.00  0.00    +0.000 A 
ATOM      9  C   UNL     1       1.883   7.495  19.783  0.00  0.00    +0.000 A 
ATOM     10  C   UNL     1       1.343   8.814  19.777  0.00  0.00    +0.000 A 
ENDROOT
BRANCH   5  11
ATOM     11  C   UNL     1       4.345   5.406  17.680  0.00  0.00    +0.000 A 
ATOM     12  C   UNL     1       5.518   6.193  17.559  0.00  0.00    +0.000 A 
ATOM     13  C   UNL     1       6.499   5.954  16.597  0.00  0.00    +0.000 A 
ATOM     14  C   UNL     1       6.390   4.844  15.780  0.00  0.00    +0.000 A 
ATOM     15  C   UNL     1       5.281   4.007  15.900  0.00  0.00    +0.000 A 
ATOM     16  C   UNL     1       4.258   4.273  16.831  0.00  0.00    +0.000 A 
BRANCH  13  17
ATOM     17  O   UNL     1       7.531   6.851  16.564  0.00  0.00    +0.000 OA
ATOM     18  C   UNL     1       7.694   7.609  17.758  0.00  0.00    +0.000 C 
ENDBRANCH  13  17
BRANCH  16  19
ATOM     19  O   UNL     1       3.142   3.472  16.918  0.00  0.00    +0.000 OA
ATOM     20  C   UNL     1       3.301   2.239  17.619  0.00  0.00    +0.000 C 
ENDBRANCH  16  19
ENDBRANCH   5  11
BRANCH   1  22
ATOM     21  N   UNL     1      -0.190  11.257  18.385  0.00  0.00    +0.000 N 
ATOM     22  C   UNL     1       1.168  11.046  18.555  0.00  0.00    +0.000 C 
ATOM     23  O   UNL     1       1.979  11.967  18.629  0.00  0.00    +0.000 OA
ATOM     24  H   UNL     1      -0.797  10.440  18.396  0.00  0.00    +0.000 HD
BRANCH  21  26
ATOM     25  C   UNL     1      -1.346  13.109  19.517  0.00  0.00    +0.000 C 
ATOM     26  C   UNL     1      -0.761  12.574  18.222  0.00  0.00    +0.000 C 
ENDBRANCH  21  26
ENDBRANCH   1  22
BRANCH  10  27
ATOM     27  N   UNL     1       0.778   9.364  20.961  0.00  0.00    +0.000 N 
ATOM     28  H   UNL     1       0.188   8.736  21.492  0.00  0.00    +0.000 HD
ATOM     29  H   UNL     1       0.314  10.267  20.787  0.00  0.00    +0.000 HD
ENDBRANCH  10  27
TORSDOF 6
ENDMDL
MODEL 3
REMARK VINA RESULT:      -7.5      2.026      3.586
REMARK  Name = 
REMARK  9 active torsions:
REMARK  status: ('A' for Active; 'I' for Inactive)
REMARK    1  A    between atoms: C_1  and  C_2
REMARK    2  A    between atoms: C_2  and  N_3
REMARK    3  A    between atoms: C_4  and  C_6
REMARK    4  A    between atoms: C_10  and  C_11
REMARK    5  A    between atoms: C_13  and  O_14
REMARK    6  A    between atoms: O_14  and  C_15
REMARK    7  A    between atoms: C_18  and  O_19
REMARK    8  A    between atoms: O_19  and  C_20
REMARK    9  A    between atoms: C_25  and  N_26
REMARK                            x       y       z     vdW  Elec       q    Type
REMARK                         _______ _______ _______ _____ _____    ______ ____
ROOT
ATOM      1  C   UNL     1       2.258   7.273  19.288  0.00  0.00    +0.000 A 
ATOM      2  N   UNL     1       2.899   7.414  18.111  0.00  0.00    +0.000 NA
ATOM      3  N   UNL     1       3.537   6.327  17.564  0.00  0.00    +0.000 NA
ATOM      4  C   UNL     1       3.578   5.120  18.165  0.00  0.00    +0.000 A 
ATOM      5  C   UNL     1       4.398   4.065  17.661  0.00  0.00    +0.000 A 
ATOM      6  C   UNL     1       4.329   2.803  18.284  0.00  0.00    +0.000 A 
ATOM      7  C   UNL     1       3.523   2.585  19.393  0.00  0.00    +0.000 A 
ATOM      8  C   UNL     1       2.805   3.642  19.936  0.00  0.00    +0.000 A 
ATOM      9  C   UNL     1       2.821   4.927  19.352  0.00  0.00    +0.000 A 
ATOM     10  C   UNL     1       2.137   6.036  19.931  0.00  0.00    +0.000 A 
ENDROOT
BRANCH   5  11
ATOM     11  C   UNL     1       5.414   4.308  16.570  0.00  0.00    +0.000 A 
ATOM     12  C   UNL     1       5.053   4.008  15.233  0.00  0.00    +0.000 A 
ATOM     13  C   UNL     1       5.932   4.144  14.158  0.00  0.00    +0.000 A 
ATOM     14  C   UNL     1       7.184   4.691  14.372  0.00  0.00    +0.000 A 
ATOM     15  C   UNL     1       7.564   5.055  15.663  0.00  0.00    +0.000 A 
ATOM     16  C   UNL     1       6.704   4.868  16.763  0.00  0.00    +0.000 A 
BRANCH  13  17
ATOM     17  O   UNL     1       5.452   3.741  12.943  0.00  0.00    +0.000 OA
ATOM     18  C   UNL     1       6.454   3.330  12.018  0.00  0.00    +0.000 C 
ENDBRANCH  13  17
BRANCH  16  19
ATOM     19  O   UNL     1       7.097   5.185  18.043  0.00  0.00    +0.000 OA
ATOM     20  C   UNL     1       7.627   6.496  18.236  0.00  0.00    +0.000 C 
ENDBRANCH  16  19
ENDBRANCH   5  11
BRANCH   1  22
ATOM     21  N   UNL     1       1.245   9.468  18.901  0.00  0.00    +0.000 N 
ATOM     22  C   UNL     1       1.665   8.540  19.839  0.00  0.00    +0.000 C 
ATOM     23  O   UNL     1       1.560   8.727  21.050  0.00  0.00    +0.000 OA
ATOM     24  H   UNL     1       1.313   9.207  17.920  0.00  0.00    +0.000 HD
BRANCH  21  26
ATOM     25  C   UNL     1      -0.812  10.793  19.144  0.00  0.00    +0.000 C 
ATOM     26  C   UNL     1       0.701  10.756  19.265  0.00  0.00    +0.000 C 
ENDBRANCH  21  26
ENDBRANCH   1  22
BRANCH  10  27
ATOM     27  N   UNL     1       1.563   5.927  21.227  0.00  0.00    +0.000 N 
ATOM     28  H   UNL     1       1.364   6.807  21.688  0.00  0.00    +0.000 HD
ATOM     29  H   UNL     1       2.094   5.290  21.836  0.00  0.00    +0.000 HD
ENDBRANCH  10  27
TORSDOF 6
ENDMDL
MODEL 4
REMARK VINA RESULT:      -7.4      1.719      2.766
REMARK  Name = 
REMARK  9 active torsions:
REMARK  status: ('A' for Active; 'I' for Inactive)
REMARK    1  A    between atoms: C_1  and  C_2
REMARK    2  A    between atoms: C_2  and  N_3
REMARK    3  A    between atoms: C_4  and  C_6
REMARK    4  A    between atoms: C_10  and  C_11
REMARK    5  A    between atoms: C_13  and  O_14
REMARK    6  A    between atoms: O_14  and  C_15
REMARK    7  A    between atoms: C_18  and  O_19
REMARK    8  A    between atoms: O_19  and  C_20
REMARK    9  A    between atoms: C_25  and  N_26
REMARK                            x       y       z     vdW  Elec       q    Type
REMARK                         _______ _______ _______ _____ _____    ______ ____
ROOT
ATOM      1  C   UNL     1       1.919   8.240  19.379  0.00  0.00    +0.000 A 
ATOM      2  N   UNL     1       2.651   8.102  18.257  0.00  0.00    +0.000 NA
ATOM      3  N   UNL     1       3.249   6.893  17.992  0.00  0.00    +0.000 NA
ATOM      4  C   UNL     1       3.162   5.835  18.824  0.00  0.00    +0.000 A 
ATOM      5  C   UNL     1       3.941   4.656  18.610  0.00  0.00    +0.000 A 
ATOM      6  C   UNL     1       3.740   3.554  19.465  0.00  0.00    +0.000 A 
ATOM      7  C   UNL     1       2.843   3.610  20.523  0.00  0.00    +0.000 A 
ATOM      8  C   UNL     1       2.163   4.793  20.783  0.00  0.00    +0.000 A 
ATOM      9  C   UNL     1       2.311   5.929  19.957  0.00  0.00    +0.000 A 
ATOM     10  C   UNL     1       1.666   7.168  20.244  0.00  0.00    +0.000 A 
ENDROOT
BRANCH   5  11
ATOM     11  C   UNL     1       5.047   4.615  17.583  0.00  0.00    +0.000 A 
ATOM     12  C   UNL     1       4.696   4.438  16.221  0.00  0.00    +0.000 A 
ATOM     13  C   UNL     1       5.640   4.333  15.199  0.00  0.00    +0.000 A 
ATOM     14  C   UNL     1       6.979   4.510  15.494  0.00  0.00    +0.000 A 
ATOM     15  C   UNL     1       7.369   4.744  16.812  0.00  0.00    +0.000 A 
ATOM     16  C   UNL     1       6.428   4.795  17.858  0.00  0.00    +0.000 A 
BRANCH  13  17
ATOM     17  O   UNL     1       5.140   4.088  13.951  0.00  0.00    +0.000 OA
ATOM     18  C   UNL     1       6.112   3.687  12.992  0.00  0.00    +0.000 C 
ENDBRANCH  13  17
BRANCH  16  19
ATOM     19  O   UNL     1       6.817   4.980  19.165  0.00  0.00    +0.000 OA
ATOM     20  C   UNL     1       7.957   5.813  19.373  0.00  0.00    +0.000 C 
ENDBRANCH  16  19
ENDBRANCH   5  11
BRANCH   1  22
ATOM     21  N   UNL     1       1.139  10.379  18.480  0.00  0.00    +0.000 N 
ATOM     22  C   UNL     1       1.378   9.623  19.615  0.00  0.00    +0.000 C 
ATOM     23  O   UNL     1       1.161  10.043  20.750  0.00  0.00    +0.000 OA
ATOM     24  H   UNL     1       1.289   9.931  17.578  0.00  0.00    +0.000 HD
BRANCH  21  26
ATOM     25  C   UNL     1       1.809  12.744  18.501  0.00  0.00    +0.000 C 
ATOM     26  C   UNL     1       0.668  11.743  18.536  0.00  0.00    +0.000 C 
ENDBRANCH  21  26
ENDBRANCH   1  22
BRANCH  10  27
ATOM     27  N   UNL     1       0.995   7.358  21.483  0.00  0.00    +0.000 N 
ATOM     28  H   UNL     1       0.355   6.618  21.747  0.00  0.00    +0.000 HD
ATOM     29  H   UNL     1       0.552   8.284  21.547  0.00  0.00    +0.000 HD
ENDBRANCH  10  27
TORSDOF 6
ENDMDL
MODEL 5
REMARK VINA RESULT:      -7.3      3.691      7.251
REMARK  Name = 
REMARK  9 active torsions:
REMARK  status: ('A' for Active; 'I' for Inactive)
REMARK    1  A    between atoms: C_1  and  C_2
REMARK    2  A    between atoms: C_2  and  N_3
REMARK    3  A    between atoms: C_4  and  C_6
REMARK    4  A    between atoms: C_10  and  C_11
REMARK    5  A    between atoms: C_13  and  O_14
REMARK    6  A    between atoms: O_14  and  C_15
REMARK    7  A    between atoms: C_18  and  O_19
REMARK    8  A    between atoms: O_19  and  C_20
REMARK    9  A    between atoms: C_25  and  N_26
REMARK                            x       y       z     vdW  Elec       q    Type
REMARK                         _______ _______ _______ _____ _____    ______ ____
ROOT
ATOM      1  C   UNL     1       5.702   4.363  14.644  0.00  0.00    +0.000 A 
ATOM      2  N   UNL     1       4.467   4.305  15.180  0.00  0.00    +0.000 NA
ATOM      3  N   UNL     1       4.297   4.627  16.505  0.00  0.00    +0.000 NA
ATOM      4  C   UNL     1       5.320   4.977  17.312  0.00  0.00    +0.000 A 
ATOM      5  C   UNL     1       5.137   5.129  18.721  0.00  0.00    +0.000 A 
ATOM      6  C   UNL     1       6.225   5.580  19.494  0.00  0.00    +0.000 A 
ATOM      7  C   UNL     1       7.466   5.831  18.925  0.00  0.00    +0.000 A 
ATOM      8  C   UNL     1       7.662   5.585  17.572  0.00  0.00    +0.000 A 
ATOM      9  C   UNL     1       6.609   5.145  16.739  0.00  0.00    +0.000 A 
ATOM     10  C   UNL     1       6.808   4.832  15.363  0.00  0.00    +0.000 A 
ENDROOT
BRANCH   5  11
ATOM     11  C   UNL     1       3.859   4.703  19.402  0.00  0.00    +0.000 A 
ATOM     12  C   UNL     1       2.963   5.707  19.846  0.00  0.00    +0.000 A 
ATOM     13  C   UNL     1       1.782   5.425  20.532  0.00  0.00    +0.000 A 
ATOM     14  C   UNL     1       1.399   4.108  20.708  0.00  0.00    +0.000 A 
ATOM     15  C   UNL     1       2.220   3.083  20.237  0.00  0.00    +0.000 A 
ATOM     16  C   UNL     1       3.442   3.359  19.593  0.00  0.00    +0.000 A 
BRANCH  13  17
ATOM     17  O   UNL     1       1.068   6.510  20.959  0.00  0.00    +0.000 OA
ATOM     18  C   UNL     1       1.639   7.767  20.612  0.00  0.00    +0.000 C 
ENDBRANCH  13  17
BRANCH  16  19
ATOM     19  O   UNL     1       4.274   2.348  19.169  0.00  0.00    +0.000 OA
ATOM     20  C   UNL     1       3.711   1.408  18.254  0.00  0.00    +0.000 C 
ENDBRANCH  16  19
ENDBRANCH   5  11
BRANCH   1  22
ATOM     21  N   UNL     1       4.605   3.488  12.638  0.00  0.00    +0.000 N 
ATOM     22  C   UNL     1       5.792   3.912  13.213  0.00  0.00    +0.000 C 
ATOM     23  O   UNL     1       6.857   3.926  12.600  0.00  0.00    +0.000 OA
ATOM     24  H   UNL     1       3.759   3.566  13.198  0.00  0.00    +0.000 HD
BRANCH  21  26
ATOM     25  C   UNL     1       3.298   3.474  10.556  0.00  0.00    +0.000 C 
ATOM     26  C   UNL     1       4.530   2.975  11.290  0.00  0.00    +0.000 C 
ENDBRANCH  21  26
ENDBRANCH   1  22
BRANCH  10  27
ATOM     27  N   UNL     1       8.122   4.774  14.822  0.00  0.00    +0.000 N 
ATOM     28  H   UNL     1       8.351   5.508  14.163  0.00  0.00    +0.000 HD
ATOM     29  H   UNL     1       8.348   3.843  14.448  0.00  0.00    +0.000 HD
ENDBRANCH  10  27
TORSDOF 6
ENDMDL
MODEL 6
REMARK VINA RESULT:      -7.3      2.627      3.989
REMARK  Name = 
REMARK  9 active torsions:
REMARK  status: ('A' for Active; 'I' for Inactive)
REMARK    1  A    between atoms: C_1  and  C_2
REMARK    2  A    between atoms: C_2  and  N_3
REMARK    3  A    between atoms: C_4  and  C_6
REMARK    4  A    between atoms: C_10  and  C_11
REMARK    5  A    between atoms: C_13  and  O_14
REMARK    6  A    between atoms: O_14  and  C_15
REMARK    7  A    between atoms: C_18  and  O_19
REMARK    8  A    between atoms: O_19  and  C_20
REMARK    9  A    between atoms: C_25  and  N_26
REMARK                            x       y       z     vdW  Elec       q    Type
REMARK                         _______ _______ _______ _____ _____    ______ ____
ROOT
ATOM      1  C   UNL     1       2.229   6.932  19.424  0.00  0.00    +0.000 A 
ATOM      2  N   UNL     1       2.976   7.177  18.330  0.00  0.00    +0.000 NA
ATOM      3  N   UNL     1       3.544   6.121  17.658  0.00  0.00    +0.000 NA
ATOM      4  C   UNL     1       3.414   4.840  18.061  0.00  0.00    +0.000 A 
ATOM      5  C   UNL     1       4.163   3.788  17.449  0.00  0.00    +0.000 A 
ATOM      6  C   UNL     1       3.917   2.462  17.857  0.00  0.00    +0.000 A 
ATOM      7  C   UNL     1       3.004   2.170  18.862  0.00  0.00    +0.000 A 
ATOM      8  C   UNL     1       2.353   3.206  19.519  0.00  0.00    +0.000 A 
ATOM      9  C   UNL     1       2.546   4.555  19.149  0.00  0.00    +0.000 A 
ATOM     10  C   UNL     1       1.932   5.633  19.852  0.00  0.00    +0.000 A 
ENDROOT
BRANCH   5  11
ATOM     11  C   UNL     1       5.285   4.078  16.481  0.00  0.00    +0.000 A 
ATOM     12  C   UNL     1       5.009   4.018  15.092  0.00  0.00    +0.000 A 
ATOM     13  C   UNL     1       5.983   4.215  14.113  0.00  0.00    +0.000 A 
ATOM     14  C   UNL     1       7.259   4.588  14.493  0.00  0.00    +0.000 A 
ATOM     15  C   UNL     1       7.564   4.717  15.848  0.00  0.00    +0.000 A 
ATOM     16  C   UNL     1       6.602   4.463  16.844  0.00  0.00    +0.000 A 
BRANCH  13  17
ATOM     17  O   UNL     1       5.570   4.047  12.821  0.00  0.00    +0.000 OA
ATOM     18  C   UNL     1       6.272   3.039  12.101  0.00  0.00    +0.000 C 
ENDBRANCH  13  17
BRANCH  16  19
ATOM     19  O   UNL     1       6.915   4.546  18.182  0.00  0.00    +0.000 OA
ATOM     20  C   UNL     1       7.207   5.850  18.684  0.00  0.00    +0.000 C 
ENDBRANCH  16  19
ENDBRANCH   5  11
BRANCH   1  22
ATOM     21  N   UNL     1       1.801   8.134  21.513  0.00  0.00    +0.000 N 
ATOM     22  C   UNL     1       1.723   8.159  20.131  0.00  0.00    +0.000 C 
ATOM     23  O   UNL     1       1.274   9.120  19.509  0.00  0.00    +0.000 OA
ATOM     24  H   UNL     1       2.242   7.323  21.943  0.00  0.00    +0.000 HD
BRANCH  21  26
ATOM     25  C   UNL     1      -0.176   9.086  22.621  0.00  0.00    +0.000 C 
ATOM     26  C   UNL     1       1.311   9.210  22.343  0.00  0.00    +0.000 C 
ENDBRANCH  21  26
ENDBRANCH   1  22
BRANCH  10  27
ATOM     27  N   UNL     1       1.245   5.394  21.074  0.00  0.00    +0.000 N 
ATOM     28  H   UNL     1       0.663   6.156  21.400  0.00  0.00    +0.000 HD
ATOM     29  H   UNL     1       1.874   5.052  21.813  0.00  0.00    +0.000 HD
ENDBRANCH  10  27
TORSDOF 6
ENDMDL
MODEL 7
REMARK VINA RESULT:      -6.9      4.130      7.925
REMARK  Name = 
REMARK  9 active torsions:
REMARK  status: ('A' for Active; 'I' for Inactive)
REMARK    1  A    between atoms: C_1  and  C_2
REMARK    2  A    between atoms: C_2  and  N_3
REMARK    3  A    between atoms: C_4  and  C_6
REMARK    4  A    between atoms: C_10  and  C_11
REMARK    5  A    between atoms: C_13  and  O_14
REMARK    6  A    between atoms: O_14  and  C_15
REMARK    7  A    between atoms: C_18  and  O_19
REMARK    8  A    between atoms: O_19  and  C_20
REMARK    9  A    between atoms: C_25  and  N_26
REMARK                            x       y       z     vdW  Elec       q    Type
REMARK                         _______ _______ _______ _____ _____    ______ ____
ROOT
ATOM      1  C   UNL     1       6.238   4.156  13.930  0.00  0.00    +0.000 A 
ATOM      2  N   UNL     1       5.146   3.672  14.552  0.00  0.00    +0.000 NA
ATOM      3  N   UNL     1       4.864   4.089  15.831  0.00  0.00    +0.000 NA
ATOM      4  C   UNL     1       5.651   4.947  16.512  0.00  0.00    +0.000 A 
ATOM      5  C   UNL     1       5.429   5.218  17.898  0.00  0.00    +0.000 A 
ATOM      6  C   UNL     1       6.232   6.189  18.529  0.00  0.00    +0.000 A 
ATOM      7  C   UNL     1       7.249   6.844  17.848  0.00  0.00    +0.000 A 
ATOM      8  C   UNL     1       7.522   6.503  16.530  0.00  0.00    +0.000 A 
ATOM      9  C   UNL     1       6.746   5.547  15.836  0.00  0.00    +0.000 A 
ATOM     10  C   UNL     1       7.050   5.143  14.503  0.00  0.00    +0.000 A 
ENDROOT
BRANCH   5  11
ATOM     11  C   UNL     1       4.452   4.406  18.715  0.00  0.00    +0.000 A 
ATOM     12  C   UNL     1       4.964   3.418  19.591  0.00  0.00    +0.000 A 
ATOM     13  C   UNL     1       4.150   2.578  20.351  0.00  0.00    +0.000 A 
ATOM     14  C   UNL     1       2.781   2.771  20.339  0.00  0.00    +0.000 A 
ATOM     15  C   UNL     1       2.233   3.770  19.535  0.00  0.00    +0.000 A 
ATOM     16  C   UNL     1       3.044   4.585  18.722  0.00  0.00    +0.000 A 
BRANCH  13  17
ATOM     17  O   UNL     1       4.799   1.627  21.088  0.00  0.00    +0.000 OA
ATOM     18  C   UNL     1       5.238   0.497  20.340  0.00  0.00    +0.000 C 
ENDBRANCH  13  17
BRANCH  16  19
ATOM     19  O   UNL     1       2.500   5.540  17.894  0.00  0.00    +0.000 OA
ATOM     20  C   UNL     1       2.401   6.860  18.431  0.00  0.00    +0.000 C 
ENDBRANCH  16  19
ENDBRANCH   5  11
BRANCH   1  22
ATOM     21  N   UNL     1       5.937   2.333  12.324  0.00  0.00    +0.000 N 
ATOM     22  C   UNL     1       6.501   3.574  12.569  0.00  0.00    +0.000 C 
ATOM     23  O   UNL     1       7.172   4.175  11.731  0.00  0.00    +0.000 OA
ATOM     24  H   UNL     1       5.346   1.935  13.051  0.00  0.00    +0.000 HD
BRANCH  21  26
ATOM     25  C   UNL     1       6.195   0.113  11.300  0.00  0.00    +0.000 C 
ATOM     26  C   UNL     1       6.137   1.615  11.087  0.00  0.00    +0.000 C 
ENDBRANCH  21  26
ENDBRANCH   1  22
BRANCH  10  27
ATOM     27  N   UNL     1       8.263   5.555  13.887  0.00  0.00    +0.000 N 
ATOM     28  H   UNL     1       8.711   6.360  14.307  0.00  0.00    +0.000 HD
ATOM     29  H   UNL     1       8.164   5.664  12.868  0.00  0.00    +0.000 HD
ENDBRANCH  10  27
TORSDOF 6
ENDMDL
MODEL 8
REMARK VINA RESULT:      -6.7      3.848      7.456
REMARK  Name = 
REMARK  9 active torsions:
REMARK  status: ('A' for Active; 'I' for Inactive)
REMARK    1  A    between atoms: C_1  and  C_2
REMARK    2  A    between atoms: C_2  and  N_3
REMARK    3  A    between atoms: C_4  and  C_6
REMARK    4  A    between atoms: C_10  and  C_11
REMARK    5  A    between atoms: C_13  and  O_14
REMARK    6  A    between atoms: O_14  and  C_15
REMARK    7  A    between atoms: C_18  and  O_19
REMARK    8  A    between atoms: O_19  and  C_20
REMARK    9  A    between atoms: C_25  and  N_26
REMARK                            x       y       z     vdW  Elec       q    Type
REMARK                         _______ _______ _______ _____ _____    ______ ____
ROOT
ATOM      1  C   UNL     1       5.646   4.299  14.381  0.00  0.00    +0.000 A 
ATOM      2  N   UNL     1       4.508   4.003  15.037  0.00  0.00    +0.000 NA
ATOM      3  N   UNL     1       4.381   4.370  16.356  0.00  0.00    +0.000 NA
ATOM      4  C   UNL     1       5.362   4.994  17.041  0.00  0.00    +0.000 A 
ATOM      5  C   UNL     1       5.268   5.198  18.452  0.00  0.00    +0.000 A 
ATOM      6  C   UNL     1       6.286   5.933  19.093  0.00  0.00    +0.000 A 
ATOM      7  C   UNL     1       7.384   6.414  18.394  0.00  0.00    +0.000 A 
ATOM      8  C   UNL     1       7.516   6.126  17.042  0.00  0.00    +0.000 A 
ATOM      9  C   UNL     1       6.525   5.406  16.338  0.00  0.00    +0.000 A 
ATOM     10  C   UNL     1       6.673   5.051  14.965  0.00  0.00    +0.000 A 
ENDROOT
BRANCH   5  11
ATOM     11  C   UNL     1       4.183   4.545  19.274  0.00  0.00    +0.000 A 
ATOM     12  C   UNL     1       4.526   3.433  20.082  0.00  0.00    +0.000 A 
ATOM     13  C   UNL     1       3.593   2.724  20.839  0.00  0.00    +0.000 A 
ATOM     14  C   UNL     1       2.287   3.173  20.896  0.00  0.00    +0.000 A 
ATOM     15  C   UNL     1       1.913   4.299  20.163  0.00  0.00    +0.000 A 
ATOM     16  C   UNL     1       2.837   4.987  19.352  0.00  0.00    +0.000 A 
BRANCH  13  17
ATOM     17  O   UNL     1       4.073   1.630  21.503  0.00  0.00    +0.000 OA
ATOM     18  C   UNL     1       5.297   1.116  20.989  0.00  0.00    +0.000 C 
ENDBRANCH  13  17
BRANCH  16  19
ATOM     19  O   UNL     1       2.457   6.070  18.593  0.00  0.00    +0.000 OA
ATOM     20  C   UNL     1       2.377   7.323  19.273  0.00  0.00    +0.000 C 
ENDBRANCH  16  19
ENDBRANCH   5  11
BRANCH   1  22
ATOM     21  N   UNL     1       4.500   3.489  12.375  0.00  0.00    +0.000 N 
ATOM     22  C   UNL     1       5.716   3.781  12.971  0.00  0.00    +0.000 C 
ATOM     23  O   UNL     1       6.791   3.634  12.393  0.00  0.00    +0.000 OA
ATOM     24  H   UNL     1       3.657   3.697  12.905  0.00  0.00    +0.000 HD
BRANCH  21  26
ATOM     25  C   UNL     1       3.361   3.660  10.203  0.00  0.00    +0.000 C 
ATOM     26  C   UNL     1       4.396   2.935  11.045  0.00  0.00    +0.000 C 
ENDBRANCH  21  26
ENDBRANCH   1  22
BRANCH  10  27
ATOM     27  N   UNL     1       7.915   5.250  14.302  0.00  0.00    +0.000 N 
ATOM     28  H   UNL     1       8.251   4.460  13.765  0.00  0.00    +0.000 HD
ATOM     29  H   UNL     1       8.639   5.617  14.934  0.00  0.00    +0.000 HD
ENDBRANCH  10  27
TORSDOF 6
ENDMDL
MODEL 9
REMARK VINA RESULT:      -6.7      2.301      7.433
REMARK  Name = 
REMARK  9 active torsions:
REMARK  status: ('A' for Active; 'I' for Inactive)
REMARK    1  A    between atoms: C_1  and  C_2
REMARK    2  A    between atoms: C_2  and  N_3
REMARK    3  A    between atoms: C_4  and  C_6
REMARK    4  A    between atoms: C_10  and  C_11
REMARK    5  A    between atoms: C_13  and  O_14
REMARK    6  A    between atoms: O_14  and  C_15
REMARK    7  A    between atoms: C_18  and  O_19
REMARK    8  A    between atoms: O_19  and  C_20
REMARK    9  A    between atoms: C_25  and  N_26
REMARK                            x       y       z     vdW  Elec       q    Type
REMARK                         _______ _______ _______ _____ _____    ______ ____
ROOT
ATOM      1  C   UNL     1       3.147   6.835  18.100  0.00  0.00    +0.000 A 
ATOM      2  N   UNL     1       2.711   7.886  17.379  0.00  0.00    +0.000 NA
ATOM      3  N   UNL     1       1.883   8.808  17.973  0.00  0.00    +0.000 NA
ATOM      4  C   UNL     1       1.458   8.697  19.248  0.00  0.00    +0.000 A 
ATOM      5  C   UNL     1       0.458   9.570  19.777  0.00  0.00    +0.000 A 
ATOM      6  C   UNL     1       0.121   9.457  21.141  0.00  0.00    +0.000 A 
ATOM      7  C   UNL     1       0.702   8.495  21.955  0.00  0.00    +0.000 A 
ATOM      8  C   UNL     1       1.600   7.587  21.409  0.00  0.00    +0.000 A 
ATOM      9  C   UNL     1       1.989   7.654  20.053  0.00  0.00    +0.000 A 
ATOM     10  C   UNL     1       2.863   6.694  19.464  0.00  0.00    +0.000 A 
ENDROOT
BRANCH   5  11
ATOM     11  C   UNL     1      -0.321  10.510  18.888  0.00  0.00    +0.000 A 
ATOM     12  C   UNL     1      -1.387   9.982  18.118  0.00  0.00    +0.000 A 
ATOM     13  C   UNL     1      -2.135  10.750  17.225  0.00  0.00    +0.000 A 
ATOM     14  C   UNL     1      -1.908  12.112  17.149  0.00  0.00    +0.000 A 
ATOM     15  C   UNL     1      -0.906  12.688  17.931  0.00  0.00    +0.000 A 
ATOM     16  C   UNL     1      -0.109  11.910  18.792  0.00  0.00    +0.000 A 
BRANCH  13  17
ATOM     17  O   UNL     1      -3.078  10.073  16.504  0.00  0.00    +0.000 OA
ATOM     18  C   UNL     1      -3.164  10.457  15.136  0.00  0.00    +0.000 C 
ENDBRANCH  13  17
BRANCH  16  19
ATOM     19  O   UNL     1       0.910  12.471  19.528  0.00  0.00    +0.000 OA
ATOM     20  C   UNL     1       2.105  12.790  18.815  0.00  0.00    +0.000 C 
ENDBRANCH  16  19
ENDBRANCH   5  11
BRANCH   1  22
ATOM     21  N   UNL     1       5.060   6.368  16.646  0.00  0.00    +0.000 N 
ATOM     22  C   UNL     1       3.978   5.844  17.333  0.00  0.00    +0.000 C 
ATOM     23  O   UNL     1       3.706   4.645  17.329  0.00  0.00    +0.000 OA
ATOM     24  H   UNL     1       5.247   7.362  16.754  0.00  0.00    +0.000 HD
BRANCH  21  26
ATOM     25  C   UNL     1       7.091   4.983  16.608  0.00  0.00    +0.000 C 
ATOM     26  C   UNL     1       5.927   5.559  15.821  0.00  0.00    +0.000 C 
ENDBRANCH  21  26
ENDBRANCH   1  22
BRANCH  10  27
ATOM     27  N   UNL     1       3.228   5.521  20.179  0.00  0.00    +0.000 N 
ATOM     28  H   UNL     1       2.837   4.657  19.823  0.00  0.00    +0.000 HD
ATOM     29  H   UNL     1       3.074   5.619  21.192  0.00  0.00    +0.000 HD
ENDBRANCH  10  27
TORSDOF 6
ENDMDL
