MODEL 1
REMARK VINA RESULT:      -8.4      0.000      0.000
REMARK  Name = 
REMARK  6 active torsions:
REMARK  status: ('A' for Active; 'I' for Inactive)
REMARK    1  A    between atoms: C_2  and  C_15
REMARK    2  A    between atoms: N_3  and  C_4
REMARK    3  A    between atoms: C_11  and  O_12
REMARK    4  A    between atoms: C_18  and  O_19
REMARK    5  A    between atoms: O_19  and  C_20
REMARK    6  A    between atoms: C_25  and  C_26
REMARK                            x       y       z     vdW  Elec       q    Type
REMARK                         _______ _______ _______ _____ _____    ______ ____
ROOT
ATOM      1  O   UNL     1       2.157   8.472  18.280  0.00  0.00    +0.000 OA
ATOM      2  C   UNL     1       1.902   8.075  19.406  0.00  0.00    +0.000 C 
ATOM      3  N   UNL     1       2.174   6.763  19.801  0.00  0.00    +0.000 N 
ATOM      4  H   UNL     1       1.645   6.409  20.585  0.00  0.00    +0.000 HD
ENDROOT
BRANCH   3   5
ATOM      5  C   UNL     1       2.850   5.765  18.934  0.00  0.00    +0.000 C 
ATOM      6  C   UNL     1       3.865   4.842  19.688  0.00  0.00    +0.000 C 
ATOM      7  C   UNL     1       4.593   3.937  18.655  0.00  0.00    +0.000 C 
ATOM      8  C   UNL     1       3.588   3.041  17.908  0.00  0.00    +0.000 C 
ATOM      9  C   UNL     1       2.565   3.944  17.189  0.00  0.00    +0.000 C 
ATOM     10  C   UNL     1       1.834   4.847  18.206  0.00  0.00    +0.000 C 
ATOM     11  C   UNL     1       1.118   3.915  19.204  0.00  0.00    +0.000 C 
ATOM     12  C   UNL     1       2.132   3.026  19.948  0.00  0.00    +0.000 C 
ATOM     13  C   UNL     1       2.873   2.144  18.933  0.00  0.00    +0.000 C 
ATOM     14  C   UNL     1       3.130   3.929  20.688  0.00  0.00    +0.000 C 
BRANCH  12  15
ATOM     15  O   UNL     1       1.454   2.218  20.899  0.00  0.00    +0.000 OA
ATOM     16  H   UNL     1       0.501   2.403  20.834  0.00  0.00    +0.000 HD
ENDBRANCH  12  15
ENDBRANCH   3   5
BRANCH   2  17
ATOM     17  C   UNL     1       1.208   9.001  20.359  0.00  0.00    +0.000 A 
ATOM     18  C   UNL     1       1.445   8.806  21.714  0.00  0.00    +0.000 A 
ATOM     19  N   UNL     1       0.826   9.457  22.734  0.00  0.00    +0.000 NA
ATOM     20  C   UNL     1      -0.116  10.326  22.369  0.00  0.00    +0.000 A 
ATOM     21  N   UNL     1      -0.430  10.607  21.101  0.00  0.00    +0.000 NA
ATOM     22  C   UNL     1       0.227   9.959  20.080  0.00  0.00    +0.000 A 
BRANCH  22  23
ATOM     23  C   UNL     1      -0.346  10.410  18.679  0.00  0.00    +0.000 C 
ATOM     24  C   UNL     1      -1.824  10.031  18.361  0.00  0.00    +0.000 C 
ATOM     25  C   UNL     1      -1.980  11.398  17.676  0.00  0.00    +0.000 C 
ATOM     26  C   UNL     1      -0.778  11.899  18.508  0.00  0.00    +0.000 C 
ENDBRANCH  22  23
BRANCH  20  27
ATOM     27  O   UNL     1      -0.879  10.938  23.353  0.00  0.00    +0.000 OA
BRANCH  27  28
ATOM     28  C   UNL     1      -1.688  12.045  22.895  0.00  0.00    +0.000 C 
ATOM     29  C   UNL     1      -3.082  12.254  23.509  0.00  0.00    +0.000 C 
ATOM     30  O   UNL     1      -2.852  13.686  23.608  0.00  0.00    +0.000 OA
ATOM     31  C   UNL     1      -1.425  13.453  23.445  0.00  0.00    +0.000 C 
ENDBRANCH  27  28
ENDBRANCH  20  27
ENDBRANCH   2  17
TORSDOF 6
ENDMDL
MODEL 2
REMARK VINA RESULT:      -8.2      2.685      8.982
REMARK  Name = 
REMARK  6 active torsions:
REMARK  status: ('A' for Active; 'I' for Inactive)
REMARK    1  A    between atoms: C_2  and  C_15
REMARK    2  A    between atoms: N_3  and  C_4
REMARK    3  A    between atoms: C_11  and  O_12
REMARK    4  A    between atoms: C_18  and  O_19
REMARK    5  A    between atoms: O_19  and  C_20
REMARK    6  A    between atoms: C_25  and  C_26
REMARK                            x       y       z     vdW  Elec       q    Type
REMARK                         _______ _______ _______ _____ _____    ______ ____
ROOT
ATOM      1  O   UNL     1       1.083   7.713  21.289  0.00  0.00    +0.000 OA
ATOM      2  C   UNL     1       1.625   8.102  20.266  0.00  0.00    +0.000 C 
ATOM      3  N   UNL     1       1.506   9.423  19.829  0.00  0.00    +0.000 N 
ATOM      4  H   UNL     1       1.671   9.590  18.846  0.00  0.00    +0.000 HD
ENDROOT
BRANCH   3   5
ATOM      5  C   UNL     1       0.785  10.478  20.583  0.00  0.00    +0.000 C 
ATOM      6  C   UNL     1       1.221  11.938  20.222  0.00  0.00    +0.000 C 
ATOM      7  C   UNL     1       0.490  12.934  21.165  0.00  0.00    +0.000 C 
ATOM      8  C   UNL     1      -1.037  12.830  20.993  0.00  0.00    +0.000 C 
ATOM      9  C   UNL     1      -1.469  11.386  21.317  0.00  0.00    +0.000 C 
ATOM     10  C   UNL     1      -0.751  10.387  20.384  0.00  0.00    +0.000 C 
ATOM     11  C   UNL     1      -1.144  10.754  18.940  0.00  0.00    +0.000 C 
ATOM     12  C   UNL     1      -0.693  12.185  18.596  0.00  0.00    +0.000 C 
ATOM     13  C   UNL     1      -1.392  13.176  19.537  0.00  0.00    +0.000 C 
ATOM     14  C   UNL     1       0.831  12.279  18.772  0.00  0.00    +0.000 C 
BRANCH  12  15
ATOM     15  O   UNL     1      -1.016  12.479  17.245  0.00  0.00    +0.000 OA
ATOM     16  H   UNL     1      -0.826  11.691  16.707  0.00  0.00    +0.000 HD
ENDBRANCH  12  15
ENDBRANCH   3   5
BRANCH   2  17
ATOM     17  C   UNL     1       2.371   7.112  19.422  0.00  0.00    +0.000 A 
ATOM     18  C   UNL     1       3.122   7.620  18.369  0.00  0.00    +0.000 A 
ATOM     19  N   UNL     1       3.770   6.887  17.425  0.00  0.00    +0.000 NA
ATOM     20  C   UNL     1       3.619   5.566  17.524  0.00  0.00    +0.000 A 
ATOM     21  N   UNL     1       2.930   4.958  18.494  0.00  0.00    +0.000 NA
ATOM     22  C   UNL     1       2.305   5.715  19.459  0.00  0.00    +0.000 A 
BRANCH  22  23
ATOM     23  C   UNL     1       1.513   4.787  20.462  0.00  0.00    +0.000 C 
ATOM     24  C   UNL     1       0.969   3.438  19.903  0.00  0.00    +0.000 C 
ATOM     25  C   UNL     1       1.332   2.786  21.247  0.00  0.00    +0.000 C 
ATOM     26  C   UNL     1       2.335   3.940  21.481  0.00  0.00    +0.000 C 
ENDBRANCH  22  23
BRANCH  20  27
ATOM     27  O   UNL     1       4.144   4.757  16.527  0.00  0.00    +0.000 OA
BRANCH  27  28
ATOM     28  C   UNL     1       5.402   5.211  15.976  0.00  0.00    +0.000 C 
ATOM     29  C   UNL     1       6.693   4.981  16.780  0.00  0.00    +0.000 C 
ATOM     30  O   UNL     1       7.396   4.561  15.578  0.00  0.00    +0.000 OA
ATOM     31  C   UNL     1       6.115   4.361  14.917  0.00  0.00    +0.000 C 
ENDBRANCH  27  28
ENDBRANCH  20  27
ENDBRANCH   2  17
TORSDOF 6
ENDMDL
MODEL 3
REMARK VINA RESULT:      -8.1      2.659      9.020
REMARK  Name = 
REMARK  6 active torsions:
REMARK  status: ('A' for Active; 'I' for Inactive)
REMARK    1  A    between atoms: C_2  and  C_15
REMARK    2  A    between atoms: N_3  and  C_4
REMARK    3  A    between atoms: C_11  and  O_12
REMARK    4  A    between atoms: C_18  and  O_19
REMARK    5  A    between atoms: O_19  and  C_20
REMARK    6  A    between atoms: C_25  and  C_26
REMARK                            x       y       z     vdW  Elec       q    Type
REMARK                         _______ _______ _______ _____ _____    ______ ____
ROOT
ATOM      1  O   UNL     1       1.194   7.937  21.436  0.00  0.00    +0.000 OA
ATOM      2  C   UNL     1       1.415   8.163  20.257  0.00  0.00    +0.000 C 
ATOM      3  N   UNL     1       0.814   9.233  19.590  0.00  0.00    +0.000 N 
ATOM      4  H   UNL     1       0.758   9.164  18.584  0.00  0.00    +0.000 HD
ENDROOT
BRANCH   3   5
ATOM      5  C   UNL     1      -0.075  10.221  20.251  0.00  0.00    +0.000 C 
ATOM      6  C   UNL     1       0.680  11.306  21.090  0.00  0.00    +0.000 C 
ATOM      7  C   UNL     1      -0.361  12.193  21.828  0.00  0.00    +0.000 C 
ATOM      8  C   UNL     1      -1.279  12.913  20.822  0.00  0.00    +0.000 C 
ATOM      9  C   UNL     1      -2.002  11.849  19.970  0.00  0.00    +0.000 C 
ATOM     10  C   UNL     1      -0.977  10.963  19.230  0.00  0.00    +0.000 C 
ATOM     11  C   UNL     1      -0.142  11.895  18.330  0.00  0.00    +0.000 C 
ATOM     12  C   UNL     1       0.607  12.944  19.171  0.00  0.00    +0.000 C 
ATOM     13  C   UNL     1      -0.412  13.811  19.923  0.00  0.00    +0.000 C 
ATOM     14  C   UNL     1       1.518  12.216  20.172  0.00  0.00    +0.000 C 
BRANCH  12  15
ATOM     15  O   UNL     1       1.411  13.752  18.325  0.00  0.00    +0.000 OA
ATOM     16  H   UNL     1       2.219  13.256  18.105  0.00  0.00    +0.000 HD
ENDBRANCH  12  15
ENDBRANCH   3   5
BRANCH   2  17
ATOM     17  C   UNL     1       2.292   7.219  19.491  0.00  0.00    +0.000 A 
ATOM     18  C   UNL     1       3.058   7.759  18.466  0.00  0.00    +0.000 A 
ATOM     19  N   UNL     1       3.822   7.059  17.586  0.00  0.00    +0.000 NA
ATOM     20  C   UNL     1       3.779   5.734  17.721  0.00  0.00    +0.000 A 
ATOM     21  N   UNL     1       3.089   5.096  18.671  0.00  0.00    +0.000 NA
ATOM     22  C   UNL     1       2.344   5.823  19.572  0.00  0.00    +0.000 A 
BRANCH  22  23
ATOM     23  C   UNL     1       1.577   4.859  20.560  0.00  0.00    +0.000 C 
ATOM     24  C   UNL     1       0.936   3.577  19.947  0.00  0.00    +0.000 C 
ATOM     25  C   UNL     1       1.354   2.816  21.214  0.00  0.00    +0.000 C 
ATOM     26  C   UNL     1       2.422   3.906  21.460  0.00  0.00    +0.000 C 
ENDBRANCH  22  23
BRANCH  20  27
ATOM     27  O   UNL     1       4.431   4.945  16.784  0.00  0.00    +0.000 OA
BRANCH  27  28
ATOM     28  C   UNL     1       5.820   5.284  16.566  0.00  0.00    +0.000 C 
ATOM     29  C   UNL     1       6.886   4.694  17.504  0.00  0.00    +0.000 C 
ATOM     30  O   UNL     1       7.756   4.404  16.375  0.00  0.00    +0.000 OA
ATOM     31  C   UNL     1       6.616   4.549  15.480  0.00  0.00    +0.000 C 
ENDBRANCH  27  28
ENDBRANCH  20  27
ENDBRANCH   2  17
TORSDOF 6
ENDMDL
MODEL 4
REMARK VINA RESULT:      -8.0      1.709      2.272
REMARK  Name = 
REMARK  6 active torsions:
REMARK  status: ('A' for Active; 'I' for Inactive)
REMARK    1  A    between atoms: C_2  and  C_15
REMARK    2  A    between atoms: N_3  and  C_4
REMARK    3  A    between atoms: C_11  and  O_12
REMARK    4  A    between atoms: C_18  and  O_19
REMARK    5  A    between atoms: O_19  and  C_20
REMARK    6  A    between atoms: C_25  and  C_26
REMARK                            x       y       z     vdW  Elec       q    Type
REMARK                         _______ _______ _______ _____ _____    ______ ____
ROOT
ATOM      1  O   UNL     1       1.697   8.737  17.343  0.00  0.00    +0.000 OA
ATOM      2  C   UNL     1       1.893   8.396  18.499  0.00  0.00    +0.000 C 
ATOM      3  N   UNL     1       2.562   7.211  18.812  0.00  0.00    +0.000 N 
ATOM      4  H   UNL     1       2.391   6.824  19.729  0.00  0.00    +0.000 HD
ENDROOT
BRANCH   3   5
ATOM      5  C   UNL     1       3.150   6.304  17.794  0.00  0.00    +0.000 C 
ATOM      6  C   UNL     1       4.525   6.787  17.222  0.00  0.00    +0.000 C 
ATOM      7  C   UNL     1       4.967   5.825  16.083  0.00  0.00    +0.000 C 
ATOM      8  C   UNL     1       5.142   4.391  16.614  0.00  0.00    +0.000 C 
ATOM      9  C   UNL     1       3.799   3.921  17.209  0.00  0.00    +0.000 C 
ATOM     10  C   UNL     1       3.351   4.867  18.343  0.00  0.00    +0.000 C 
ATOM     11  C   UNL     1       4.454   4.837  19.419  0.00  0.00    +0.000 C 
ATOM     12  C   UNL     1       5.795   5.329  18.845  0.00  0.00    +0.000 C 
ATOM     13  C   UNL     1       6.228   4.400  17.703  0.00  0.00    +0.000 C 
ATOM     14  C   UNL     1       5.609   6.760  18.316  0.00  0.00    +0.000 C 
BRANCH  12  15
ATOM     15  O   UNL     1       6.779   5.344  19.868  0.00  0.00    +0.000 OA
ATOM     16  H   UNL     1       7.082   6.261  19.987  0.00  0.00    +0.000 HD
ENDBRANCH  12  15
ENDBRANCH   3   5
BRANCH   2  17
ATOM     17  C   UNL     1       1.330   9.236  19.606  0.00  0.00    +0.000 A 
ATOM     18  C   UNL     1       1.699   8.901  20.904  0.00  0.00    +0.000 A 
ATOM     19  N   UNL     1       1.209   9.459  22.042  0.00  0.00    +0.000 NA
ATOM     20  C   UNL     1       0.263  10.382  21.865  0.00  0.00    +0.000 A 
ATOM     21  N   UNL     1      -0.170  10.796  20.670  0.00  0.00    +0.000 NA
ATOM     22  C   UNL     1       0.358  10.239  19.527  0.00  0.00    +0.000 A 
BRANCH  22  23
ATOM     23  C   UNL     1      -0.340  10.842  18.245  0.00  0.00    +0.000 C 
ATOM     24  C   UNL     1      -1.596  10.095  17.703  0.00  0.00    +0.000 C 
ATOM     25  C   UNL     1      -2.219  11.464  17.387  0.00  0.00    +0.000 C 
ATOM     26  C   UNL     1      -1.262  12.087  18.429  0.00  0.00    +0.000 C 
ENDBRANCH  22  23
BRANCH  20  27
ATOM     27  O   UNL     1      -0.375  10.907  22.978  0.00  0.00    +0.000 OA
BRANCH  27  28
ATOM     28  C   UNL     1      -1.368  11.917  22.690  0.00  0.00    +0.000 C 
ATOM     29  C   UNL     1      -2.690  11.909  23.476  0.00  0.00    +0.000 C 
ATOM     30  O   UNL     1      -2.633  13.353  23.638  0.00  0.00    +0.000 OA
ATOM     31  C   UNL     1      -1.219  13.320  23.293  0.00  0.00    +0.000 C 
ENDBRANCH  27  28
ENDBRANCH  20  27
ENDBRANCH   2  17
TORSDOF 6
ENDMDL
MODEL 5
REMARK VINA RESULT:      -7.9      2.006      2.654
REMARK  Name = 
REMARK  6 active torsions:
REMARK  status: ('A' for Active; 'I' for Inactive)
REMARK    1  A    between atoms: C_2  and  C_15
REMARK    2  A    between atoms: N_3  and  C_4
REMARK    3  A    between atoms: C_11  and  O_12
REMARK    4  A    between atoms: C_18  and  O_19
REMARK    5  A    between atoms: O_19  and  C_20
REMARK    6  A    between atoms: C_25  and  C_26
REMARK                            x       y       z     vdW  Elec       q    Type
REMARK                         _______ _______ _______ _____ _____    ______ ____
ROOT
ATOM      1  O   UNL     1       1.479   8.599  17.537  0.00  0.00    +0.000 OA
ATOM      2  C   UNL     1       1.885   8.333  18.658  0.00  0.00    +0.000 C 
ATOM      3  N   UNL     1       2.731   7.247  18.893  0.00  0.00    +0.000 N 
ATOM      4  H   UNL     1       2.746   6.882  19.835  0.00  0.00    +0.000 HD
ENDROOT
BRANCH   3   5
ATOM      5  C   UNL     1       3.264   6.371  17.819  0.00  0.00    +0.000 C 
ATOM      6  C   UNL     1       4.635   6.843  17.228  0.00  0.00    +0.000 C 
ATOM      7  C   UNL     1       5.018   5.922  16.036  0.00  0.00    +0.000 C 
ATOM      8  C   UNL     1       5.169   4.460  16.499  0.00  0.00    +0.000 C 
ATOM      9  C   UNL     1       3.831   4.000  17.113  0.00  0.00    +0.000 C 
ATOM     10  C   UNL     1       3.442   4.907  18.300  0.00  0.00    +0.000 C 
ATOM     11  C   UNL     1       4.574   4.800  19.340  0.00  0.00    +0.000 C 
ATOM     12  C   UNL     1       5.910   5.282  18.748  0.00  0.00    +0.000 C 
ATOM     13  C   UNL     1       6.286   4.393  17.555  0.00  0.00    +0.000 C 
ATOM     14  C   UNL     1       5.749   6.739  18.288  0.00  0.00    +0.000 C 
BRANCH  12  15
ATOM     15  O   UNL     1       6.923   5.226  19.741  0.00  0.00    +0.000 OA
ATOM     16  H   UNL     1       6.781   5.959  20.365  0.00  0.00    +0.000 HD
ENDBRANCH  12  15
ENDBRANCH   3   5
BRANCH   2  17
ATOM     17  C   UNL     1       1.397   9.149  19.817  0.00  0.00    +0.000 A 
ATOM     18  C   UNL     1       1.153   8.474  21.007  0.00  0.00    +0.000 A 
ATOM     19  N   UNL     1       0.601   9.008  22.128  0.00  0.00    +0.000 NA
ATOM     20  C   UNL     1       0.235  10.286  22.032  0.00  0.00    +0.000 A 
ATOM     21  N   UNL     1       0.424  11.044  20.947  0.00  0.00    +0.000 NA
ATOM     22  C   UNL     1       1.012  10.494  19.830  0.00  0.00    +0.000 A 
BRANCH  22  23
ATOM     23  C   UNL     1       1.081  11.556  18.663  0.00  0.00    +0.000 C 
ATOM     24  C   UNL     1       0.753  13.035  19.029  0.00  0.00    +0.000 C 
ATOM     25  C   UNL     1       1.868  13.473  18.066  0.00  0.00    +0.000 C 
ATOM     26  C   UNL     1       2.486  12.064  18.216  0.00  0.00    +0.000 C 
ENDBRANCH  22  23
BRANCH  20  27
ATOM     27  O   UNL     1      -0.449  10.867  23.090  0.00  0.00    +0.000 OA
BRANCH  27  28
ATOM     28  C   UNL     1      -1.383  11.904  22.714  0.00  0.00    +0.000 C 
ATOM     29  C   UNL     1      -2.736  11.987  23.440  0.00  0.00    +0.000 C 
ATOM     30  O   UNL     1      -2.621  13.434  23.541  0.00  0.00    +0.000 OA
ATOM     31  C   UNL     1      -1.197  13.325  23.261  0.00  0.00    +0.000 C 
ENDBRANCH  27  28
ENDBRANCH  20  27
ENDBRANCH   2  17
TORSDOF 6
ENDMDL
MODEL 6
REMARK VINA RESULT:      -7.7      0.786      1.050
REMARK  Name = 
REMARK  6 active torsions:
REMARK  status: ('A' for Active; 'I' for Inactive)
REMARK    1  A    between atoms: C_2  and  C_15
REMARK    2  A    between atoms: N_3  and  C_4
REMARK    3  A    between atoms: C_11  and  O_12
REMARK    4  A    between atoms: C_18  and  O_19
REMARK    5  A    between atoms: O_19  and  C_20
REMARK    6  A    between atoms: C_25  and  C_26
REMARK                            x       y       z     vdW  Elec       q    Type
REMARK                         _______ _______ _______ _____ _____    ______ ____
ROOT
ATOM      1  O   UNL     1       1.937   8.430  18.333  0.00  0.00    +0.000 OA
ATOM      2  C   UNL     1       1.882   8.079  19.501  0.00  0.00    +0.000 C 
ATOM      3  N   UNL     1       2.308   6.812  19.907  0.00  0.00    +0.000 N 
ATOM      4  H   UNL     1       1.930   6.466  20.777  0.00  0.00    +0.000 HD
ENDROOT
BRANCH   3   5
ATOM      5  C   UNL     1       2.923   5.818  18.992  0.00  0.00    +0.000 C 
ATOM      6  C   UNL     1       3.969   4.875  19.676  0.00  0.00    +0.000 C 
ATOM      7  C   UNL     1       4.627   3.975  18.593  0.00  0.00    +0.000 C 
ATOM      8  C   UNL     1       3.570   3.098  17.896  0.00  0.00    +0.000 C 
ATOM      9  C   UNL     1       2.518   4.020  17.246  0.00  0.00    +0.000 C 
ATOM     10  C   UNL     1       1.856   4.918  18.314  0.00  0.00    +0.000 C 
ATOM     11  C   UNL     1       1.189   3.982  19.341  0.00  0.00    +0.000 C 
ATOM     12  C   UNL     1       2.234   3.074  20.015  0.00  0.00    +0.000 C 
ATOM     13  C   UNL     1       2.906   2.197  18.950  0.00  0.00    +0.000 C 
ATOM     14  C   UNL     1       3.283   3.959  20.707  0.00  0.00    +0.000 C 
BRANCH  12  15
ATOM     15  O   UNL     1       1.603   2.263  20.995  0.00  0.00    +0.000 OA
ATOM     16  H   UNL     1       1.262   1.464  20.557  0.00  0.00    +0.000 HD
ENDBRANCH  12  15
ENDBRANCH   3   5
BRANCH   2  17
ATOM     17  C   UNL     1       1.268   9.005  20.507  0.00  0.00    +0.000 A 
ATOM     18  C   UNL     1       0.957   8.470  21.752  0.00  0.00    +0.000 A 
ATOM     19  N   UNL     1       0.294   9.108  22.751  0.00  0.00    +0.000 NA
ATOM     20  C   UNL     1      -0.117  10.344  22.467  0.00  0.00    +0.000 A 
ATOM     21  N   UNL     1       0.126  10.971  21.312  0.00  0.00    +0.000 NA
ATOM     22  C   UNL     1       0.825  10.319  20.321  0.00  0.00    +0.000 A 
BRANCH  22  23
ATOM     23  C   UNL     1       0.943  11.231  19.037  0.00  0.00    +0.000 C 
ATOM     24  C   UNL     1      -0.212  12.245  18.778  0.00  0.00    +0.000 C 
ATOM     25  C   UNL     1       0.841  13.254  18.294  0.00  0.00    +0.000 C 
ATOM     26  C   UNL     1       1.899  12.462  19.097  0.00  0.00    +0.000 C 
ENDBRANCH  22  23
BRANCH  20  27
ATOM     27  O   UNL     1      -0.908  11.014  23.388  0.00  0.00    +0.000 OA
BRANCH  27  28
ATOM     28  C   UNL     1      -1.680  12.109  22.845  0.00  0.00    +0.000 C 
ATOM     29  C   UNL     1      -3.122  12.320  23.334  0.00  0.00    +0.000 C 
ATOM     30  O   UNL     1      -2.907  13.755  23.429  0.00  0.00    +0.000 OA
ATOM     31  C   UNL     1      -1.470  13.527  23.392  0.00  0.00    +0.000 C 
ENDBRANCH  27  28
ENDBRANCH  20  27
ENDBRANCH   2  17
TORSDOF 6
ENDMDL
MODEL 7
REMARK VINA RESULT:      -7.6      2.473      8.881
REMARK  Name = 
REMARK  6 active torsions:
REMARK  status: ('A' for Active; 'I' for Inactive)
REMARK    1  A    between atoms: C_2  and  C_15
REMARK    2  A    between atoms: N_3  and  C_4
REMARK    3  A    between atoms: C_11  and  O_12
REMARK    4  A    between atoms: C_18  and  O_19
REMARK    5  A    between atoms: O_19  and  C_20
REMARK    6  A    between atoms: C_25  and  C_26
REMARK                            x       y       z     vdW  Elec       q    Type
REMARK                         _______ _______ _______ _____ _____    ______ ____
ROOT
ATOM      1  O   UNL     1      -0.493  10.040  18.146  0.00  0.00    +0.000 OA
ATOM      2  C   UNL     1       0.540  10.167  18.784  0.00  0.00    +0.000 C 
ATOM      3  N   UNL     1       0.909  11.392  19.345  0.00  0.00    +0.000 N 
ATOM      4  H   UNL     1       1.891  11.518  19.546  0.00  0.00    +0.000 HD
ENDROOT
BRANCH   3   5
ATOM      5  C   UNL     1       0.068  12.614  19.282  0.00  0.00    +0.000 C 
ATOM      6  C   UNL     1      -0.730  12.912  20.596  0.00  0.00    +0.000 C 
ATOM      7  C   UNL     1      -1.661  14.134  20.357  0.00  0.00    +0.000 C 
ATOM      8  C   UNL     1      -0.841  15.386  19.996  0.00  0.00    +0.000 C 
ATOM      9  C   UNL     1      -0.027  15.087  18.720  0.00  0.00    +0.000 C 
ATOM     10  C   UNL     1       0.904  13.876  18.946  0.00  0.00    +0.000 C 
ATOM     11  C   UNL     1       1.846  14.242  20.110  0.00  0.00    +0.000 C 
ATOM     12  C   UNL     1       1.047  14.517  21.396  0.00  0.00    +0.000 C 
ATOM     13  C   UNL     1       0.106  15.707  21.164  0.00  0.00    +0.000 C 
ATOM     14  C   UNL     1       0.231  13.262  21.748  0.00  0.00    +0.000 C 
BRANCH  12  15
ATOM     15  O   UNL     1       1.939  14.796  22.465  0.00  0.00    +0.000 OA
ATOM     16  H   UNL     1       2.414  13.977  22.689  0.00  0.00    +0.000 HD
ENDBRANCH  12  15
ENDBRANCH   3   5
BRANCH   2  17
ATOM     17  C   UNL     1       1.469   8.996  18.900  0.00  0.00    +0.000 A 
ATOM     18  C   UNL     1       2.157   8.620  17.753  0.00  0.00    +0.000 A 
ATOM     19  N   UNL     1       2.949   7.524  17.620  0.00  0.00    +0.000 NA
ATOM     20  C   UNL     1       3.019   6.737  18.694  0.00  0.00    +0.000 A 
ATOM     21  N   UNL     1       2.411   6.993  19.857  0.00  0.00    +0.000 NA
ATOM     22  C   UNL     1       1.637   8.125  19.981  0.00  0.00    +0.000 A 
BRANCH  22  23
ATOM     23  C   UNL     1       0.981   8.189  21.416  0.00  0.00    +0.000 C 
ATOM     24  C   UNL     1       1.366   9.399  22.320  0.00  0.00    +0.000 C 
ATOM     25  C   UNL     1      -0.088   9.437  22.814  0.00  0.00    +0.000 C 
ATOM     26  C   UNL     1      -0.495   8.682  21.527  0.00  0.00    +0.000 C 
ENDBRANCH  22  23
BRANCH  20  27
ATOM     27  O   UNL     1       3.705   5.535  18.598  0.00  0.00    +0.000 OA
BRANCH  27  28
ATOM     28  C   UNL     1       3.218   4.638  17.574  0.00  0.00    +0.000 C 
ATOM     29  C   UNL     1       3.623   3.155  17.629  0.00  0.00    +0.000 C 
ATOM     30  O   UNL     1       2.265   2.746  17.310  0.00  0.00    +0.000 OA
ATOM     31  C   UNL     1       1.795   4.074  17.676  0.00  0.00    +0.000 C 
ENDBRANCH  27  28
ENDBRANCH  20  27
ENDBRANCH   2  17
TORSDOF 6
ENDMDL
MODEL 8
REMARK VINA RESULT:      -7.6      5.735      9.708
REMARK  Name = 
REMARK  6 active torsions:
REMARK  status: ('A' for Active; 'I' for Inactive)
REMARK    1  A    between atoms: C_2  and  C_15
REMARK    2  A    between atoms: N_3  and  C_4
REMARK    3  A    between atoms: C_11  and  O_12
REMARK    4  A    between atoms: C_18  and  O_19
REMARK    5  A    between atoms: O_19  and  C_20
REMARK    6  A    between atoms: C_25  and  C_26
REMARK                            x       y       z     vdW  Elec       q    Type
REMARK                         _______ _______ _______ _____ _____    ______ ____
ROOT
ATOM      1  O   UNL     1       4.115   6.366  17.585  0.00  0.00    +0.000 OA
ATOM      2  C   UNL     1       4.595   5.280  17.301  0.00  0.00    +0.000 C 
ATOM      3  N   UNL     1       4.457   4.174  18.143  0.00  0.00    +0.000 N 
ATOM      4  H   UNL     1       5.139   3.437  18.036  0.00  0.00    +0.000 HD
ENDROOT
BRANCH   3   5
ATOM      5  C   UNL     1       3.671   4.191  19.402  0.00  0.00    +0.000 C 
ATOM      6  C   UNL     1       2.246   4.824  19.261  0.00  0.00    +0.000 C 
ATOM      7  C   UNL     1       1.582   4.898  20.665  0.00  0.00    +0.000 C 
ATOM      8  C   UNL     1       1.427   3.492  21.272  0.00  0.00    +0.000 C 
ATOM      9  C   UNL     1       2.825   2.849  21.384  0.00  0.00    +0.000 C 
ATOM     10  C   UNL     1       3.493   2.769  19.995  0.00  0.00    +0.000 C 
ATOM     11  C   UNL     1       2.577   1.908  19.102  0.00  0.00    +0.000 C 
ATOM     12  C   UNL     1       1.187   2.553  18.961  0.00  0.00    +0.000 C 
ATOM     13  C   UNL     1       0.532   2.652  20.345  0.00  0.00    +0.000 C 
ATOM     14  C   UNL     1       1.352   3.956  18.356  0.00  0.00    +0.000 C 
BRANCH  12  15
ATOM     15  O   UNL     1       0.382   1.772  18.091  0.00  0.00    +0.000 OA
ATOM     16  H   UNL     1       0.937   1.071  17.707  0.00  0.00    +0.000 HD
ENDBRANCH  12  15
ENDBRANCH   3   5
BRANCH   2  17
ATOM     17  C   UNL     1       5.419   5.156  16.055  0.00  0.00    +0.000 A 
ATOM     18  C   UNL     1       4.815   4.557  14.956  0.00  0.00    +0.000 A 
ATOM     19  N   UNL     1       5.424   4.248  13.781  0.00  0.00    +0.000 NA
ATOM     20  C   UNL     1       6.728   4.519  13.724  0.00  0.00    +0.000 A 
ATOM     21  N   UNL     1       7.419   5.101  14.709  0.00  0.00    +0.000 NA
ATOM     22  C   UNL     1       6.779   5.434  15.881  0.00  0.00    +0.000 A 
BRANCH  22  23
ATOM     23  C   UNL     1       7.802   6.055  16.912  0.00  0.00    +0.000 C 
ATOM     24  C   UNL     1       7.494   7.487  17.444  0.00  0.00    +0.000 C 
ATOM     25  C   UNL     1       8.007   7.038  18.821  0.00  0.00    +0.000 C 
ATOM     26  C   UNL     1       7.730   5.577  18.395  0.00  0.00    +0.000 C 
ENDBRANCH  22  23
BRANCH  20  27
ATOM     27  O   UNL     1       7.446   4.119  12.607  0.00  0.00    +0.000 OA
BRANCH  27  28
ATOM     28  C   UNL     1       6.682   3.379  11.627  0.00  0.00    +0.000 C 
ATOM     29  C   UNL     1       7.278   2.090  11.037  0.00  0.00    +0.000 C 
ATOM     30  O   UNL     1       5.998   1.410  11.164  0.00  0.00    +0.000 OA
ATOM     31  C   UNL     1       5.560   2.442  12.092  0.00  0.00    +0.000 C 
ENDBRANCH  27  28
ENDBRANCH  20  27
ENDBRANCH   2  17
TORSDOF 6
ENDMDL
MODEL 9
REMARK VINA RESULT:      -7.5      2.237      3.617
REMARK  Name = 
REMARK  6 active torsions:
REMARK  status: ('A' for Active; 'I' for Inactive)
REMARK    1  A    between atoms: C_2  and  C_15
REMARK    2  A    between atoms: N_3  and  C_4
REMARK    3  A    between atoms: C_11  and  O_12
REMARK    4  A    between atoms: C_18  and  O_19
REMARK    5  A    between atoms: O_19  and  C_20
REMARK    6  A    between atoms: C_25  and  C_26
REMARK                            x       y       z     vdW  Elec       q    Type
REMARK                         _______ _______ _______ _____ _____    ______ ____
ROOT
ATOM      1  O   UNL     1       2.768   9.130  18.045  0.00  0.00    +0.000 OA
ATOM      2  C   UNL     1       1.749   8.538  18.366  0.00  0.00    +0.000 C 
ATOM      3  N   UNL     1       1.720   7.149  18.503  0.00  0.00    +0.000 N 
ATOM      4  H   UNL     1       0.815   6.707  18.426  0.00  0.00    +0.000 HD
ENDROOT
BRANCH   3   5
ATOM      5  C   UNL     1       2.913   6.281  18.343  0.00  0.00    +0.000 C 
ATOM      6  C   UNL     1       3.559   5.821  19.693  0.00  0.00    +0.000 C 
ATOM      7  C   UNL     1       4.863   5.031  19.390  0.00  0.00    +0.000 C 
ATOM      8  C   UNL     1       4.561   3.777  18.548  0.00  0.00    +0.000 C 
ATOM      9  C   UNL     1       3.894   4.221  17.230  0.00  0.00    +0.000 C 
ATOM     10  C   UNL     1       2.596   5.005  17.519  0.00  0.00    +0.000 C 
ATOM     11  C   UNL     1       1.662   4.060  18.301  0.00  0.00    +0.000 C 
ATOM     12  C   UNL     1       2.305   3.631  19.632  0.00  0.00    +0.000 C 
ATOM     13  C   UNL     1       3.607   2.870  19.344  0.00  0.00    +0.000 C 
ATOM     14  C   UNL     1       2.605   4.889  20.463  0.00  0.00    +0.000 C 
BRANCH  12  15
ATOM     15  O   UNL     1       1.404   2.808  20.357  0.00  0.00    +0.000 OA
ATOM     16  H   UNL     1       1.657   1.879  20.216  0.00  0.00    +0.000 HD
ENDBRANCH  12  15
ENDBRANCH   3   5
BRANCH   2  17
ATOM     17  C   UNL     1       0.483   9.321  18.542  0.00  0.00    +0.000 A 
ATOM     18  C   UNL     1      -0.290   9.537  17.407  0.00  0.00    +0.000 A 
ATOM     19  N   UNL     1      -1.402  10.314  17.335  0.00  0.00    +0.000 NA
ATOM     20  C   UNL     1      -1.733  10.945  18.462  0.00  0.00    +0.000 A 
ATOM     21  N   UNL     1      -1.076  10.813  19.618  0.00  0.00    +0.000 NA
ATOM     22  C   UNL     1       0.031   9.998  19.680  0.00  0.00    +0.000 A 
BRANCH  22  23
ATOM     23  C   UNL     1       0.669  10.042  21.125  0.00  0.00    +0.000 C 
ATOM     24  C   UNL     1      -0.257  10.486  22.297  0.00  0.00    +0.000 C 
ATOM     25  C   UNL     1       0.428   9.431  23.179  0.00  0.00    +0.000 C 
ATOM     26  C   UNL     1       0.850   8.694  21.888  0.00  0.00    +0.000 C 
ENDBRANCH  22  23
BRANCH  20  27
ATOM     27  O   UNL     1      -2.780  11.854  18.436  0.00  0.00    +0.000 OA
BRANCH  27  28
ATOM     28  C   UNL     1      -4.075  11.280  18.145  0.00  0.00    +0.000 C 
ATOM     29  C   UNL     1      -5.309  11.808  18.896  0.00  0.00    +0.000 C 
ATOM     30  O   UNL     1      -6.085  11.819  17.666  0.00  0.00    +0.000 OA
ATOM     31  C   UNL     1      -4.847  11.744  16.903  0.00  0.00    +0.000 C 
ENDBRANCH  27  28
ENDBRANCH  20  27
ENDBRANCH   2  17
TORSDOF 6
ENDMDL
