MODEL 1
REMARK VINA RESULT:      -7.1      0.000      0.000
REMARK  Name = 
REMARK  3 active torsions:
REMARK  status: ('A' for Active; 'I' for Inactive)
REMARK    1  A    between atoms: C_5  and  C_6
REMARK    2  A    between atoms: C_6  and  N_7
REMARK    3  A    between atoms: C_10  and  C_11
REMARK                            x       y       z     vdW  Elec       q    Type
REMARK                         _______ _______ _______ _____ _____    ______ ____
ROOT
ATOM      1  N   UNL     1       4.427   4.167  16.272  0.00  0.00    +0.000 N 
ATOM      2  C   UNL     1       3.616   3.708  17.242  0.00  0.00    +0.000 A 
ATOM      3  N   UNL     1       3.863   3.457  18.505  0.00  0.00    +0.000 NA
ATOM      4  C   UNL     1       2.645   3.014  18.958  0.00  0.00    +0.000 A 
ATOM      5  N   UNL     1       1.682   2.958  18.030  0.00  0.00    +0.000 NA
ATOM      6  O   UNL     1       2.323   3.442  16.887  0.00  0.00    +0.000 OA
ATOM      7  H   UNL     1       4.048   4.131  15.334  0.00  0.00    +0.000 HD
ENDROOT
BRANCH   4   8
ATOM      8  C   UNL     1       2.384   2.620  20.402  0.00  0.00    +0.000 C 
ATOM      9  C   UNL     1       2.179   3.715  21.434  0.00  0.00    +0.000 C 
ATOM     10  C   UNL     1       1.013   2.898  20.989  0.00  0.00    +0.000 C 
ENDBRANCH   4   8
BRANCH   1  11
ATOM     11  C   UNL     1       5.835   3.828  16.348  0.00  0.00    +0.000 C 
BRANCH  11  16
ATOM     12  F   UNL     1       8.585   8.047  18.915  0.00  0.00    +0.000 F 
ATOM     13  C   UNL     1       7.952   7.040  18.299  0.00  0.00    +0.000 A 
ATOM     14  C   UNL     1       7.282   7.279  17.108  0.00  0.00    +0.000 A 
ATOM     15  C   UNL     1       6.613   6.231  16.470  0.00  0.00    +0.000 A 
ATOM     16  C   UNL     1       6.618   4.937  17.020  0.00  0.00    +0.000 A 
ATOM     17  C   UNL     1       7.303   4.718  18.226  0.00  0.00    +0.000 A 
ATOM     18  C   UNL     1       7.970   5.770  18.864  0.00  0.00    +0.000 A 
ENDBRANCH  11  16
ENDBRANCH   1  11
TORSDOF 3
ENDMDL
MODEL 2
REMARK VINA RESULT:      -7.1      0.346      1.222
REMARK  Name = 
REMARK  3 active torsions:
REMARK  status: ('A' for Active; 'I' for Inactive)
REMARK    1  A    between atoms: C_5  and  C_6
REMARK    2  A    between atoms: C_6  and  N_7
REMARK    3  A    between atoms: C_10  and  C_11
REMARK                            x       y       z     vdW  Elec       q    Type
REMARK                         _______ _______ _______ _____ _____    ______ ____
ROOT
ATOM      1  N   UNL     1       4.244   4.334  16.509  0.00  0.00    +0.000 N 
ATOM      2  C   UNL     1       3.399   3.741  17.372  0.00  0.00    +0.000 A 
ATOM      3  N   UNL     1       3.597   3.317  18.596  0.00  0.00    +0.000 NA
ATOM      4  C   UNL     1       2.367   2.811  18.933  0.00  0.00    +0.000 A 
ATOM      5  N   UNL     1       1.442   2.882  17.967  0.00  0.00    +0.000 NA
ATOM      6  O   UNL     1       2.124   3.523  16.930  0.00  0.00    +0.000 OA
ATOM      7  H   UNL     1       3.903   4.428  15.560  0.00  0.00    +0.000 HD
ENDROOT
BRANCH   4   8
ATOM      8  C   UNL     1       2.052   2.219  20.296  0.00  0.00    +0.000 C 
ATOM      9  C   UNL     1       2.520   2.953  21.540  0.00  0.00    +0.000 C 
ATOM     10  C   UNL     1       1.070   2.950  21.192  0.00  0.00    +0.000 C 
ENDBRANCH   4   8
BRANCH   1  11
ATOM     11  C   UNL     1       5.651   3.992  16.594  0.00  0.00    +0.000 C 
BRANCH  11  16
ATOM     12  F   UNL     1       8.753   8.108  18.916  0.00  0.00    +0.000 F 
ATOM     13  C   UNL     1       8.001   7.142  18.374  0.00  0.00    +0.000 A 
ATOM     14  C   UNL     1       7.967   5.887  18.966  0.00  0.00    +0.000 A 
ATOM     15  C   UNL     1       7.190   4.876  18.396  0.00  0.00    +0.000 A 
ATOM     16  C   UNL     1       6.437   5.118  17.233  0.00  0.00    +0.000 A 
ATOM     17  C   UNL     1       6.486   6.396  16.651  0.00  0.00    +0.000 A 
ATOM     18  C   UNL     1       7.268   7.406  17.223  0.00  0.00    +0.000 A 
ENDBRANCH  11  16
ENDBRANCH   1  11
TORSDOF 3
ENDMDL
MODEL 3
REMARK VINA RESULT:      -7.0      3.600      6.561
REMARK  Name = 
REMARK  3 active torsions:
REMARK  status: ('A' for Active; 'I' for Inactive)
REMARK    1  A    between atoms: C_5  and  C_6
REMARK    2  A    between atoms: C_6  and  N_7
REMARK    3  A    between atoms: C_10  and  C_11
REMARK                            x       y       z     vdW  Elec       q    Type
REMARK                         _______ _______ _______ _____ _____    ______ ____
ROOT
ATOM      1  N   UNL     1       5.350   5.461  17.437  0.00  0.00    +0.000 N 
ATOM      2  C   UNL     1       5.768   5.114  16.205  0.00  0.00    +0.000 A 
ATOM      3  N   UNL     1       5.669   3.974  15.566  0.00  0.00    +0.000 NA
ATOM      4  C   UNL     1       6.283   4.254  14.372  0.00  0.00    +0.000 A 
ATOM      5  N   UNL     1       6.774   5.495  14.265  0.00  0.00    +0.000 NA
ATOM      6  O   UNL     1       6.411   6.079  15.481  0.00  0.00    +0.000 OA
ATOM      7  H   UNL     1       5.682   6.356  17.773  0.00  0.00    +0.000 HD
ENDROOT
BRANCH   4   8
ATOM      8  C   UNL     1       6.402   3.250  13.238  0.00  0.00    +0.000 C 
ATOM      9  C   UNL     1       5.388   3.297  12.108  0.00  0.00    +0.000 C 
ATOM     10  C   UNL     1       6.784   3.759  11.860  0.00  0.00    +0.000 C 
ENDBRANCH   4   8
BRANCH   1  11
ATOM     11  C   UNL     1       5.312   4.430  18.455  0.00  0.00    +0.000 C 
BRANCH  11  16
ATOM     12  F   UNL     1       0.089   2.276  18.662  0.00  0.00    +0.000 F 
ATOM     13  C   UNL     1       1.331   2.776  18.632  0.00  0.00    +0.000 A 
ATOM     14  C   UNL     1       1.548   4.094  19.006  0.00  0.00    +0.000 A 
ATOM     15  C   UNL     1       2.842   4.620  18.965  0.00  0.00    +0.000 A 
ATOM     16  C   UNL     1       3.926   3.825  18.554  0.00  0.00    +0.000 A 
ATOM     17  C   UNL     1       3.684   2.493  18.180  0.00  0.00    +0.000 A 
ATOM     18  C   UNL     1       2.386   1.970  18.219  0.00  0.00    +0.000 A 
ENDBRANCH  11  16
ENDBRANCH   1  11
TORSDOF 3
ENDMDL
MODEL 4
REMARK VINA RESULT:      -7.0      3.528      6.377
REMARK  Name = 
REMARK  3 active torsions:
REMARK  status: ('A' for Active; 'I' for Inactive)
REMARK    1  A    between atoms: C_5  and  C_6
REMARK    2  A    between atoms: C_6  and  N_7
REMARK    3  A    between atoms: C_10  and  C_11
REMARK                            x       y       z     vdW  Elec       q    Type
REMARK                         _______ _______ _______ _____ _____    ______ ____
ROOT
ATOM      1  N   UNL     1       5.903   5.530  17.577  0.00  0.00    +0.000 N 
ATOM      2  C   UNL     1       6.171   5.144  16.316  0.00  0.00    +0.000 A 
ATOM      3  N   UNL     1       5.804   4.067  15.664  0.00  0.00    +0.000 NA
ATOM      4  C   UNL     1       6.392   4.253  14.438  0.00  0.00    +0.000 A 
ATOM      5  N   UNL     1       7.119   5.372  14.323  0.00  0.00    +0.000 NA
ATOM      6  O   UNL     1       6.953   5.980  15.570  0.00  0.00    +0.000 OA
ATOM      7  H   UNL     1       6.430   6.329  17.908  0.00  0.00    +0.000 HD
ENDROOT
BRANCH   4   8
ATOM      8  C   UNL     1       6.238   3.281  13.281  0.00  0.00    +0.000 C 
ATOM      9  C   UNL     1       5.247   3.607  12.178  0.00  0.00    +0.000 C 
ATOM     10  C   UNL     1       6.709   3.715  11.906  0.00  0.00    +0.000 C 
ENDBRANCH   4   8
BRANCH   1  11
ATOM     11  C   UNL     1       5.715   4.498  18.577  0.00  0.00    +0.000 C 
BRANCH  11  16
ATOM     12  F   UNL     1       0.343   4.074  20.287  0.00  0.00    +0.000 F 
ATOM     13  C   UNL     1       1.609   4.186  19.866  0.00  0.00    +0.000 A 
ATOM     14  C   UNL     1       2.200   3.133  19.183  0.00  0.00    +0.000 A 
ATOM     15  C   UNL     1       3.525   3.246  18.751  0.00  0.00    +0.000 A 
ATOM     16  C   UNL     1       4.261   4.418  18.997  0.00  0.00    +0.000 A 
ATOM     17  C   UNL     1       3.643   5.472  19.689  0.00  0.00    +0.000 A 
ATOM     18  C   UNL     1       2.317   5.354  20.123  0.00  0.00    +0.000 A 
ENDBRANCH  11  16
ENDBRANCH   1  11
TORSDOF 3
ENDMDL
MODEL 5
REMARK VINA RESULT:      -6.9      4.292      6.294
REMARK  Name = 
REMARK  3 active torsions:
REMARK  status: ('A' for Active; 'I' for Inactive)
REMARK    1  A    between atoms: C_5  and  C_6
REMARK    2  A    between atoms: C_6  and  N_7
REMARK    3  A    between atoms: C_10  and  C_11
REMARK                            x       y       z     vdW  Elec       q    Type
REMARK                         _______ _______ _______ _____ _____    ______ ____
ROOT
ATOM      1  N   UNL     1       8.510   8.083  18.663  0.00  0.00    +0.000 N 
ATOM      2  C   UNL     1       7.971   6.930  18.225  0.00  0.00    +0.000 A 
ATOM      3  N   UNL     1       7.617   6.566  17.016  0.00  0.00    +0.000 NA
ATOM      4  C   UNL     1       7.136   5.297  17.222  0.00  0.00    +0.000 A 
ATOM      5  N   UNL     1       7.154   4.885  18.496  0.00  0.00    +0.000 NA
ATOM      6  O   UNL     1       7.733   5.967  19.165  0.00  0.00    +0.000 OA
ATOM      7  H   UNL     1       8.551   8.189  19.669  0.00  0.00    +0.000 HD
ENDROOT
BRANCH   4   8
ATOM      8  C   UNL     1       6.624   4.406  16.104  0.00  0.00    +0.000 C 
ATOM      9  C   UNL     1       5.125   4.280  15.896  0.00  0.00    +0.000 C 
ATOM     10  C   UNL     1       5.938   5.058  14.918  0.00  0.00    +0.000 C 
ENDBRANCH   4   8
BRANCH   1  11
ATOM     11  C   UNL     1       8.169   9.302  17.958  0.00  0.00    +0.000 C 
BRANCH  11  16
ATOM     12  F   UNL     1      11.104  13.623  20.120  0.00  0.00    +0.000 F 
ATOM     13  C   UNL     1      10.391  12.610  19.614  0.00  0.00    +0.000 A 
ATOM     14  C   UNL     1      10.259  11.434  20.339  0.00  0.00    +0.000 A 
ATOM     15  C   UNL     1       9.524  10.373  19.807  0.00  0.00    +0.000 A 
ATOM     16  C   UNL     1       8.910  10.486  18.547  0.00  0.00    +0.000 A 
ATOM     17  C   UNL     1       9.055  11.685  17.830  0.00  0.00    +0.000 A 
ATOM     18  C   UNL     1       9.796  12.746  18.365  0.00  0.00    +0.000 A 
ENDBRANCH  11  16
ENDBRANCH   1  11
TORSDOF 3
ENDMDL
MODEL 6
REMARK VINA RESULT:      -6.9      2.847      6.036
REMARK  Name = 
REMARK  3 active torsions:
REMARK  status: ('A' for Active; 'I' for Inactive)
REMARK    1  A    between atoms: C_5  and  C_6
REMARK    2  A    between atoms: C_6  and  N_7
REMARK    3  A    between atoms: C_10  and  C_11
REMARK                            x       y       z     vdW  Elec       q    Type
REMARK                         _______ _______ _______ _____ _____    ______ ____
ROOT
ATOM      1  N   UNL     1       3.364   3.845  16.892  0.00  0.00    +0.000 N 
ATOM      2  C   UNL     1       4.678   4.126  16.966  0.00  0.00    +0.000 A 
ATOM      3  N   UNL     1       5.370   4.694  17.924  0.00  0.00    +0.000 NA
ATOM      4  C   UNL     1       6.639   4.701  17.403  0.00  0.00    +0.000 A 
ATOM      5  N   UNL     1       6.747   4.193  16.170  0.00  0.00    +0.000 NA
ATOM      6  O   UNL     1       5.441   3.787  15.885  0.00  0.00    +0.000 OA
ATOM      7  H   UNL     1       3.034   3.545  15.982  0.00  0.00    +0.000 HD
ENDROOT
BRANCH   4   8
ATOM      8  C   UNL     1       7.848   5.233  18.155  0.00  0.00    +0.000 C 
ATOM      9  C   UNL     1       7.925   6.718  18.459  0.00  0.00    +0.000 C 
ATOM     10  C   UNL     1       7.648   5.757  19.564  0.00  0.00    +0.000 C 
ENDBRANCH   4   8
BRANCH   1  11
ATOM     11  C   UNL     1       2.442   4.718  17.591  0.00  0.00    +0.000 C 
BRANCH  11  16
ATOM     12  F   UNL     1       1.030   2.302  22.503  0.00  0.00    +0.000 F 
ATOM     13  C   UNL     1       1.349   2.889  21.343  0.00  0.00    +0.000 A 
ATOM     14  C   UNL     1       0.916   2.328  20.149  0.00  0.00    +0.000 A 
ATOM     15  C   UNL     1       1.257   2.935  18.938  0.00  0.00    +0.000 A 
ATOM     16  C   UNL     1       2.029   4.110  18.916  0.00  0.00    +0.000 A 
ATOM     17  C   UNL     1       2.456   4.660  20.136  0.00  0.00    +0.000 A 
ATOM     18  C   UNL     1       2.115   4.048  21.347  0.00  0.00    +0.000 A 
ENDBRANCH  11  16
ENDBRANCH   1  11
TORSDOF 3
ENDMDL
MODEL 7
REMARK VINA RESULT:      -6.9      2.855      6.034
REMARK  Name = 
REMARK  3 active torsions:
REMARK  status: ('A' for Active; 'I' for Inactive)
REMARK    1  A    between atoms: C_5  and  C_6
REMARK    2  A    between atoms: C_6  and  N_7
REMARK    3  A    between atoms: C_10  and  C_11
REMARK                            x       y       z     vdW  Elec       q    Type
REMARK                         _______ _______ _______ _____ _____    ______ ____
ROOT
ATOM      1  N   UNL     1       3.436   3.810  16.827  0.00  0.00    +0.000 N 
ATOM      2  C   UNL     1       4.744   4.111  16.926  0.00  0.00    +0.000 A 
ATOM      3  N   UNL     1       5.417   4.650  17.913  0.00  0.00    +0.000 NA
ATOM      4  C   UNL     1       6.691   4.701  17.405  0.00  0.00    +0.000 A 
ATOM      5  N   UNL     1       6.819   4.247  16.152  0.00  0.00    +0.000 NA
ATOM      6  O   UNL     1       5.523   3.832  15.838  0.00  0.00    +0.000 OA
ATOM      7  H   UNL     1       3.119   3.544  15.903  0.00  0.00    +0.000 HD
ENDROOT
BRANCH   4   8
ATOM      8  C   UNL     1       7.883   5.221  18.190  0.00  0.00    +0.000 C 
ATOM      9  C   UNL     1       7.963   6.706  18.501  0.00  0.00    +0.000 C 
ATOM     10  C   UNL     1       7.650   5.742  19.595  0.00  0.00    +0.000 C 
ENDBRANCH   4   8
BRANCH   1  11
ATOM     11  C   UNL     1       2.493   4.636  17.554  0.00  0.00    +0.000 C 
BRANCH  11  16
ATOM     12  F   UNL     1       0.979   2.373  22.508  0.00  0.00    +0.000 F 
ATOM     13  C   UNL     1       1.353   2.895  21.334  0.00  0.00    +0.000 A 
ATOM     14  C   UNL     1       2.076   4.079  21.309  0.00  0.00    +0.000 A 
ATOM     15  C   UNL     1       2.459   4.629  20.083  0.00  0.00    +0.000 A 
ATOM     16  C   UNL     1       2.124   3.992  18.875  0.00  0.00    +0.000 A 
ATOM     17  C   UNL     1       1.392   2.794  18.924  0.00  0.00    +0.000 A 
ATOM     18  C   UNL     1       1.008   2.248  20.153  0.00  0.00    +0.000 A 
ENDBRANCH  11  16
ENDBRANCH   1  11
TORSDOF 3
ENDMDL
MODEL 8
REMARK VINA RESULT:      -6.9      3.458      6.761
REMARK  Name = 
REMARK  3 active torsions:
REMARK  status: ('A' for Active; 'I' for Inactive)
REMARK    1  A    between atoms: C_5  and  C_6
REMARK    2  A    between atoms: C_6  and  N_7
REMARK    3  A    between atoms: C_10  and  C_11
REMARK                            x       y       z     vdW  Elec       q    Type
REMARK                         _______ _______ _______ _____ _____    ______ ____
ROOT
ATOM      1  N   UNL     1       4.925   3.672  17.560  0.00  0.00    +0.000 N 
ATOM      2  C   UNL     1       5.588   3.951  16.423  0.00  0.00    +0.000 A 
ATOM      3  N   UNL     1       5.215   3.826  15.172  0.00  0.00    +0.000 NA
ATOM      4  C   UNL     1       6.323   4.266  14.492  0.00  0.00    +0.000 A 
ATOM      5  N   UNL     1       7.356   4.625  15.264  0.00  0.00    +0.000 NA
ATOM      6  O   UNL     1       6.859   4.437  16.556  0.00  0.00    +0.000 OA
ATOM      7  H   UNL     1       5.480   3.704  18.407  0.00  0.00    +0.000 HD
ENDROOT
BRANCH   4   8
ATOM      8  C   UNL     1       6.391   4.356  12.977  0.00  0.00    +0.000 C 
ATOM      9  C   UNL     1       6.776   3.118  12.187  0.00  0.00    +0.000 C 
ATOM     10  C   UNL     1       5.363   3.595  12.162  0.00  0.00    +0.000 C 
ENDBRANCH   4   8
BRANCH   1  11
ATOM     11  C   UNL     1       3.958   2.592  17.534  0.00  0.00    +0.000 C 
BRANCH  11  16
ATOM     12  F   UNL     1       0.861   2.812  22.259  0.00  0.00    +0.000 F 
ATOM     13  C   UNL     1       1.588   2.740  21.137  0.00  0.00    +0.000 A 
ATOM     14  C   UNL     1       2.964   2.575  21.221  0.00  0.00    +0.000 A 
ATOM     15  C   UNL     1       3.725   2.509  20.051  0.00  0.00    +0.000 A 
ATOM     16  C   UNL     1       3.110   2.602  18.790  0.00  0.00    +0.000 A 
ATOM     17  C   UNL     1       1.717   2.768  18.728  0.00  0.00    +0.000 A 
ATOM     18  C   UNL     1       0.958   2.837  19.902  0.00  0.00    +0.000 A 
ENDBRANCH  11  16
ENDBRANCH   1  11
TORSDOF 3
ENDMDL
MODEL 9
REMARK VINA RESULT:      -6.8      4.294      6.509
REMARK  Name = 
REMARK  3 active torsions:
REMARK  status: ('A' for Active; 'I' for Inactive)
REMARK    1  A    between atoms: C_5  and  C_6
REMARK    2  A    between atoms: C_6  and  N_7
REMARK    3  A    between atoms: C_10  and  C_11
REMARK                            x       y       z     vdW  Elec       q    Type
REMARK                         _______ _______ _______ _____ _____    ______ ____
ROOT
ATOM      1  N   UNL     1       4.832   6.760  17.028  0.00  0.00    +0.000 N 
ATOM      2  C   UNL     1       5.507   6.018  16.131  0.00  0.00    +0.000 A 
ATOM      3  N   UNL     1       5.106   5.013  15.391  0.00  0.00    +0.000 NA
ATOM      4  C   UNL     1       6.245   4.687  14.699  0.00  0.00    +0.000 A 
ATOM      5  N   UNL     1       7.321   5.424  15.002  0.00  0.00    +0.000 NA
ATOM      6  O   UNL     1       6.824   6.328  15.942  0.00  0.00    +0.000 OA
ATOM      7  H   UNL     1       5.399   7.382  17.592  0.00  0.00    +0.000 HD
ENDROOT
BRANCH   4   8
ATOM      8  C   UNL     1       6.303   3.583  13.657  0.00  0.00    +0.000 C 
ATOM      9  C   UNL     1       5.347   3.638  12.478  0.00  0.00    +0.000 C 
ATOM     10  C   UNL     1       6.793   3.930  12.264  0.00  0.00    +0.000 C 
ENDBRANCH   4   8
BRANCH   1  11
ATOM     11  C   UNL     1       3.753   6.126  17.760  0.00  0.00    +0.000 C 
BRANCH  11  16
ATOM     12  F   UNL     1       0.485  10.067  20.155  0.00  0.00    +0.000 F 
ATOM     13  C   UNL     1       1.242   9.127  19.577  0.00  0.00    +0.000 A 
ATOM     14  C   UNL     1       1.594   7.994  20.296  0.00  0.00    +0.000 A 
ATOM     15  C   UNL     1       2.393   7.016  19.697  0.00  0.00    +0.000 A 
ATOM     16  C   UNL     1       2.837   7.166  18.371  0.00  0.00    +0.000 A 
ATOM     17  C   UNL     1       2.467   8.320  17.662  0.00  0.00    +0.000 A 
ATOM     18  C   UNL     1       1.670   9.299  18.266  0.00  0.00    +0.000 A 
ENDBRANCH  11  16
ENDBRANCH   1  11
TORSDOF 3
ENDMDL
