MODEL 1
REMARK VINA RESULT:      -7.1      0.000      0.000
REMARK  Name = 
REMARK  5 active torsions:
REMARK  status: ('A' for Active; 'I' for Inactive)
REMARK    1  A    between atoms: C_1  and  C_2
REMARK    2  A    between atoms: C_2  and  C_3
REMARK    3  A    between atoms: C_2  and  C_4
REMARK    4  A    between atoms: C_2  and  O_5
REMARK    5  A    between atoms: O_5  and  C_6
REMARK                            x       y       z     vdW  Elec       q    Type
REMARK                         _______ _______ _______ _____ _____    ______ ____
ROOT
ATOM      1  C   UNL     1       3.613   3.025  18.728  0.00  0.00    +0.000 C 
ATOM      2  O   UNL     1       3.729   1.859  18.359  0.00  0.00    +0.000 OA
ATOM      3  N   UNL     1       4.040   4.104  17.930  0.00  0.00    +0.000 N 
ATOM      4  C   UNL     1       5.154   3.745  17.057  0.00  0.00    +0.000 C 
ATOM      5  C   UNL     1       6.283   4.666  17.530  0.00  0.00    +0.000 C 
ATOM      6  C   UNL     1       5.779   5.283  18.842  0.00  0.00    +0.000 C 
ATOM      7  C   UNL     1       4.305   5.432  18.498  0.00  0.00    +0.000 C 
ATOM      8  C   UNL     1       4.190   6.622  17.504  0.00  0.00    +0.000 C 
ATOM      9  C   UNL     1       5.252   6.731  16.389  0.00  0.00    +0.000 C 
ATOM     10  C   UNL     1       6.397   5.743  16.488  0.00  0.00    +0.000 C 
ATOM     11  O   UNL     1       7.325   5.753  15.682  0.00  0.00    +0.000 OA
ENDROOT
BRANCH   1  12
ATOM     12  O   UNL     1       3.205   3.377  19.981  0.00  0.00    +0.000 OA
BRANCH  12  14
ATOM     13  C   UNL     1       1.569   2.577  21.605  0.00  0.00    +0.000 C 
ATOM     14  C   UNL     1       1.780   3.371  20.306  0.00  0.00    +0.000 C 
ATOM     15  C   UNL     1       0.864   2.853  19.187  0.00  0.00    +0.000 C 
ATOM     16  C   UNL     1       1.386   4.834  20.574  0.00  0.00    +0.000 C 
ENDBRANCH  12  14
ENDBRANCH   1  12
TORSDOF 2
ENDMDL
MODEL 2
REMARK VINA RESULT:      -7.0      0.094      1.075
REMARK  Name = 
REMARK  5 active torsions:
REMARK  status: ('A' for Active; 'I' for Inactive)
REMARK    1  A    between atoms: C_1  and  C_2
REMARK    2  A    between atoms: C_2  and  C_3
REMARK    3  A    between atoms: C_2  and  C_4
REMARK    4  A    between atoms: C_2  and  O_5
REMARK    5  A    between atoms: O_5  and  C_6
REMARK                            x       y       z     vdW  Elec       q    Type
REMARK                         _______ _______ _______ _____ _____    ______ ____
ROOT
ATOM      1  C   UNL     1       3.573   2.952  18.673  0.00  0.00    +0.000 C 
ATOM      2  O   UNL     1       3.655   1.801  18.249  0.00  0.00    +0.000 OA
ATOM      3  N   UNL     1       4.003   4.057  17.914  0.00  0.00    +0.000 N 
ATOM      4  C   UNL     1       5.088   3.716  16.998  0.00  0.00    +0.000 C 
ATOM      5  C   UNL     1       6.247   4.591  17.483  0.00  0.00    +0.000 C 
ATOM      6  C   UNL     1       5.789   5.158  18.834  0.00  0.00    +0.000 C 
ATOM      7  C   UNL     1       4.310   5.352  18.535  0.00  0.00    +0.000 C 
ATOM      8  C   UNL     1       4.197   6.588  17.598  0.00  0.00    +0.000 C 
ATOM      9  C   UNL     1       5.234   6.726  16.463  0.00  0.00    +0.000 C 
ATOM     10  C   UNL     1       6.359   5.712  16.489  0.00  0.00    +0.000 C 
ATOM     11  O   UNL     1       7.267   5.739  15.660  0.00  0.00    +0.000 OA
ENDROOT
BRANCH   1  12
ATOM     12  O   UNL     1       3.203   3.254  19.951  0.00  0.00    +0.000 OA
BRANCH  12  14
ATOM     13  C   UNL     1       0.949   2.748  19.166  0.00  0.00    +0.000 C 
ATOM     14  C   UNL     1       1.786   3.399  20.278  0.00  0.00    +0.000 C 
ATOM     15  C   UNL     1       1.328   4.841  20.542  0.00  0.00    +0.000 C 
ATOM     16  C   UNL     1       1.554   2.605  21.576  0.00  0.00    +0.000 C 
ENDBRANCH  12  14
ENDBRANCH   1  12
TORSDOF 2
ENDMDL
MODEL 3
REMARK VINA RESULT:      -6.9      0.128      1.082
REMARK  Name = 
REMARK  5 active torsions:
REMARK  status: ('A' for Active; 'I' for Inactive)
REMARK    1  A    between atoms: C_1  and  C_2
REMARK    2  A    between atoms: C_2  and  C_3
REMARK    3  A    between atoms: C_2  and  C_4
REMARK    4  A    between atoms: C_2  and  O_5
REMARK    5  A    between atoms: O_5  and  C_6
REMARK                            x       y       z     vdW  Elec       q    Type
REMARK                         _______ _______ _______ _____ _____    ______ ____
ROOT
ATOM      1  C   UNL     1       3.602   3.027  18.689  0.00  0.00    +0.000 C 
ATOM      2  O   UNL     1       3.649   1.867  18.287  0.00  0.00    +0.000 OA
ATOM      3  N   UNL     1       4.032   4.108  17.895  0.00  0.00    +0.000 N 
ATOM      4  C   UNL     1       5.082   3.726  16.955  0.00  0.00    +0.000 C 
ATOM      5  C   UNL     1       6.273   4.587  17.388  0.00  0.00    +0.000 C 
ATOM      6  C   UNL     1       5.866   5.189  18.739  0.00  0.00    +0.000 C 
ATOM      7  C   UNL     1       4.383   5.408  18.479  0.00  0.00    +0.000 C 
ATOM      8  C   UNL     1       4.267   6.627  17.521  0.00  0.00    +0.000 C 
ATOM      9  C   UNL     1       5.273   6.721  16.353  0.00  0.00    +0.000 C 
ATOM     10  C   UNL     1       6.378   5.685  16.368  0.00  0.00    +0.000 C 
ATOM     11  O   UNL     1       7.261   5.676  15.513  0.00  0.00    +0.000 OA
ENDROOT
BRANCH   1  12
ATOM     12  O   UNL     1       3.276   3.363  19.970  0.00  0.00    +0.000 OA
BRANCH  12  14
ATOM     13  C   UNL     1       1.515   4.944  20.562  0.00  0.00    +0.000 C 
ATOM     14  C   UNL     1       1.870   3.462  20.357  0.00  0.00    +0.000 C 
ATOM     15  C   UNL     1       1.476   2.624  21.582  0.00  0.00    +0.000 C 
ATOM     16  C   UNL     1       1.051   2.937  19.165  0.00  0.00    +0.000 C 
ENDBRANCH  12  14
ENDBRANCH   1  12
TORSDOF 2
ENDMDL
MODEL 4
REMARK VINA RESULT:      -6.8      1.977      5.295
REMARK  Name = 
REMARK  5 active torsions:
REMARK  status: ('A' for Active; 'I' for Inactive)
REMARK    1  A    between atoms: C_1  and  C_2
REMARK    2  A    between atoms: C_2  and  C_3
REMARK    3  A    between atoms: C_2  and  C_4
REMARK    4  A    between atoms: C_2  and  O_5
REMARK    5  A    between atoms: O_5  and  C_6
REMARK                            x       y       z     vdW  Elec       q    Type
REMARK                         _______ _______ _______ _____ _____    ______ ____
ROOT
ATOM      1  C   UNL     1       4.845   4.655  17.036  0.00  0.00    +0.000 C 
ATOM      2  O   UNL     1       4.913   4.451  15.826  0.00  0.00    +0.000 OA
ATOM      3  N   UNL     1       4.043   3.865  17.880  0.00  0.00    +0.000 N 
ATOM      4  C   UNL     1       2.881   3.312  17.189  0.00  0.00    +0.000 C 
ATOM      5  C   UNL     1       1.698   3.928  17.942  0.00  0.00    +0.000 C 
ATOM      6  C   UNL     1       2.308   5.017  18.835  0.00  0.00    +0.000 C 
ATOM      7  C   UNL     1       3.616   4.332  19.205  0.00  0.00    +0.000 C 
ATOM      8  C   UNL     1       3.267   3.215  20.230  0.00  0.00    +0.000 C 
ATOM      9  C   UNL     1       2.005   2.366  19.966  0.00  0.00    +0.000 C 
ATOM     10  C   UNL     1       1.146   2.830  18.807  0.00  0.00    +0.000 C 
ATOM     11  O   UNL     1       0.095   2.261  18.518  0.00  0.00    +0.000 OA
ENDROOT
BRANCH   1  12
ATOM     12  O   UNL     1       5.411   5.737  17.645  0.00  0.00    +0.000 OA
BRANCH  12  14
ATOM     13  C   UNL     1       7.439   7.087  17.523  0.00  0.00    +0.000 C 
ATOM     14  C   UNL     1       6.842   5.734  17.942  0.00  0.00    +0.000 C 
ATOM     15  C   UNL     1       7.627   4.568  17.323  0.00  0.00    +0.000 C 
ATOM     16  C   UNL     1       6.971   5.609  19.470  0.00  0.00    +0.000 C 
ENDBRANCH  12  14
ENDBRANCH   1  12
TORSDOF 2
ENDMDL
MODEL 5
REMARK VINA RESULT:      -6.8      1.793      5.470
REMARK  Name = 
REMARK  5 active torsions:
REMARK  status: ('A' for Active; 'I' for Inactive)
REMARK    1  A    between atoms: C_1  and  C_2
REMARK    2  A    between atoms: C_2  and  C_3
REMARK    3  A    between atoms: C_2  and  C_4
REMARK    4  A    between atoms: C_2  and  O_5
REMARK    5  A    between atoms: O_5  and  C_6
REMARK                            x       y       z     vdW  Elec       q    Type
REMARK                         _______ _______ _______ _____ _____    ______ ____
ROOT
ATOM      1  C   UNL     1       5.327   4.094  17.767  0.00  0.00    +0.000 C 
ATOM      2  O   UNL     1       6.324   4.288  18.458  0.00  0.00    +0.000 OA
ATOM      3  N   UNL     1       4.032   4.073  18.318  0.00  0.00    +0.000 N 
ATOM      4  C   UNL     1       4.026   3.630  19.710  0.00  0.00    +0.000 C 
ATOM      5  C   UNL     1       3.182   2.353  19.670  0.00  0.00    +0.000 C 
ATOM      6  C   UNL     1       3.013   2.026  18.180  0.00  0.00    +0.000 C 
ATOM      7  C   UNL     1       2.903   3.438  17.625  0.00  0.00    +0.000 C 
ATOM      8  C   UNL     1       1.494   3.969  18.013  0.00  0.00    +0.000 C 
ATOM      9  C   UNL     1       0.977   3.661  19.435  0.00  0.00    +0.000 C 
ATOM     10  C   UNL     1       1.846   2.724  20.250  0.00  0.00    +0.000 C 
ATOM     11  O   UNL     1       1.525   2.373  21.383  0.00  0.00    +0.000 OA
ENDROOT
BRANCH   1  12
ATOM     12  O   UNL     1       5.385   3.740  16.450  0.00  0.00    +0.000 OA
BRANCH  12  14
ATOM     13  C   UNL     1       5.517   4.214  14.061  0.00  0.00    +0.000 C 
ATOM     14  C   UNL     1       5.908   4.689  15.469  0.00  0.00    +0.000 C 
ATOM     15  C   UNL     1       7.418   4.951  15.565  0.00  0.00    +0.000 C 
ATOM     16  C   UNL     1       5.197   6.028  15.734  0.00  0.00    +0.000 C 
ENDBRANCH  12  14
ENDBRANCH   1  12
TORSDOF 2
ENDMDL
MODEL 6
REMARK VINA RESULT:      -6.8      1.789      5.458
REMARK  Name = 
REMARK  5 active torsions:
REMARK  status: ('A' for Active; 'I' for Inactive)
REMARK    1  A    between atoms: C_1  and  C_2
REMARK    2  A    between atoms: C_2  and  C_3
REMARK    3  A    between atoms: C_2  and  C_4
REMARK    4  A    between atoms: C_2  and  O_5
REMARK    5  A    between atoms: O_5  and  C_6
REMARK                            x       y       z     vdW  Elec       q    Type
REMARK                         _______ _______ _______ _____ _____    ______ ____
ROOT
ATOM      1  C   UNL     1       5.211   4.274  18.301  0.00  0.00    +0.000 C 
ATOM      2  O   UNL     1       6.187   4.546  18.995  0.00  0.00    +0.000 OA
ATOM      3  N   UNL     1       3.911   4.207  18.838  0.00  0.00    +0.000 N 
ATOM      4  C   UNL     1       3.909   3.820  20.247  0.00  0.00    +0.000 C 
ATOM      5  C   UNL     1       3.132   2.500  20.248  0.00  0.00    +0.000 C 
ATOM      6  C   UNL     1       3.001   2.106  18.771  0.00  0.00    +0.000 C 
ATOM      7  C   UNL     1       2.826   3.488  18.158  0.00  0.00    +0.000 C 
ATOM      8  C   UNL     1       1.387   3.960  18.508  0.00  0.00    +0.000 C 
ATOM      9  C   UNL     1       0.867   3.682  19.935  0.00  0.00    +0.000 C 
ATOM     10  C   UNL     1       1.772   2.825  20.797  0.00  0.00    +0.000 C 
ATOM     11  O   UNL     1       1.453   2.503  21.940  0.00  0.00    +0.000 OA
ENDROOT
BRANCH   1  12
ATOM     12  O   UNL     1       5.306   3.871  17.001  0.00  0.00    +0.000 OA
BRANCH  12  14
ATOM     13  C   UNL     1       7.305   4.881  16.034  0.00  0.00    +0.000 C 
ATOM     14  C   UNL     1       5.770   4.813  15.985  0.00  0.00    +0.000 C 
ATOM     15  C   UNL     1       5.152   6.216  16.073  0.00  0.00    +0.000 C 
ATOM     16  C   UNL     1       5.363   4.223  14.623  0.00  0.00    +0.000 C 
ENDBRANCH  12  14
ENDBRANCH   1  12
TORSDOF 2
ENDMDL
MODEL 7
REMARK VINA RESULT:      -6.8      1.812      5.427
REMARK  Name = 
REMARK  5 active torsions:
REMARK  status: ('A' for Active; 'I' for Inactive)
REMARK    1  A    between atoms: C_1  and  C_2
REMARK    2  A    between atoms: C_2  and  C_3
REMARK    3  A    between atoms: C_2  and  C_4
REMARK    4  A    between atoms: C_2  and  O_5
REMARK    5  A    between atoms: O_5  and  C_6
REMARK                            x       y       z     vdW  Elec       q    Type
REMARK                         _______ _______ _______ _____ _____    ______ ____
ROOT
ATOM      1  C   UNL     1       5.211   4.164  18.112  0.00  0.00    +0.000 C 
ATOM      2  O   UNL     1       6.219   4.412  18.769  0.00  0.00    +0.000 OA
ATOM      3  N   UNL     1       3.931   4.129  18.697  0.00  0.00    +0.000 N 
ATOM      4  C   UNL     1       3.971   3.742  20.105  0.00  0.00    +0.000 C 
ATOM      5  C   UNL     1       3.163   2.441  20.135  0.00  0.00    +0.000 C 
ATOM      6  C   UNL     1       2.967   2.051  18.664  0.00  0.00    +0.000 C 
ATOM      7  C   UNL     1       2.804   3.437  18.058  0.00  0.00    +0.000 C 
ATOM      8  C   UNL     1       1.391   3.944  18.460  0.00  0.00    +0.000 C 
ATOM      9  C   UNL     1       0.917   3.679  19.906  0.00  0.00    +0.000 C 
ATOM     10  C   UNL     1       1.832   2.799  20.734  0.00  0.00    +0.000 C 
ATOM     11  O   UNL     1       1.548   2.485  21.888  0.00  0.00    +0.000 OA
ENDROOT
BRANCH   1  12
ATOM     12  O   UNL     1       5.248   3.760  16.809  0.00  0.00    +0.000 OA
BRANCH  12  14
ATOM     13  C   UNL     1       5.126   6.076  16.054  0.00  0.00    +0.000 C 
ATOM     14  C   UNL     1       5.716   4.684  15.778  0.00  0.00    +0.000 C 
ATOM     15  C   UNL     1       5.433   4.239  14.336  0.00  0.00    +0.000 C 
ATOM     16  C   UNL     1       7.244   4.775  15.933  0.00  0.00    +0.000 C 
ENDBRANCH  12  14
ENDBRANCH   1  12
TORSDOF 2
ENDMDL
MODEL 8
REMARK VINA RESULT:      -6.8      1.971      5.289
REMARK  Name = 
REMARK  5 active torsions:
REMARK  status: ('A' for Active; 'I' for Inactive)
REMARK    1  A    between atoms: C_1  and  C_2
REMARK    2  A    between atoms: C_2  and  C_3
REMARK    3  A    between atoms: C_2  and  C_4
REMARK    4  A    between atoms: C_2  and  O_5
REMARK    5  A    between atoms: O_5  and  C_6
REMARK                            x       y       z     vdW  Elec       q    Type
REMARK                         _______ _______ _______ _____ _____    ______ ____
ROOT
ATOM      1  C   UNL     1       4.866   4.683  16.980  0.00  0.00    +0.000 C 
ATOM      2  O   UNL     1       4.923   4.487  15.769  0.00  0.00    +0.000 OA
ATOM      3  N   UNL     1       4.074   3.884  17.828  0.00  0.00    +0.000 N 
ATOM      4  C   UNL     1       2.907   3.332  17.144  0.00  0.00    +0.000 C 
ATOM      5  C   UNL     1       1.730   3.939  17.912  0.00  0.00    +0.000 C 
ATOM      6  C   UNL     1       2.345   5.024  18.807  0.00  0.00    +0.000 C 
ATOM      7  C   UNL     1       3.658   4.341  19.160  0.00  0.00    +0.000 C 
ATOM      8  C   UNL     1       3.324   3.217  20.180  0.00  0.00    +0.000 C 
ATOM      9  C   UNL     1       2.062   2.365  19.923  0.00  0.00    +0.000 C 
ATOM     10  C   UNL     1       1.190   2.833  18.775  0.00  0.00    +0.000 C 
ATOM     11  O   UNL     1       0.139   2.262  18.493  0.00  0.00    +0.000 OA
ENDROOT
BRANCH   1  12
ATOM     12  O   UNL     1       5.433   5.763  17.591  0.00  0.00    +0.000 OA
BRANCH  12  14
ATOM     13  C   UNL     1       7.533   4.595  17.170  0.00  0.00    +0.000 C 
ATOM     14  C   UNL     1       6.849   5.730  17.949  0.00  0.00    +0.000 C 
ATOM     15  C   UNL     1       7.132   5.616  19.454  0.00  0.00    +0.000 C 
ATOM     16  C   UNL     1       7.452   7.064  17.474  0.00  0.00    +0.000 C 
ENDBRANCH  12  14
ENDBRANCH   1  12
TORSDOF 2
ENDMDL
MODEL 9
REMARK VINA RESULT:      -6.8      2.020      5.378
REMARK  Name = 
REMARK  5 active torsions:
REMARK  status: ('A' for Active; 'I' for Inactive)
REMARK    1  A    between atoms: C_1  and  C_2
REMARK    2  A    between atoms: C_2  and  C_3
REMARK    3  A    between atoms: C_2  and  C_4
REMARK    4  A    between atoms: C_2  and  O_5
REMARK    5  A    between atoms: O_5  and  C_6
REMARK                            x       y       z     vdW  Elec       q    Type
REMARK                         _______ _______ _______ _____ _____    ______ ____
ROOT
ATOM      1  C   UNL     1       4.732   5.558  17.611  0.00  0.00    +0.000 C 
ATOM      2  O   UNL     1       4.394   6.280  16.676  0.00  0.00    +0.000 OA
ATOM      3  N   UNL     1       4.075   4.344  17.889  0.00  0.00    +0.000 N 
ATOM      4  C   UNL     1       2.674   4.361  17.478  0.00  0.00    +0.000 C 
ATOM      5  C   UNL     1       1.918   4.167  18.795  0.00  0.00    +0.000 C 
ATOM      6  C   UNL     1       2.972   4.340  19.897  0.00  0.00    +0.000 C 
ATOM      7  C   UNL     1       4.165   3.697  19.204  0.00  0.00    +0.000 C 
ATOM      8  C   UNL     1       3.920   2.162  19.214  0.00  0.00    +0.000 C 
ATOM      9  C   UNL     1       2.492   1.660  18.907  0.00  0.00    +0.000 C 
ATOM     10  C   UNL     1       1.439   2.743  18.788  0.00  0.00    +0.000 C 
ATOM     11  O   UNL     1       0.258   2.470  18.582  0.00  0.00    +0.000 OA
ENDROOT
BRANCH   1  12
ATOM     12  O   UNL     1       5.658   5.925  18.543  0.00  0.00    +0.000 OA
BRANCH  12  14
ATOM     13  C   UNL     1       7.525   7.176  17.593  0.00  0.00    +0.000 C 
ATOM     14  C   UNL     1       7.081   5.844  18.219  0.00  0.00    +0.000 C 
ATOM     15  C   UNL     1       7.474   4.656  17.328  0.00  0.00    +0.000 C 
ATOM     16  C   UNL     1       7.825   5.675  19.555  0.00  0.00    +0.000 C 
ENDBRANCH  12  14
ENDBRANCH   1  12
TORSDOF 2
ENDMDL
