MODEL 1
REMARK VINA RESULT:      -8.1      0.000      0.000
REMARK  Name = 
REMARK  7 active torsions:
REMARK  status: ('A' for Active; 'I' for Inactive)
REMARK    1  A    between atoms: C_1  and  C_2
REMARK    2  A    between atoms: C_2  and  N_3
REMARK    3  A    between atoms: C_6  and  N_7
REMARK    4  A    between atoms: C_8  and  C_10
REMARK    5  A    between atoms: C_15  and  O_16
REMARK    6  A    between atoms: O_16  and  C_17
REMARK    7  A    between atoms: C_18  and  N_19
REMARK                            x       y       z     vdW  Elec       q    Type
REMARK                         _______ _______ _______ _____ _____    ______ ____
ROOT
ATOM      1  N   UNL     1       5.046   4.816  16.243  0.00  0.00    +0.000 N 
ATOM      2  N   UNL     1       5.102   6.187  16.288  0.00  0.00    +0.000 NA
ATOM      3  C   UNL     1       4.465   6.765  17.249  0.00  0.00    +0.000 A 
ATOM      4  C   UNL     1       3.667   6.098  18.296  0.00  0.00    +0.000 A 
ATOM      5  C   UNL     1       3.565   4.755  18.237  0.00  0.00    +0.000 A 
ATOM      6  C   UNL     1       4.294   4.030  17.117  0.00  0.00    +0.000 A 
ATOM      7  O   UNL     1       4.205   2.805  17.003  0.00  0.00    +0.000 OA
ENDROOT
BRANCH   5   8
ATOM      8  N   UNL     1       2.791   4.000  19.139  0.00  0.00    +0.000 N 
ATOM      9  C   UNL     1       1.409   3.606  18.846  0.00  0.00    +0.000 C 
ATOM     10  C   UNL     1       0.613   3.739  20.148  0.00  0.00    +0.000 C 
ATOM     11  C   UNL     1       1.257   2.989  21.320  0.00  0.00    +0.000 C 
ATOM     12  C   UNL     1       2.776   3.153  21.389  0.00  0.00    +0.000 C 
ATOM     13  C   UNL     1       3.446   3.035  20.025  0.00  0.00    +0.000 C 
ENDBRANCH   5   8
BRANCH   4  14
ATOM     14  N   UNL     1       2.999   6.896  19.225  0.00  0.00    +0.000 N 
ATOM     15  C   UNL     1       2.145   7.909  18.790  0.00  0.00    +0.000 C 
ATOM     16  O   UNL     1       1.992   8.150  17.594  0.00  0.00    +0.000 OA
ATOM     17  H   UNL     1       2.667   6.385  20.033  0.00  0.00    +0.000 HD
BRANCH  15  18
ATOM     18  C   UNL     1       1.361   8.670  19.824  0.00  0.00    +0.000 A 
ATOM     19  C   UNL     1       1.406   8.214  21.163  0.00  0.00    +0.000 A 
ATOM     20  C   UNL     1       0.652   8.818  22.176  0.00  0.00    +0.000 A 
ATOM     21  C   UNL     1      -0.153   9.908  21.885  0.00  0.00    +0.000 A 
ATOM     22  C   UNL     1      -0.227  10.362  20.573  0.00  0.00    +0.000 A 
ATOM     23  C   UNL     1       0.494   9.747  19.529  0.00  0.00    +0.000 A 
BRANCH  23  24
ATOM     24  O   UNL     1       0.112  10.279  18.327  0.00  0.00    +0.000 OA
ATOM     25  C   UNL     1      -1.252  10.293  17.958  0.00  0.00    +0.000 C 
ENDBRANCH  23  24
ENDBRANCH  15  18
ENDBRANCH   4  14
BRANCH   1  27
ATOM     26  C   UNL     1       7.021   4.930  14.781  0.00  0.00    +0.000 C 
ATOM     27  C   UNL     1       5.734   4.194  15.117  0.00  0.00    +0.000 C 
ENDBRANCH   1  27
TORSDOF 5
ENDMDL
MODEL 2
REMARK VINA RESULT:      -8.0      1.119      2.132
REMARK  Name = 
REMARK  7 active torsions:
REMARK  status: ('A' for Active; 'I' for Inactive)
REMARK    1  A    between atoms: C_1  and  C_2
REMARK    2  A    between atoms: C_2  and  N_3
REMARK    3  A    between atoms: C_6  and  N_7
REMARK    4  A    between atoms: C_8  and  C_10
REMARK    5  A    between atoms: C_15  and  O_16
REMARK    6  A    between atoms: O_16  and  C_17
REMARK    7  A    between atoms: C_18  and  N_19
REMARK                            x       y       z     vdW  Elec       q    Type
REMARK                         _______ _______ _______ _____ _____    ______ ____
ROOT
ATOM      1  N   UNL     1       5.240   5.116  16.747  0.00  0.00    +0.000 N 
ATOM      2  N   UNL     1       5.194   6.478  16.570  0.00  0.00    +0.000 NA
ATOM      3  C   UNL     1       4.347   7.129  17.292  0.00  0.00    +0.000 A 
ATOM      4  C   UNL     1       3.411   6.555  18.277  0.00  0.00    +0.000 A 
ATOM      5  C   UNL     1       3.413   5.215  18.428  0.00  0.00    +0.000 A 
ATOM      6  C   UNL     1       4.391   4.403  17.592  0.00  0.00    +0.000 A 
ATOM      7  O   UNL     1       4.408   3.172  17.672  0.00  0.00    +0.000 OA
ENDROOT
BRANCH   5   8
ATOM      8  N   UNL     1       2.535   4.534  19.291  0.00  0.00    +0.000 N 
ATOM      9  C   UNL     1       2.452   4.837  20.724  0.00  0.00    +0.000 C 
ATOM     10  C   UNL     1       2.288   3.505  21.462  0.00  0.00    +0.000 C 
ATOM     11  C   UNL     1       1.128   2.662  20.919  0.00  0.00    +0.000 C 
ATOM     12  C   UNL     1       1.044   2.650  19.392  0.00  0.00    +0.000 C 
ATOM     13  C   UNL     1       1.260   4.028  18.777  0.00  0.00    +0.000 C 
ENDBRANCH   5   8
BRANCH   4  14
ATOM     14  N   UNL     1       2.526   7.415  18.926  0.00  0.00    +0.000 N 
ATOM     15  C   UNL     1       1.989   8.509  18.247  0.00  0.00    +0.000 C 
ATOM     16  O   UNL     1       2.310   8.763  17.087  0.00  0.00    +0.000 OA
ATOM     17  H   UNL     1       1.874   6.941  19.538  0.00  0.00    +0.000 HD
BRANCH  15  18
ATOM     18  C   UNL     1       0.954   9.344  18.949  0.00  0.00    +0.000 A 
ATOM     19  C   UNL     1       0.230  10.289  18.183  0.00  0.00    +0.000 A 
ATOM     20  C   UNL     1      -0.701  11.156  18.767  0.00  0.00    +0.000 A 
ATOM     21  C   UNL     1      -0.951  11.090  20.129  0.00  0.00    +0.000 A 
ATOM     22  C   UNL     1      -0.239  10.181  20.903  0.00  0.00    +0.000 A 
ATOM     23  C   UNL     1       0.730   9.323  20.344  0.00  0.00    +0.000 A 
BRANCH  23  24
ATOM     24  O   UNL     1       1.392   8.661  21.342  0.00  0.00    +0.000 OA
ATOM     25  C   UNL     1       1.376   9.165  22.662  0.00  0.00    +0.000 C 
ENDBRANCH  23  24
ENDBRANCH  15  18
ENDBRANCH   4  14
BRANCH   1  27
ATOM     26  C   UNL     1       5.619   4.262  14.471  0.00  0.00    +0.000 C 
ATOM     27  C   UNL     1       6.172   4.400  15.881  0.00  0.00    +0.000 C 
ENDBRANCH   1  27
TORSDOF 5
ENDMDL
MODEL 3
REMARK VINA RESULT:      -7.9      0.554      1.056
REMARK  Name = 
REMARK  7 active torsions:
REMARK  status: ('A' for Active; 'I' for Inactive)
REMARK    1  A    between atoms: C_1  and  C_2
REMARK    2  A    between atoms: C_2  and  N_3
REMARK    3  A    between atoms: C_6  and  N_7
REMARK    4  A    between atoms: C_8  and  C_10
REMARK    5  A    between atoms: C_15  and  O_16
REMARK    6  A    between atoms: O_16  and  C_17
REMARK    7  A    between atoms: C_18  and  N_19
REMARK                            x       y       z     vdW  Elec       q    Type
REMARK                         _______ _______ _______ _____ _____    ______ ____
ROOT
ATOM      1  N   UNL     1       4.890   4.939  16.455  0.00  0.00    +0.000 N 
ATOM      2  N   UNL     1       4.995   6.308  16.446  0.00  0.00    +0.000 NA
ATOM      3  C   UNL     1       4.367   6.946  17.374  0.00  0.00    +0.000 A 
ATOM      4  C   UNL     1       3.532   6.350  18.434  0.00  0.00    +0.000 A 
ATOM      5  C   UNL     1       3.381   5.011  18.428  0.00  0.00    +0.000 A 
ATOM      6  C   UNL     1       4.099   4.216  17.348  0.00  0.00    +0.000 A 
ATOM      7  O   UNL     1       3.966   2.991  17.282  0.00  0.00    +0.000 OA
ENDROOT
BRANCH   5   8
ATOM      8  N   UNL     1       2.569   4.321  19.348  0.00  0.00    +0.000 N 
ATOM      9  C   UNL     1       2.676   4.526  20.796  0.00  0.00    +0.000 C 
ATOM     10  C   UNL     1       2.515   3.156  21.462  0.00  0.00    +0.000 C 
ATOM     11  C   UNL     1       1.247   2.420  21.013  0.00  0.00    +0.000 C 
ATOM     12  C   UNL     1       0.983   2.521  19.510  0.00  0.00    +0.000 C 
ATOM     13  C   UNL     1       1.213   3.925  18.962  0.00  0.00    +0.000 C 
ENDBRANCH   5   8
BRANCH   4  14
ATOM     14  N   UNL     1       2.881   7.208  19.321  0.00  0.00    +0.000 N 
ATOM     15  C   UNL     1       1.944   8.125  18.847  0.00  0.00    +0.000 C 
ATOM     16  O   UNL     1       1.699   8.228  17.646  0.00  0.00    +0.000 OA
ATOM     17  H   UNL     1       2.633   6.771  20.199  0.00  0.00    +0.000 HD
BRANCH  15  18
ATOM     18  C   UNL     1       1.186   8.952  19.850  0.00  0.00    +0.000 A 
ATOM     19  C   UNL     1       1.276   8.589  21.215  0.00  0.00    +0.000 A 
ATOM     20  C   UNL     1       0.549   9.258  22.207  0.00  0.00    +0.000 A 
ATOM     21  C   UNL     1      -0.273  10.321  21.866  0.00  0.00    +0.000 A 
ATOM     22  C   UNL     1      -0.390  10.684  20.529  0.00  0.00    +0.000 A 
ATOM     23  C   UNL     1       0.303  10.002  19.508  0.00  0.00    +0.000 A 
BRANCH  23  24
ATOM     24  O   UNL     1      -0.120  10.447  18.285  0.00  0.00    +0.000 OA
ATOM     25  C   UNL     1      -1.498  10.458  17.970  0.00  0.00    +0.000 C 
ENDBRANCH  23  24
ENDBRANCH  15  18
ENDBRANCH   4  14
BRANCH   1  27
ATOM     26  C   UNL     1       6.989   4.760  15.185  0.00  0.00    +0.000 C 
ATOM     27  C   UNL     1       5.569   4.247  15.364  0.00  0.00    +0.000 C 
ENDBRANCH   1  27
TORSDOF 5
ENDMDL
MODEL 4
REMARK VINA RESULT:      -7.6      1.101      1.940
REMARK  Name = 
REMARK  7 active torsions:
REMARK  status: ('A' for Active; 'I' for Inactive)
REMARK    1  A    between atoms: C_1  and  C_2
REMARK    2  A    between atoms: C_2  and  N_3
REMARK    3  A    between atoms: C_6  and  N_7
REMARK    4  A    between atoms: C_8  and  C_10
REMARK    5  A    between atoms: C_15  and  O_16
REMARK    6  A    between atoms: O_16  and  C_17
REMARK    7  A    between atoms: C_18  and  N_19
REMARK                            x       y       z     vdW  Elec       q    Type
REMARK                         _______ _______ _______ _____ _____    ______ ____
ROOT
ATOM      1  N   UNL     1       5.605   5.200  16.349  0.00  0.00    +0.000 N 
ATOM      2  N   UNL     1       5.454   6.560  16.235  0.00  0.00    +0.000 NA
ATOM      3  C   UNL     1       4.541   7.106  16.964  0.00  0.00    +0.000 A 
ATOM      4  C   UNL     1       3.633   6.412  17.897  0.00  0.00    +0.000 A 
ATOM      5  C   UNL     1       3.740   5.071  17.985  0.00  0.00    +0.000 A 
ATOM      6  C   UNL     1       4.797   4.381  17.138  0.00  0.00    +0.000 A 
ATOM      7  O   UNL     1       4.912   3.152  17.160  0.00  0.00    +0.000 OA
ENDROOT
BRANCH   5   8
ATOM      8  N   UNL     1       2.900   4.281  18.793  0.00  0.00    +0.000 N 
ATOM      9  C   UNL     1       1.994   3.274  18.231  0.00  0.00    +0.000 C 
ATOM     10  C   UNL     1       0.689   3.340  19.030  0.00  0.00    +0.000 C 
ATOM     11  C   UNL     1       0.910   3.229  20.543  0.00  0.00    +0.000 C 
ATOM     12  C   UNL     1       2.101   4.044  21.048  0.00  0.00    +0.000 C 
ATOM     13  C   UNL     1       3.325   3.923  20.147  0.00  0.00    +0.000 C 
ENDBRANCH   5   8
BRANCH   4  14
ATOM     14  N   UNL     1       2.668   7.167  18.562  0.00  0.00    +0.000 N 
ATOM     15  C   UNL     1       2.234   8.379  18.023  0.00  0.00    +0.000 C 
ATOM     16  O   UNL     1       2.715   8.827  16.984  0.00  0.00    +0.000 OA
ATOM     17  H   UNL     1       1.936   6.610  18.982  0.00  0.00    +0.000 HD
BRANCH  15  18
ATOM     18  C   UNL     1       1.112   9.104  18.715  0.00  0.00    +0.000 A 
ATOM     19  C   UNL     1       0.273   9.933  17.932  0.00  0.00    +0.000 A 
ATOM     20  C   UNL     1      -0.750  10.699  18.504  0.00  0.00    +0.000 A 
ATOM     21  C   UNL     1      -0.978  10.643  19.870  0.00  0.00    +0.000 A 
ATOM     22  C   UNL     1      -0.155   9.848  20.661  0.00  0.00    +0.000 A 
ATOM     23  C   UNL     1       0.905   9.097  20.113  0.00  0.00    +0.000 A 
BRANCH  23  24
ATOM     24  O   UNL     1       1.652   8.548  21.121  0.00  0.00    +0.000 OA
ATOM     25  C   UNL     1       1.520   9.026  22.445  0.00  0.00    +0.000 C 
ENDBRANCH  23  24
ENDBRANCH  15  18
ENDBRANCH   4  14
BRANCH   1  27
ATOM     26  C   UNL     1       6.024   4.257  14.116  0.00  0.00    +0.000 C 
ATOM     27  C   UNL     1       6.610   4.602  15.474  0.00  0.00    +0.000 C 
ENDBRANCH   1  27
TORSDOF 5
ENDMDL
MODEL 5
REMARK VINA RESULT:      -7.5      2.747      5.412
REMARK  Name = 
REMARK  7 active torsions:
REMARK  status: ('A' for Active; 'I' for Inactive)
REMARK    1  A    between atoms: C_1  and  C_2
REMARK    2  A    between atoms: C_2  and  N_3
REMARK    3  A    between atoms: C_6  and  N_7
REMARK    4  A    between atoms: C_8  and  C_10
REMARK    5  A    between atoms: C_15  and  O_16
REMARK    6  A    between atoms: O_16  and  C_17
REMARK    7  A    between atoms: C_18  and  N_19
REMARK                            x       y       z     vdW  Elec       q    Type
REMARK                         _______ _______ _______ _____ _____    ______ ____
ROOT
ATOM      1  N   UNL     1       6.435   4.317  13.536  0.00  0.00    +0.000 N 
ATOM      2  N   UNL     1       5.213   3.692  13.578  0.00  0.00    +0.000 NA
ATOM      3  C   UNL     1       4.520   3.841  14.655  0.00  0.00    +0.000 A 
ATOM      4  C   UNL     1       4.918   4.602  15.855  0.00  0.00    +0.000 A 
ATOM      5  C   UNL     1       6.134   5.183  15.846  0.00  0.00    +0.000 A 
ATOM      6  C   UNL     1       6.991   5.029  14.599  0.00  0.00    +0.000 A 
ATOM      7  O   UNL     1       8.124   5.516  14.556  0.00  0.00    +0.000 OA
ENDROOT
BRANCH   5   8
ATOM      8  N   UNL     1       6.660   5.891  16.944  0.00  0.00    +0.000 N 
ATOM      9  C   UNL     1       6.460   7.334  17.113  0.00  0.00    +0.000 C 
ATOM     10  C   UNL     1       7.773   7.914  17.650  0.00  0.00    +0.000 C 
ATOM     11  C   UNL     1       8.278   7.187  18.902  0.00  0.00    +0.000 C 
ATOM     12  C   UNL     1       8.149   5.665  18.818  0.00  0.00    +0.000 C 
ATOM     13  C   UNL     1       6.814   5.216  18.234  0.00  0.00    +0.000 C 
ENDBRANCH   5   8
BRANCH   4  14
ATOM     14  N   UNL     1       4.056   4.603  16.951  0.00  0.00    +0.000 N 
ATOM     15  C   UNL     1       3.873   3.440  17.698  0.00  0.00    +0.000 C 
ATOM     16  O   UNL     1       4.427   2.386  17.390  0.00  0.00    +0.000 OA
ATOM     17  H   UNL     1       4.101   5.452  17.501  0.00  0.00    +0.000 HD
BRANCH  15  18
ATOM     18  C   UNL     1       3.023   3.516  18.937  0.00  0.00    +0.000 A 
ATOM     19  C   UNL     1       2.220   2.397  19.263  0.00  0.00    +0.000 A 
ATOM     20  C   UNL     1       1.346   2.408  20.357  0.00  0.00    +0.000 A 
ATOM     21  C   UNL     1       1.265   3.529  21.169  0.00  0.00    +0.000 A 
ATOM     22  C   UNL     1       2.032   4.646  20.857  0.00  0.00    +0.000 A 
ATOM     23  C   UNL     1       2.892   4.672  19.739  0.00  0.00    +0.000 A 
BRANCH  23  24
ATOM     24  O   UNL     1       3.391   5.935  19.569  0.00  0.00    +0.000 OA
ATOM     25  C   UNL     1       2.539   6.987  19.163  0.00  0.00    +0.000 C 
ENDBRANCH  23  24
ENDBRANCH  15  18
ENDBRANCH   4  14
BRANCH   1  27
ATOM     26  C   UNL     1       6.768   2.829  11.607  0.00  0.00    +0.000 C 
ATOM     27  C   UNL     1       7.218   4.090  12.325  0.00  0.00    +0.000 C 
ENDBRANCH   1  27
TORSDOF 5
ENDMDL
MODEL 6
REMARK VINA RESULT:      -7.3      3.580      5.929
REMARK  Name = 
REMARK  7 active torsions:
REMARK  status: ('A' for Active; 'I' for Inactive)
REMARK    1  A    between atoms: C_1  and  C_2
REMARK    2  A    between atoms: C_2  and  N_3
REMARK    3  A    between atoms: C_6  and  N_7
REMARK    4  A    between atoms: C_8  and  C_10
REMARK    5  A    between atoms: C_15  and  O_16
REMARK    6  A    between atoms: O_16  and  C_17
REMARK    7  A    between atoms: C_18  and  N_19
REMARK                            x       y       z     vdW  Elec       q    Type
REMARK                         _______ _______ _______ _____ _____    ______ ____
ROOT
ATOM      1  N   UNL     1       6.626   4.210  13.645  0.00  0.00    +0.000 N 
ATOM      2  N   UNL     1       5.690   3.217  13.801  0.00  0.00    +0.000 NA
ATOM      3  C   UNL     1       5.161   3.095  14.971  0.00  0.00    +0.000 A 
ATOM      4  C   UNL     1       5.474   3.907  16.163  0.00  0.00    +0.000 A 
ATOM      5  C   UNL     1       6.424   4.855  16.036  0.00  0.00    +0.000 A 
ATOM      6  C   UNL     1       7.082   5.031  14.676  0.00  0.00    +0.000 A 
ATOM      7  O   UNL     1       7.979   5.864  14.519  0.00  0.00    +0.000 OA
ENDROOT
BRANCH   5   8
ATOM      8  N   UNL     1       6.858   5.661  17.106  0.00  0.00    +0.000 N 
ATOM      9  C   UNL     1       6.520   7.085  17.201  0.00  0.00    +0.000 C 
ATOM     10  C   UNL     1       7.760   7.812  17.729  0.00  0.00    +0.000 C 
ATOM     11  C   UNL     1       8.305   7.197  19.024  0.00  0.00    +0.000 C 
ATOM     12  C   UNL     1       8.322   5.668  19.013  0.00  0.00    +0.000 C 
ATOM     13  C   UNL     1       7.048   5.066  18.431  0.00  0.00    +0.000 C 
ENDBRANCH   5   8
BRANCH   4  14
ATOM     14  N   UNL     1       4.837   3.590  17.362  0.00  0.00    +0.000 N 
ATOM     15  C   UNL     1       3.681   4.271  17.741  0.00  0.00    +0.000 C 
ATOM     16  O   UNL     1       3.221   5.184  17.057  0.00  0.00    +0.000 OA
ATOM     17  H   UNL     1       4.826   2.599  17.565  0.00  0.00    +0.000 HD
BRANCH  15  18
ATOM     18  C   UNL     1       2.965   3.820  18.985  0.00  0.00    +0.000 A 
ATOM     19  C   UNL     1       1.658   4.314  19.217  0.00  0.00    +0.000 A 
ATOM     20  C   UNL     1       0.947   4.003  20.382  0.00  0.00    +0.000 A 
ATOM     21  C   UNL     1       1.512   3.174  21.339  0.00  0.00    +0.000 A 
ATOM     22  C   UNL     1       2.801   2.692  21.140  0.00  0.00    +0.000 A 
ATOM     23  C   UNL     1       3.551   3.020  19.992  0.00  0.00    +0.000 A 
BRANCH  23  24
ATOM     24  O   UNL     1       4.832   2.559  20.129  0.00  0.00    +0.000 OA
ATOM     25  C   UNL     1       5.084   1.358  20.831  0.00  0.00    +0.000 C 
ENDBRANCH  23  24
ENDBRANCH  15  18
ENDBRANCH   4  14
BRANCH   1  27
ATOM     26  C   UNL     1       6.984   3.031  11.516  0.00  0.00    +0.000 C 
ATOM     27  C   UNL     1       7.244   4.291  12.325  0.00  0.00    +0.000 C 
ENDBRANCH   1  27
TORSDOF 5
ENDMDL
MODEL 7
REMARK VINA RESULT:      -7.2      1.199      1.334
REMARK  Name = 
REMARK  7 active torsions:
REMARK  status: ('A' for Active; 'I' for Inactive)
REMARK    1  A    between atoms: C_1  and  C_2
REMARK    2  A    between atoms: C_2  and  N_3
REMARK    3  A    between atoms: C_6  and  N_7
REMARK    4  A    between atoms: C_8  and  C_10
REMARK    5  A    between atoms: C_15  and  O_16
REMARK    6  A    between atoms: O_16  and  C_17
REMARK    7  A    between atoms: C_18  and  N_19
REMARK                            x       y       z     vdW  Elec       q    Type
REMARK                         _______ _______ _______ _____ _____    ______ ____
ROOT
ATOM      1  N   UNL     1       5.677   4.897  15.965  0.00  0.00    +0.000 N 
ATOM      2  N   UNL     1       5.498   6.247  15.787  0.00  0.00    +0.000 NA
ATOM      3  C   UNL     1       4.552   6.803  16.465  0.00  0.00    +0.000 A 
ATOM      4  C   UNL     1       3.632   6.129  17.401  0.00  0.00    +0.000 A 
ATOM      5  C   UNL     1       3.767   4.796  17.551  0.00  0.00    +0.000 A 
ATOM      6  C   UNL     1       4.864   4.095  16.766  0.00  0.00    +0.000 A 
ATOM      7  O   UNL     1       5.006   2.871  16.846  0.00  0.00    +0.000 OA
ENDROOT
BRANCH   5   8
ATOM      8  N   UNL     1       2.921   4.022  18.368  0.00  0.00    +0.000 N 
ATOM      9  C   UNL     1       1.883   3.146  17.815  0.00  0.00    +0.000 C 
ATOM     10  C   UNL     1       0.656   3.265  18.724  0.00  0.00    +0.000 C 
ATOM     11  C   UNL     1       0.983   3.015  20.202  0.00  0.00    +0.000 C 
ATOM     12  C   UNL     1       2.282   3.679  20.661  0.00  0.00    +0.000 C 
ATOM     13  C   UNL     1       3.415   3.521  19.653  0.00  0.00    +0.000 C 
ENDBRANCH   5   8
BRANCH   4  14
ATOM     14  N   UNL     1       2.631   6.889  18.003  0.00  0.00    +0.000 N 
ATOM     15  C   UNL     1       2.703   7.190  19.363  0.00  0.00    +0.000 C 
ATOM     16  O   UNL     1       3.618   6.764  20.066  0.00  0.00    +0.000 OA
ATOM     17  H   UNL     1       2.293   7.647  17.424  0.00  0.00    +0.000 HD
BRANCH  15  18
ATOM     18  C   UNL     1       1.661   8.105  19.946  0.00  0.00    +0.000 A 
ATOM     19  C   UNL     1       1.039   7.720  21.158  0.00  0.00    +0.000 A 
ATOM     20  C   UNL     1       0.011   8.476  21.733  0.00  0.00    +0.000 A 
ATOM     21  C   UNL     1      -0.412   9.648  21.126  0.00  0.00    +0.000 A 
ATOM     22  C   UNL     1       0.173  10.037  19.926  0.00  0.00    +0.000 A 
ATOM     23  C   UNL     1       1.185   9.273  19.308  0.00  0.00    +0.000 A 
BRANCH  23  24
ATOM     24  O   UNL     1       1.460   9.786  18.069  0.00  0.00    +0.000 OA
ATOM     25  C   UNL     1       2.188  10.991  17.944  0.00  0.00    +0.000 C 
ENDBRANCH  23  24
ENDBRANCH  15  18
ENDBRANCH   4  14
BRANCH   1  27
ATOM     26  C   UNL     1       6.210   3.964  13.753  0.00  0.00    +0.000 C 
ATOM     27  C   UNL     1       6.721   4.287  15.147  0.00  0.00    +0.000 C 
ENDBRANCH   1  27
TORSDOF 5
ENDMDL
MODEL 8
REMARK VINA RESULT:      -7.1      3.858      7.717
REMARK  Name = 
REMARK  7 active torsions:
REMARK  status: ('A' for Active; 'I' for Inactive)
REMARK    1  A    between atoms: C_1  and  C_2
REMARK    2  A    between atoms: C_2  and  N_3
REMARK    3  A    between atoms: C_6  and  N_7
REMARK    4  A    between atoms: C_8  and  C_10
REMARK    5  A    between atoms: C_15  and  O_16
REMARK    6  A    between atoms: O_16  and  C_17
REMARK    7  A    between atoms: C_18  and  N_19
REMARK                            x       y       z     vdW  Elec       q    Type
REMARK                         _______ _______ _______ _____ _____    ______ ____
ROOT
ATOM      1  N   UNL     1       3.029   2.887  19.661  0.00  0.00    +0.000 N 
ATOM      2  N   UNL     1       2.990   1.960  18.649  0.00  0.00    +0.000 NA
ATOM      3  C   UNL     1       3.810   2.132  17.669  0.00  0.00    +0.000 A 
ATOM      4  C   UNL     1       4.775   3.237  17.519  0.00  0.00    +0.000 A 
ATOM      5  C   UNL     1       4.794   4.181  18.482  0.00  0.00    +0.000 A 
ATOM      6  C   UNL     1       3.839   4.023  19.655  0.00  0.00    +0.000 A 
ATOM      7  O   UNL     1       3.797   4.877  20.545  0.00  0.00    +0.000 OA
ENDROOT
BRANCH   5   8
ATOM      8  N   UNL     1       5.625   5.315  18.435  0.00  0.00    +0.000 N 
ATOM      9  C   UNL     1       5.148   6.618  17.959  0.00  0.00    +0.000 C 
ATOM     10  C   UNL     1       6.279   7.243  17.137  0.00  0.00    +0.000 C 
ATOM     11  C   UNL     1       7.611   7.289  17.894  0.00  0.00    +0.000 C 
ATOM     12  C   UNL     1       7.916   6.008  18.672  0.00  0.00    +0.000 C 
ATOM     13  C   UNL     1       6.701   5.466  19.418  0.00  0.00    +0.000 C 
ENDBRANCH   5   8
BRANCH   4  14
ATOM     14  N   UNL     1       5.545   3.288  16.357  0.00  0.00    +0.000 N 
ATOM     15  C   UNL     1       5.176   4.133  15.311  0.00  0.00    +0.000 C 
ATOM     16  O   UNL     1       4.155   4.816  15.367  0.00  0.00    +0.000 OA
ATOM     17  H   UNL     1       6.541   3.242  16.528  0.00  0.00    +0.000 HD
BRANCH  15  18
ATOM     18  C   UNL     1       6.096   4.239  14.124  0.00  0.00    +0.000 A 
ATOM     19  C   UNL     1       7.214   5.100  14.224  0.00  0.00    +0.000 A 
ATOM     20  C   UNL     1       8.081   5.313  13.146  0.00  0.00    +0.000 A 
ATOM     21  C   UNL     1       7.868   4.657  11.944  0.00  0.00    +0.000 A 
ATOM     22  C   UNL     1       6.765   3.819  11.818  0.00  0.00    +0.000 A 
ATOM     23  C   UNL     1       5.857   3.617  12.877  0.00  0.00    +0.000 A 
BRANCH  23  24
ATOM     24  O   UNL     1       4.784   2.891  12.435  0.00  0.00    +0.000 OA
ATOM     25  C   UNL     1       4.176   3.203  11.198  0.00  0.00    +0.000 C 
ENDBRANCH  23  24
ENDBRANCH  15  18
ENDBRANCH   4  14
BRANCH   1  27
ATOM     26  C   UNL     1       0.703   3.278  20.358  0.00  0.00    +0.000 C 
ATOM     27  C   UNL     1       2.056   2.695  20.731  0.00  0.00    +0.000 C 
ENDBRANCH   1  27
TORSDOF 5
ENDMDL
MODEL 9
REMARK VINA RESULT:      -7.1      1.319      2.138
REMARK  Name = 
REMARK  7 active torsions:
REMARK  status: ('A' for Active; 'I' for Inactive)
REMARK    1  A    between atoms: C_1  and  C_2
REMARK    2  A    between atoms: C_2  and  N_3
REMARK    3  A    between atoms: C_6  and  N_7
REMARK    4  A    between atoms: C_8  and  C_10
REMARK    5  A    between atoms: C_15  and  O_16
REMARK    6  A    between atoms: O_16  and  C_17
REMARK    7  A    between atoms: C_18  and  N_19
REMARK                            x       y       z     vdW  Elec       q    Type
REMARK                         _______ _______ _______ _____ _____    ______ ____
ROOT
ATOM      1  N   UNL     1       6.150   5.138  15.733  0.00  0.00    +0.000 N 
ATOM      2  N   UNL     1       6.083   6.502  15.876  0.00  0.00    +0.000 NA
ATOM      3  C   UNL     1       5.224   6.957  16.724  0.00  0.00    +0.000 A 
ATOM      4  C   UNL     1       4.295   6.156  17.544  0.00  0.00    +0.000 A 
ATOM      5  C   UNL     1       4.318   4.818  17.381  0.00  0.00    +0.000 A 
ATOM      6  C   UNL     1       5.310   4.236  16.386  0.00  0.00    +0.000 A 
ATOM      7  O   UNL     1       5.346   3.020  16.178  0.00  0.00    +0.000 OA
ENDROOT
BRANCH   5   8
ATOM      8  N   UNL     1       3.448   3.943  18.058  0.00  0.00    +0.000 N 
ATOM      9  C   UNL     1       2.228   3.416  17.438  0.00  0.00    +0.000 C 
ATOM     10  C   UNL     1       1.140   3.402  18.517  0.00  0.00    +0.000 C 
ATOM     11  C   UNL     1       1.575   2.672  19.793  0.00  0.00    +0.000 C 
ATOM     12  C   UNL     1       3.006   2.996  20.224  0.00  0.00    +0.000 C 
ATOM     13  C   UNL     1       3.985   3.015  19.055  0.00  0.00    +0.000 C 
ENDBRANCH   5   8
BRANCH   4  14
ATOM     14  N   UNL     1       3.395   6.830  18.369  0.00  0.00    +0.000 N 
ATOM     15  C   UNL     1       2.746   7.976  17.907  0.00  0.00    +0.000 C 
ATOM     16  O   UNL     1       2.978   8.438  16.792  0.00  0.00    +0.000 OA
ATOM     17  H   UNL     1       2.815   6.215  18.924  0.00  0.00    +0.000 HD
BRANCH  15  18
ATOM     18  C   UNL     1       1.701   8.605  18.788  0.00  0.00    +0.000 A 
ATOM     19  C   UNL     1       1.027   9.752  18.305  0.00  0.00    +0.000 A 
ATOM     20  C   UNL     1       0.092  10.442  19.085  0.00  0.00    +0.000 A 
ATOM     21  C   UNL     1      -0.212   9.995  20.361  0.00  0.00    +0.000 A 
ATOM     22  C   UNL     1       0.450   8.880  20.862  0.00  0.00    +0.000 A 
ATOM     23  C   UNL     1       1.423   8.190  20.110  0.00  0.00    +0.000 A 
BRANCH  23  24
ATOM     24  O   UNL     1       2.032   7.248  20.894  0.00  0.00    +0.000 OA
ATOM     25  C   UNL     1       1.452   5.969  21.051  0.00  0.00    +0.000 C 
ENDBRANCH  23  24
ENDBRANCH  15  18
ENDBRANCH   4  14
BRANCH   1  27
ATOM     26  C   UNL     1       6.388   4.300  13.433  0.00  0.00    +0.000 C 
ATOM     27  C   UNL     1       7.095   4.655  14.730  0.00  0.00    +0.000 C 
ENDBRANCH   1  27
TORSDOF 5
ENDMDL
