MODEL 1
REMARK VINA RESULT:      -8.0      0.000      0.000
REMARK  Name = 
REMARK  11 active torsions:
REMARK  status: ('A' for Active; 'I' for Inactive)
REMARK    1  A    between atoms: N_1  and  C_2
REMARK    2  A    between atoms: C_7  and  N_8
REMARK    3  A    between atoms: C_9  and  C_11
REMARK    4  A    between atoms: C_14  and  C_15
REMARK    5  A    between atoms: C_15  and  S_16
REMARK    6  A    between atoms: S_16  and  C_17
REMARK    7  A    between atoms: C_17  and  N_19
REMARK    8  A    between atoms: N_19  and  C_20
REMARK    9  A    between atoms: N_19  and  C_27
REMARK   10  A    between atoms: C_20  and  C_21
REMARK   11  A    between atoms: C_27  and  C_28
REMARK                            x       y       z     vdW  Elec       q    Type
REMARK                         _______ _______ _______ _____ _____    ______ ____
ROOT
ATOM      1  C   UNL     1       1.108   8.958  19.876  0.00  0.00    +0.000 A 
ATOM      2  C   UNL     1       1.430   9.555  18.656  0.00  0.00    +0.000 A 
ATOM      3  C   UNL     1       2.322   8.926  17.789  0.00  0.00    +0.000 A 
ATOM      4  C   UNL     1       2.949   7.720  18.139  0.00  0.00    +0.000 A 
ATOM      5  C   UNL     1       2.649   7.148  19.388  0.00  0.00    +0.000 A 
ATOM      6  C   UNL     1       1.736   7.763  20.248  0.00  0.00    +0.000 A 
ENDROOT
BRANCH   1   8
ATOM      7  N   UNL     1      -0.289  10.858  20.448  0.00  0.00    +0.000 N 
ATOM      8  C   UNL     1       0.107   9.574  20.787  0.00  0.00    +0.000 C 
ATOM      9  O   UNL     1      -0.327   8.891  21.708  0.00  0.00    +0.000 OA
ATOM     10  H   UNL     1       0.015  11.239  19.562  0.00  0.00    +0.000 HD
BRANCH   7  16
ATOM     11  C   UNL     1      -2.110  12.480  20.483  0.00  0.00    +0.000 A 
ATOM     12  C   UNL     1      -2.923  13.366  21.210  0.00  0.00    +0.000 A 
ATOM     13  C   UNL     1      -2.878  13.404  22.604  0.00  0.00    +0.000 A 
ATOM     14  C   UNL     1      -1.978  12.595  23.287  0.00  0.00    +0.000 A 
ATOM     15  C   UNL     1      -1.127  11.748  22.579  0.00  0.00    +0.000 A 
ATOM     16  C   UNL     1      -1.175  11.683  21.182  0.00  0.00    +0.000 A 
BRANCH  11  17
ATOM     17  N   UNL     1      -2.130  12.557  19.070  0.00  0.00    +0.000 N 
ATOM     18  H   UNL     1      -1.257  12.923  18.696  0.00  0.00    +0.000 HD
ATOM     19  H   UNL     1      -2.916  13.084  18.709  0.00  0.00    +0.000 HD
ENDBRANCH  11  17
ENDBRANCH   7  16
ENDBRANCH   1   8
BRANCH   4  20
ATOM     20  C   UNL     1       3.859   6.980  17.181  0.00  0.00    +0.000 C 
BRANCH  20  21
ATOM     21  S   UNL     1       5.641   7.068  17.528  0.00  0.00    +0.000 S 
BRANCH  21  22
ATOM     22  C   UNL     1       6.237   5.413  17.322  0.00  0.00    +0.000 C 
ATOM     23  S   UNL     1       7.604   4.856  18.142  0.00  0.00    +0.000 S 
BRANCH  22  24
ATOM     24  N   UNL     1       5.405   4.584  16.539  0.00  0.00    +0.000 N 
BRANCH  24  25
ATOM     25  C   UNL     1       4.876   4.941  15.203  0.00  0.00    +0.000 C 
BRANCH  25  26
ATOM     26  C   UNL     1       5.642   4.403  14.000  0.00  0.00    +0.000 A 
ATOM     27  C   UNL     1       5.142   3.448  13.105  0.00  0.00    +0.000 A 
ATOM     28  C   UNL     1       5.894   3.044  11.992  0.00  0.00    +0.000 A 
ATOM     29  C   UNL     1       7.155   3.586  11.752  0.00  0.00    +0.000 A 
ATOM     30  C   UNL     1       7.671   4.534  12.629  0.00  0.00    +0.000 A 
ATOM     31  C   UNL     1       6.922   4.935  13.741  0.00  0.00    +0.000 A 
ENDBRANCH  25  26
ENDBRANCH  24  25
BRANCH  24  32
ATOM     32  C   UNL     1       4.930   3.288  17.057  0.00  0.00    +0.000 C 
BRANCH  32  33
ATOM     33  C   UNL     1       3.766   3.377  18.031  0.00  0.00    +0.000 A 
ATOM     34  C   UNL     1       2.477   3.601  17.512  0.00  0.00    +0.000 A 
ATOM     35  C   UNL     1       1.351   3.616  18.339  0.00  0.00    +0.000 A 
ATOM     36  C   UNL     1       1.491   3.399  19.706  0.00  0.00    +0.000 A 
ATOM     37  C   UNL     1       2.754   3.165  20.242  0.00  0.00    +0.000 A 
ATOM     38  C   UNL     1       3.883   3.148  19.412  0.00  0.00    +0.000 A 
ENDBRANCH  32  33
ENDBRANCH  24  32
ENDBRANCH  22  24
ENDBRANCH  21  22
ENDBRANCH  20  21
ENDBRANCH   4  20
TORSDOF 11
ENDMDL
MODEL 2
REMARK VINA RESULT:      -7.8      3.405     10.669
REMARK  Name = 
REMARK  11 active torsions:
REMARK  status: ('A' for Active; 'I' for Inactive)
REMARK    1  A    between atoms: N_1  and  C_2
REMARK    2  A    between atoms: C_7  and  N_8
REMARK    3  A    between atoms: C_9  and  C_11
REMARK    4  A    between atoms: C_14  and  C_15
REMARK    5  A    between atoms: C_15  and  S_16
REMARK    6  A    between atoms: S_16  and  C_17
REMARK    7  A    between atoms: C_17  and  N_19
REMARK    8  A    between atoms: N_19  and  C_20
REMARK    9  A    between atoms: N_19  and  C_27
REMARK   10  A    between atoms: C_20  and  C_21
REMARK   11  A    between atoms: C_27  and  C_28
REMARK                            x       y       z     vdW  Elec       q    Type
REMARK                         _______ _______ _______ _____ _____    ______ ____
ROOT
ATOM      1  C   UNL     1       2.358   7.827  18.619  0.00  0.00    +0.000 A 
ATOM      2  C   UNL     1       2.065   8.939  17.828  0.00  0.00    +0.000 A 
ATOM      3  C   UNL     1       1.415  10.038  18.387  0.00  0.00    +0.000 A 
ATOM      4  C   UNL     1       0.999  10.033  19.728  0.00  0.00    +0.000 A 
ATOM      5  C   UNL     1       1.262   8.891  20.505  0.00  0.00    +0.000 A 
ATOM      6  C   UNL     1       1.936   7.798  19.954  0.00  0.00    +0.000 A 
ENDROOT
BRANCH   1   8
ATOM      7  N   UNL     1       4.326   6.986  17.475  0.00  0.00    +0.000 N 
ATOM      8  C   UNL     1       3.111   6.672  18.064  0.00  0.00    +0.000 C 
ATOM      9  O   UNL     1       2.640   5.551  18.224  0.00  0.00    +0.000 OA
ATOM     10  H   UNL     1       4.677   7.929  17.567  0.00  0.00    +0.000 HD
BRANCH   7  16
ATOM     11  C   UNL     1       6.092   5.308  17.593  0.00  0.00    +0.000 A 
ATOM     12  C   UNL     1       7.018   4.483  16.934  0.00  0.00    +0.000 A 
ATOM     13  C   UNL     1       7.009   4.359  15.544  0.00  0.00    +0.000 A 
ATOM     14  C   UNL     1       6.107   5.101  14.791  0.00  0.00    +0.000 A 
ATOM     15  C   UNL     1       5.215   5.963  15.426  0.00  0.00    +0.000 A 
ATOM     16  C   UNL     1       5.198   6.083  16.820  0.00  0.00    +0.000 A 
BRANCH  11  17
ATOM     17  N   UNL     1       6.213   5.469  18.994  0.00  0.00    +0.000 N 
ATOM     18  H   UNL     1       6.933   4.864  19.385  0.00  0.00    +0.000 HD
ATOM     19  H   UNL     1       5.339   5.340  19.488  0.00  0.00    +0.000 HD
ENDBRANCH  11  17
ENDBRANCH   7  16
ENDBRANCH   1   8
BRANCH   4  20
ATOM     20  C   UNL     1       0.363  11.244  20.377  0.00  0.00    +0.000 C 
BRANCH  20  21
ATOM     21  S   UNL     1       0.051  12.671  19.295  0.00  0.00    +0.000 S 
BRANCH  21  22
ATOM     22  C   UNL     1      -1.361  13.482  19.994  0.00  0.00    +0.000 C 
ATOM     23  S   UNL     1      -1.317  15.113  20.432  0.00  0.00    +0.000 S 
BRANCH  22  24
ATOM     24  N   UNL     1      -2.534  12.698  20.019  0.00  0.00    +0.000 N 
BRANCH  24  25
ATOM     25  C   UNL     1      -2.607  11.276  19.617  0.00  0.00    +0.000 C 
BRANCH  25  26
ATOM     26  C   UNL     1      -2.953  10.996  18.160  0.00  0.00    +0.000 A 
ATOM     27  C   UNL     1      -4.004  11.608  17.463  0.00  0.00    +0.000 A 
ATOM     28  C   UNL     1      -4.222  11.330  16.105  0.00  0.00    +0.000 A 
ATOM     29  C   UNL     1      -3.396  10.442  15.420  0.00  0.00    +0.000 A 
ATOM     30  C   UNL     1      -2.348   9.822  16.093  0.00  0.00    +0.000 A 
ATOM     31  C   UNL     1      -2.132  10.097  17.447  0.00  0.00    +0.000 A 
ENDBRANCH  25  26
ENDBRANCH  24  25
BRANCH  24  32
ATOM     32  C   UNL     1      -3.831  13.295  20.391  0.00  0.00    +0.000 C 
BRANCH  32  33
ATOM     33  C   UNL     1      -4.299  12.977  21.802  0.00  0.00    +0.000 A 
ATOM     34  C   UNL     1      -3.348  12.518  22.733  0.00  0.00    +0.000 A 
ATOM     35  C   UNL     1      -3.690  12.283  24.068  0.00  0.00    +0.000 A 
ATOM     36  C   UNL     1      -4.993  12.508  24.501  0.00  0.00    +0.000 A 
ATOM     37  C   UNL     1      -5.949  12.971  23.601  0.00  0.00    +0.000 A 
ATOM     38  C   UNL     1      -5.606  13.209  22.263  0.00  0.00    +0.000 A 
ENDBRANCH  32  33
ENDBRANCH  24  32
ENDBRANCH  22  24
ENDBRANCH  21  22
ENDBRANCH  20  21
ENDBRANCH   4  20
TORSDOF 11
ENDMDL
MODEL 3
REMARK VINA RESULT:      -7.8      1.124      1.882
REMARK  Name = 
REMARK  11 active torsions:
REMARK  status: ('A' for Active; 'I' for Inactive)
REMARK    1  A    between atoms: N_1  and  C_2
REMARK    2  A    between atoms: C_7  and  N_8
REMARK    3  A    between atoms: C_9  and  C_11
REMARK    4  A    between atoms: C_14  and  C_15
REMARK    5  A    between atoms: C_15  and  S_16
REMARK    6  A    between atoms: S_16  and  C_17
REMARK    7  A    between atoms: C_17  and  N_19
REMARK    8  A    between atoms: N_19  and  C_20
REMARK    9  A    between atoms: N_19  and  C_27
REMARK   10  A    between atoms: C_20  and  C_21
REMARK   11  A    between atoms: C_27  and  C_28
REMARK                            x       y       z     vdW  Elec       q    Type
REMARK                         _______ _______ _______ _____ _____    ______ ____
ROOT
ATOM      1  C   UNL     1       1.230   9.669  19.389  0.00  0.00    +0.000 A 
ATOM      2  C   UNL     1       1.347   8.572  20.242  0.00  0.00    +0.000 A 
ATOM      3  C   UNL     1       2.038   7.436  19.823  0.00  0.00    +0.000 A 
ATOM      4  C   UNL     1       2.581   7.350  18.531  0.00  0.00    +0.000 A 
ATOM      5  C   UNL     1       2.421   8.446  17.665  0.00  0.00    +0.000 A 
ATOM      6  C   UNL     1       1.751   9.595  18.092  0.00  0.00    +0.000 A 
ENDROOT
BRANCH   1   8
ATOM      7  N   UNL     1      -0.630  10.733  20.529  0.00  0.00    +0.000 N 
ATOM      8  C   UNL     1       0.558  10.917  19.838  0.00  0.00    +0.000 C 
ATOM      9  O   UNL     1       1.125  11.983  19.623  0.00  0.00    +0.000 OA
ATOM     10  H   UNL     1      -0.895   9.794  20.791  0.00  0.00    +0.000 HD
BRANCH   7  16
ATOM     11  C   UNL     1      -1.741  11.848  22.392  0.00  0.00    +0.000 A 
ATOM     12  C   UNL     1      -2.666  12.801  22.849  0.00  0.00    +0.000 A 
ATOM     13  C   UNL     1      -3.268  13.700  21.967  0.00  0.00    +0.000 A 
ATOM     14  C   UNL     1      -2.993  13.621  20.608  0.00  0.00    +0.000 A 
ATOM     15  C   UNL     1      -2.116  12.647  20.130  0.00  0.00    +0.000 A 
ATOM     16  C   UNL     1      -1.489  11.753  21.004  0.00  0.00    +0.000 A 
BRANCH  11  17
ATOM     17  N   UNL     1      -1.239  10.902  23.317  0.00  0.00    +0.000 N 
ATOM     18  H   UNL     1      -1.857  10.788  24.118  0.00  0.00    +0.000 HD
ATOM     19  H   UNL     1      -0.297  11.107  23.626  0.00  0.00    +0.000 HD
ENDBRANCH  11  17
ENDBRANCH   7  16
ENDBRANCH   1   8
BRANCH   4  20
ATOM     20  C   UNL     1       3.403   6.160  18.082  0.00  0.00    +0.000 C 
BRANCH  20  21
ATOM     21  S   UNL     1       5.011   5.934  18.898  0.00  0.00    +0.000 S 
BRANCH  21  22
ATOM     22  C   UNL     1       5.947   4.904  17.801  0.00  0.00    +0.000 C 
ATOM     23  S   UNL     1       7.620   4.738  17.957  0.00  0.00    +0.000 S 
BRANCH  22  24
ATOM     24  N   UNL     1       5.168   4.148  16.899  0.00  0.00    +0.000 N 
BRANCH  24  25
ATOM     25  C   UNL     1       4.667   4.643  15.598  0.00  0.00    +0.000 C 
BRANCH  25  26
ATOM     26  C   UNL     1       5.542   4.366  14.380  0.00  0.00    +0.000 A 
ATOM     27  C   UNL     1       5.181   3.524  13.321  0.00  0.00    +0.000 A 
ATOM     28  C   UNL     1       6.025   3.363  12.212  0.00  0.00    +0.000 A 
ATOM     29  C   UNL     1       7.240   4.043  12.140  0.00  0.00    +0.000 A 
ATOM     30  C   UNL     1       7.618   4.883  13.182  0.00  0.00    +0.000 A 
ATOM     31  C   UNL     1       6.777   5.040  14.289  0.00  0.00    +0.000 A 
ENDBRANCH  25  26
ENDBRANCH  24  25
BRANCH  24  32
ATOM     32  C   UNL     1       4.721   2.786  17.247  0.00  0.00    +0.000 C 
BRANCH  32  33
ATOM     33  C   UNL     1       3.489   2.724  18.135  0.00  0.00    +0.000 A 
ATOM     34  C   UNL     1       3.674   2.625  19.527  0.00  0.00    +0.000 A 
ATOM     35  C   UNL     1       2.591   2.643  20.410  0.00  0.00    +0.000 A 
ATOM     36  C   UNL     1       1.296   2.768  19.916  0.00  0.00    +0.000 A 
ATOM     37  C   UNL     1       1.088   2.876  18.544  0.00  0.00    +0.000 A 
ATOM     38  C   UNL     1       2.175   2.860  17.659  0.00  0.00    +0.000 A 
ENDBRANCH  32  33
ENDBRANCH  24  32
ENDBRANCH  22  24
ENDBRANCH  21  22
ENDBRANCH  20  21
ENDBRANCH   4  20
TORSDOF 11
ENDMDL
MODEL 4
REMARK VINA RESULT:      -7.7      3.276     10.647
REMARK  Name = 
REMARK  11 active torsions:
REMARK  status: ('A' for Active; 'I' for Inactive)
REMARK    1  A    between atoms: N_1  and  C_2
REMARK    2  A    between atoms: C_7  and  N_8
REMARK    3  A    between atoms: C_9  and  C_11
REMARK    4  A    between atoms: C_14  and  C_15
REMARK    5  A    between atoms: C_15  and  S_16
REMARK    6  A    between atoms: S_16  and  C_17
REMARK    7  A    between atoms: C_17  and  N_19
REMARK    8  A    between atoms: N_19  and  C_20
REMARK    9  A    between atoms: N_19  and  C_27
REMARK   10  A    between atoms: C_20  and  C_21
REMARK   11  A    between atoms: C_27  and  C_28
REMARK                            x       y       z     vdW  Elec       q    Type
REMARK                         _______ _______ _______ _____ _____    ______ ____
ROOT
ATOM      1  C   UNL     1       3.316   5.754  18.578  0.00  0.00    +0.000 A 
ATOM      2  C   UNL     1       2.779   5.179  19.731  0.00  0.00    +0.000 A 
ATOM      3  C   UNL     1       1.921   5.920  20.542  0.00  0.00    +0.000 A 
ATOM      4  C   UNL     1       1.620   7.260  20.251  0.00  0.00    +0.000 A 
ATOM      5  C   UNL     1       2.199   7.841  19.110  0.00  0.00    +0.000 A 
ATOM      6  C   UNL     1       3.039   7.093  18.281  0.00  0.00    +0.000 A 
ENDROOT
BRANCH   1   8
ATOM      7  N   UNL     1       4.646   5.648  16.551  0.00  0.00    +0.000 N 
ATOM      8  C   UNL     1       4.178   4.962  17.661  0.00  0.00    +0.000 C 
ATOM      9  O   UNL     1       4.454   3.812  17.984  0.00  0.00    +0.000 OA
ATOM     10  H   UNL     1       4.487   6.645  16.497  0.00  0.00    +0.000 HD
BRANCH   7  16
ATOM     11  C   UNL     1       6.809   5.399  15.452  0.00  0.00    +0.000 A 
ATOM     12  C   UNL     1       7.560   4.939  14.358  0.00  0.00    +0.000 A 
ATOM     13  C   UNL     1       6.980   4.136  13.374  0.00  0.00    +0.000 A 
ATOM     14  C   UNL     1       5.628   3.829  13.444  0.00  0.00    +0.000 A 
ATOM     15  C   UNL     1       4.855   4.320  14.495  0.00  0.00    +0.000 A 
ATOM     16  C   UNL     1       5.426   5.109  15.500  0.00  0.00    +0.000 A 
BRANCH  11  17
ATOM     17  N   UNL     1       7.426   6.288  16.364  0.00  0.00    +0.000 N 
ATOM     18  H   UNL     1       6.864   6.425  17.201  0.00  0.00    +0.000 HD
ATOM     19  H   UNL     1       7.665   7.182  15.951  0.00  0.00    +0.000 HD
ENDBRANCH  11  17
ENDBRANCH   7  16
ENDBRANCH   1   8
BRANCH   4  20
ATOM     20  C   UNL     1       0.630   8.059  21.072  0.00  0.00    +0.000 C 
BRANCH  20  21
ATOM     21  S   UNL     1       1.300   9.474  21.995  0.00  0.00    +0.000 S 
BRANCH  21  22
ATOM     22  C   UNL     1       0.204  10.820  21.640  0.00  0.00    +0.000 C 
ATOM     23  S   UNL     1      -1.114  11.173  22.635  0.00  0.00    +0.000 S 
BRANCH  22  24
ATOM     24  N   UNL     1       0.605  11.632  20.557  0.00  0.00    +0.000 N 
BRANCH  24  25
ATOM     25  C   UNL     1       0.498  11.249  19.131  0.00  0.00    +0.000 C 
BRANCH  25  26
ATOM     26  C   UNL     1      -0.907  11.008  18.593  0.00  0.00    +0.000 A 
ATOM     27  C   UNL     1      -1.268   9.928  17.776  0.00  0.00    +0.000 A 
ATOM     28  C   UNL     1      -2.598   9.751  17.365  0.00  0.00    +0.000 A 
ATOM     29  C   UNL     1      -3.589  10.646  17.765  0.00  0.00    +0.000 A 
ATOM     30  C   UNL     1      -3.252  11.726  18.575  0.00  0.00    +0.000 A 
ATOM     31  C   UNL     1      -1.925  11.903  18.982  0.00  0.00    +0.000 A 
ENDBRANCH  25  26
ENDBRANCH  24  25
BRANCH  24  32
ATOM     32  C   UNL     1       1.251  12.936  20.793  0.00  0.00    +0.000 C 
BRANCH  32  33
ATOM     33  C   UNL     1       0.489  14.135  20.251  0.00  0.00    +0.000 A 
ATOM     34  C   UNL     1      -0.638  14.586  20.963  0.00  0.00    +0.000 A 
ATOM     35  C   UNL     1      -1.340  15.728  20.568  0.00  0.00    +0.000 A 
ATOM     36  C   UNL     1      -0.922  16.449  19.453  0.00  0.00    +0.000 A 
ATOM     37  C   UNL     1       0.196  16.028  18.738  0.00  0.00    +0.000 A 
ATOM     38  C   UNL     1       0.900  14.883  19.135  0.00  0.00    +0.000 A 
ENDBRANCH  32  33
ENDBRANCH  24  32
ENDBRANCH  22  24
ENDBRANCH  21  22
ENDBRANCH  20  21
ENDBRANCH   4  20
TORSDOF 11
ENDMDL
MODEL 5
REMARK VINA RESULT:      -7.7      3.904     10.418
REMARK  Name = 
REMARK  11 active torsions:
REMARK  status: ('A' for Active; 'I' for Inactive)
REMARK    1  A    between atoms: N_1  and  C_2
REMARK    2  A    between atoms: C_7  and  N_8
REMARK    3  A    between atoms: C_9  and  C_11
REMARK    4  A    between atoms: C_14  and  C_15
REMARK    5  A    between atoms: C_15  and  S_16
REMARK    6  A    between atoms: S_16  and  C_17
REMARK    7  A    between atoms: C_17  and  N_19
REMARK    8  A    between atoms: N_19  and  C_20
REMARK    9  A    between atoms: N_19  and  C_27
REMARK   10  A    between atoms: C_20  and  C_21
REMARK   11  A    between atoms: C_27  and  C_28
REMARK                            x       y       z     vdW  Elec       q    Type
REMARK                         _______ _______ _______ _____ _____    ______ ____
ROOT
ATOM      1  C   UNL     1       2.345   7.217  19.016  0.00  0.00    +0.000 A 
ATOM      2  C   UNL     1       2.025   8.498  18.565  0.00  0.00    +0.000 A 
ATOM      3  C   UNL     1       1.426   9.411  19.432  0.00  0.00    +0.000 A 
ATOM      4  C   UNL     1       1.086   9.051  20.746  0.00  0.00    +0.000 A 
ATOM      5  C   UNL     1       1.375   7.744  21.177  0.00  0.00    +0.000 A 
ATOM      6  C   UNL     1       1.999   6.836  20.318  0.00  0.00    +0.000 A 
ENDROOT
BRANCH   1   8
ATOM      7  N   UNL     1       4.370   6.554  17.854  0.00  0.00    +0.000 N 
ATOM      8  C   UNL     1       3.047   6.249  18.132  0.00  0.00    +0.000 C 
ATOM      9  O   UNL     1       2.434   5.248  17.779  0.00  0.00    +0.000 OA
ATOM     10  H   UNL     1       4.804   7.319  18.353  0.00  0.00    +0.000 HD
BRANCH   7  16
ATOM     11  C   UNL     1       6.219   4.992  17.555  0.00  0.00    +0.000 A 
ATOM     12  C   UNL     1       7.132   4.353  16.700  0.00  0.00    +0.000 A 
ATOM     13  C   UNL     1       7.024   4.472  15.314  0.00  0.00    +0.000 A 
ATOM     14  C   UNL     1       6.034   5.278  14.767  0.00  0.00    +0.000 A 
ATOM     15  C   UNL     1       5.151   5.961  15.601  0.00  0.00    +0.000 A 
ATOM     16  C   UNL     1       5.233   5.834  16.993  0.00  0.00    +0.000 A 
BRANCH  11  17
ATOM     17  N   UNL     1       6.438   4.913  18.951  0.00  0.00    +0.000 N 
ATOM     18  H   UNL     1       5.575   4.736  19.462  0.00  0.00    +0.000 HD
ATOM     19  H   UNL     1       6.908   5.727  19.328  0.00  0.00    +0.000 HD
ENDBRANCH  11  17
ENDBRANCH   7  16
ENDBRANCH   1   8
BRANCH   4  20
ATOM     20  C   UNL     1       0.508  10.048  21.729  0.00  0.00    +0.000 C 
BRANCH  20  21
ATOM     21  S   UNL     1      -1.009  10.905  21.212  0.00  0.00    +0.000 S 
BRANCH  21  22
ATOM     22  C   UNL     1      -0.537  12.600  21.005  0.00  0.00    +0.000 C 
ATOM     23  S   UNL     1      -0.614  13.701  22.283  0.00  0.00    +0.000 S 
BRANCH  22  24
ATOM     24  N   UNL     1       0.027  12.902  19.747  0.00  0.00    +0.000 N 
BRANCH  24  25
ATOM     25  C   UNL     1      -0.747  13.094  18.500  0.00  0.00    +0.000 C 
BRANCH  25  26
ATOM     26  C   UNL     1      -1.622  11.928  18.055  0.00  0.00    +0.000 A 
ATOM     27  C   UNL     1      -1.136  10.748  17.475  0.00  0.00    +0.000 A 
ATOM     28  C   UNL     1      -2.007   9.701  17.140  0.00  0.00    +0.000 A 
ATOM     29  C   UNL     1      -3.375   9.811  17.380  0.00  0.00    +0.000 A 
ATOM     30  C   UNL     1      -3.879  10.974  17.953  0.00  0.00    +0.000 A 
ATOM     31  C   UNL     1      -3.011  12.019  18.284  0.00  0.00    +0.000 A 
ENDBRANCH  25  26
ENDBRANCH  24  25
BRANCH  24  32
ATOM     32  C   UNL     1       1.490  12.973  19.574  0.00  0.00    +0.000 C 
BRANCH  32  33
ATOM     33  C   UNL     1       2.010  14.308  19.066  0.00  0.00    +0.000 A 
ATOM     34  C   UNL     1       2.939  14.303  18.009  0.00  0.00    +0.000 A 
ATOM     35  C   UNL     1       3.399  15.493  17.439  0.00  0.00    +0.000 A 
ATOM     36  C   UNL     1       2.933  16.716  17.911  0.00  0.00    +0.000 A 
ATOM     37  C   UNL     1       2.006  16.746  18.950  0.00  0.00    +0.000 A 
ATOM     38  C   UNL     1       1.543  15.552  19.521  0.00  0.00    +0.000 A 
ENDBRANCH  32  33
ENDBRANCH  24  32
ENDBRANCH  22  24
ENDBRANCH  21  22
ENDBRANCH  20  21
ENDBRANCH   4  20
TORSDOF 11
ENDMDL
MODEL 6
REMARK VINA RESULT:      -7.7      4.961      8.025
REMARK  Name = 
REMARK  11 active torsions:
REMARK  status: ('A' for Active; 'I' for Inactive)
REMARK    1  A    between atoms: N_1  and  C_2
REMARK    2  A    between atoms: C_7  and  N_8
REMARK    3  A    between atoms: C_9  and  C_11
REMARK    4  A    between atoms: C_14  and  C_15
REMARK    5  A    between atoms: C_15  and  S_16
REMARK    6  A    between atoms: S_16  and  C_17
REMARK    7  A    between atoms: C_17  and  N_19
REMARK    8  A    between atoms: N_19  and  C_20
REMARK    9  A    between atoms: N_19  and  C_27
REMARK   10  A    between atoms: C_20  and  C_21
REMARK   11  A    between atoms: C_27  and  C_28
REMARK                            x       y       z     vdW  Elec       q    Type
REMARK                         _______ _______ _______ _____ _____    ______ ____
ROOT
ATOM      1  C   UNL     1       8.177   8.750  18.183  0.00  0.00    +0.000 A 
ATOM      2  C   UNL     1       8.576   7.715  19.030  0.00  0.00    +0.000 A 
ATOM      3  C   UNL     1       8.244   6.397  18.721  0.00  0.00    +0.000 A 
ATOM      4  C   UNL     1       7.466   6.088  17.594  0.00  0.00    +0.000 A 
ATOM      5  C   UNL     1       7.034   7.142  16.771  0.00  0.00    +0.000 A 
ATOM      6  C   UNL     1       7.387   8.461  17.064  0.00  0.00    +0.000 A 
ENDROOT
BRANCH   1   8
ATOM      7  N   UNL     1       9.247  10.360  19.651  0.00  0.00    +0.000 N 
ATOM      8  C   UNL     1       8.577  10.156  18.455  0.00  0.00    +0.000 C 
ATOM      9  O   UNL     1       8.346  10.995  17.591  0.00  0.00    +0.000 OA
ATOM     10  H   UNL     1       9.529   9.552  20.190  0.00  0.00    +0.000 HD
BRANCH   7  16
ATOM     11  C   UNL     1      10.783  12.253  19.576  0.00  0.00    +0.000 A 
ATOM     12  C   UNL     1      11.262  13.441  20.153  0.00  0.00    +0.000 A 
ATOM     13  C   UNL     1      10.612  14.026  21.240  0.00  0.00    +0.000 A 
ATOM     14  C   UNL     1       9.506  13.400  21.800  0.00  0.00    +0.000 A 
ATOM     15  C   UNL     1       9.047  12.193  21.273  0.00  0.00    +0.000 A 
ATOM     16  C   UNL     1       9.676  11.605  20.170  0.00  0.00    +0.000 A 
BRANCH  11  17
ATOM     17  N   UNL     1      11.540  11.657  18.540  0.00  0.00    +0.000 N 
ATOM     18  H   UNL     1      11.466  12.176  17.667  0.00  0.00    +0.000 HD
ATOM     19  H   UNL     1      11.311  10.682  18.389  0.00  0.00    +0.000 HD
ENDBRANCH  11  17
ENDBRANCH   7  16
ENDBRANCH   1   8
BRANCH   4  20
ATOM     20  C   UNL     1       7.161   4.659  17.195  0.00  0.00    +0.000 C 
BRANCH  20  21
ATOM     21  S   UNL     1       5.432   4.291  16.769  0.00  0.00    +0.000 S 
BRANCH  21  22
ATOM     22  C   UNL     1       4.480   4.889  18.137  0.00  0.00    +0.000 C 
ATOM     23  S   UNL     1       4.984   4.662  19.733  0.00  0.00    +0.000 S 
BRANCH  22  24
ATOM     24  N   UNL     1       3.364   5.674  17.776  0.00  0.00    +0.000 N 
BRANCH  24  25
ATOM     25  C   UNL     1       3.397   7.137  17.555  0.00  0.00    +0.000 C 
BRANCH  25  26
ATOM     26  C   UNL     1       2.426   7.973  18.381  0.00  0.00    +0.000 A 
ATOM     27  C   UNL     1       2.147   7.755  19.736  0.00  0.00    +0.000 A 
ATOM     28  C   UNL     1       1.277   8.605  20.436  0.00  0.00    +0.000 A 
ATOM     29  C   UNL     1       0.675   9.687  19.797  0.00  0.00    +0.000 A 
ATOM     30  C   UNL     1       0.937   9.920  18.451  0.00  0.00    +0.000 A 
ATOM     31  C   UNL     1       1.802   9.071  17.753  0.00  0.00    +0.000 A 
ENDBRANCH  25  26
ENDBRANCH  24  25
BRANCH  24  32
ATOM     32  C   UNL     1       2.023   5.070  17.664  0.00  0.00    +0.000 C 
BRANCH  32  33
ATOM     33  C   UNL     1       1.662   4.104  18.781  0.00  0.00    +0.000 A 
ATOM     34  C   UNL     1       1.689   2.724  18.505  0.00  0.00    +0.000 A 
ATOM     35  C   UNL     1       1.446   1.776  19.503  0.00  0.00    +0.000 A 
ATOM     36  C   UNL     1       1.176   2.191  20.803  0.00  0.00    +0.000 A 
ATOM     37  C   UNL     1       1.152   3.550  21.103  0.00  0.00    +0.000 A 
ATOM     38  C   UNL     1       1.398   4.501  20.103  0.00  0.00    +0.000 A 
ENDBRANCH  32  33
ENDBRANCH  24  32
ENDBRANCH  22  24
ENDBRANCH  21  22
ENDBRANCH  20  21
ENDBRANCH   4  20
TORSDOF 11
ENDMDL
MODEL 7
REMARK VINA RESULT:      -7.7      1.283      1.800
REMARK  Name = 
REMARK  11 active torsions:
REMARK  status: ('A' for Active; 'I' for Inactive)
REMARK    1  A    between atoms: N_1  and  C_2
REMARK    2  A    between atoms: C_7  and  N_8
REMARK    3  A    between atoms: C_9  and  C_11
REMARK    4  A    between atoms: C_14  and  C_15
REMARK    5  A    between atoms: C_15  and  S_16
REMARK    6  A    between atoms: S_16  and  C_17
REMARK    7  A    between atoms: C_17  and  N_19
REMARK    8  A    between atoms: N_19  and  C_20
REMARK    9  A    between atoms: N_19  and  C_27
REMARK   10  A    between atoms: C_20  and  C_21
REMARK   11  A    between atoms: C_27  and  C_28
REMARK                            x       y       z     vdW  Elec       q    Type
REMARK                         _______ _______ _______ _____ _____    ______ ____
ROOT
ATOM      1  C   UNL     1       0.483   9.921  19.516  0.00  0.00    +0.000 A 
ATOM      2  C   UNL     1       0.788   9.747  18.165  0.00  0.00    +0.000 A 
ATOM      3  C   UNL     1       1.600   8.685  17.768  0.00  0.00    +0.000 A 
ATOM      4  C   UNL     1       2.165   7.810  18.708  0.00  0.00    +0.000 A 
ATOM      5  C   UNL     1       1.885   8.020  20.069  0.00  0.00    +0.000 A 
ATOM      6  C   UNL     1       1.051   9.067  20.468  0.00  0.00    +0.000 A 
ENDROOT
BRANCH   1   8
ATOM      7  N   UNL     1      -0.022  11.711  21.075  0.00  0.00    +0.000 N 
ATOM      8  C   UNL     1      -0.436  11.003  19.958  0.00  0.00    +0.000 C 
ATOM      9  O   UNL     1      -1.432  11.222  19.277  0.00  0.00    +0.000 OA
ATOM     10  H   UNL     1       0.907  11.543  21.436  0.00  0.00    +0.000 HD
BRANCH   7  16
ATOM     11  C   UNL     1      -1.488  12.426  22.889  0.00  0.00    +0.000 A 
ATOM     12  C   UNL     1      -2.274  13.429  23.480  0.00  0.00    +0.000 A 
ATOM     13  C   UNL     1      -2.259  14.736  22.992  0.00  0.00    +0.000 A 
ATOM     14  C   UNL     1      -1.500  15.045  21.870  0.00  0.00    +0.000 A 
ATOM     15  C   UNL     1      -0.754  14.050  21.239  0.00  0.00    +0.000 A 
ATOM     16  C   UNL     1      -0.742  12.740  21.730  0.00  0.00    +0.000 A 
BRANCH  11  17
ATOM     17  N   UNL     1      -1.619  11.101  23.367  0.00  0.00    +0.000 N 
ATOM     18  H   UNL     1      -1.439  11.037  24.366  0.00  0.00    +0.000 HD
ATOM     19  H   UNL     1      -1.046  10.436  22.863  0.00  0.00    +0.000 HD
ENDBRANCH  11  17
ENDBRANCH   7  16
ENDBRANCH   1   8
BRANCH   4  20
ATOM     20  C   UNL     1       2.984   6.605  18.294  0.00  0.00    +0.000 C 
BRANCH  20  21
ATOM     21  S   UNL     1       4.601   6.948  17.537  0.00  0.00    +0.000 S 
BRANCH  21  22
ATOM     22  C   UNL     1       5.510   5.434  17.679  0.00  0.00    +0.000 C 
ATOM     23  S   UNL     1       6.858   5.303  18.687  0.00  0.00    +0.000 S 
BRANCH  22  24
ATOM     24  N   UNL     1       4.935   4.340  16.997  0.00  0.00    +0.000 N 
BRANCH  24  25
ATOM     25  C   UNL     1       4.438   4.381  15.604  0.00  0.00    +0.000 C 
BRANCH  25  26
ATOM     26  C   UNL     1       5.491   4.325  14.503  0.00  0.00    +0.000 A 
ATOM     27  C   UNL     1       5.358   3.592  13.316  0.00  0.00    +0.000 A 
ATOM     28  C   UNL     1       6.354   3.636  12.329  0.00  0.00    +0.000 A 
ATOM     29  C   UNL     1       7.497   4.413  12.508  0.00  0.00    +0.000 A 
ATOM     30  C   UNL     1       7.650   5.147  13.680  0.00  0.00    +0.000 A 
ATOM     31  C   UNL     1       6.658   5.101  14.664  0.00  0.00    +0.000 A 
ENDBRANCH  25  26
ENDBRANCH  24  25
BRANCH  24  32
ATOM     32  C   UNL     1       4.716   3.054  17.686  0.00  0.00    +0.000 C 
BRANCH  32  33
ATOM     33  C   UNL     1       3.442   2.981  18.511  0.00  0.00    +0.000 A 
ATOM     34  C   UNL     1       3.540   3.139  19.907  0.00  0.00    +0.000 A 
ATOM     35  C   UNL     1       2.404   3.161  20.720  0.00  0.00    +0.000 A 
ATOM     36  C   UNL     1       1.141   3.033  20.151  0.00  0.00    +0.000 A 
ATOM     37  C   UNL     1       1.016   2.884  18.772  0.00  0.00    +0.000 A 
ATOM     38  C   UNL     1       2.156   2.863  17.957  0.00  0.00    +0.000 A 
ENDBRANCH  32  33
ENDBRANCH  24  32
ENDBRANCH  22  24
ENDBRANCH  21  22
ENDBRANCH  20  21
ENDBRANCH   4  20
TORSDOF 11
ENDMDL
MODEL 8
REMARK VINA RESULT:      -7.7      6.191     10.604
REMARK  Name = 
REMARK  11 active torsions:
REMARK  status: ('A' for Active; 'I' for Inactive)
REMARK    1  A    between atoms: N_1  and  C_2
REMARK    2  A    between atoms: C_7  and  N_8
REMARK    3  A    between atoms: C_9  and  C_11
REMARK    4  A    between atoms: C_14  and  C_15
REMARK    5  A    between atoms: C_15  and  S_16
REMARK    6  A    between atoms: S_16  and  C_17
REMARK    7  A    between atoms: C_17  and  N_19
REMARK    8  A    between atoms: N_19  and  C_20
REMARK    9  A    between atoms: N_19  and  C_27
REMARK   10  A    between atoms: C_20  and  C_21
REMARK   11  A    between atoms: C_27  and  C_28
REMARK                            x       y       z     vdW  Elec       q    Type
REMARK                         _______ _______ _______ _____ _____    ______ ____
ROOT
ATOM      1  C   UNL     1       6.451   6.273  17.924  0.00  0.00    +0.000 A 
ATOM      2  C   UNL     1       7.496   6.043  18.820  0.00  0.00    +0.000 A 
ATOM      3  C   UNL     1       8.413   7.057  19.094  0.00  0.00    +0.000 A 
ATOM      4  C   UNL     1       8.339   8.299  18.444  0.00  0.00    +0.000 A 
ATOM      5  C   UNL     1       7.307   8.505  17.512  0.00  0.00    +0.000 A 
ATOM      6  C   UNL     1       6.372   7.500  17.256  0.00  0.00    +0.000 A 
ENDROOT
BRANCH   1   8
ATOM      7  N   UNL     1       4.445   5.113  18.646  0.00  0.00    +0.000 N 
ATOM      8  C   UNL     1       5.422   5.231  17.669  0.00  0.00    +0.000 C 
ATOM      9  O   UNL     1       5.479   4.616  16.610  0.00  0.00    +0.000 OA
ATOM     10  H   UNL     1       4.416   5.802  19.385  0.00  0.00    +0.000 HD
BRANCH   7  16
ATOM     11  C   UNL     1       3.644   2.881  19.219  0.00  0.00    +0.000 A 
ATOM     12  C   UNL     1       2.630   1.911  19.159  0.00  0.00    +0.000 A 
ATOM     13  C   UNL     1       1.369   2.221  18.648  0.00  0.00    +0.000 A 
ATOM     14  C   UNL     1       1.122   3.490  18.141  0.00  0.00    +0.000 A 
ATOM     15  C   UNL     1       2.133   4.450  18.145  0.00  0.00    +0.000 A 
ATOM     16  C   UNL     1       3.397   4.161  18.673  0.00  0.00    +0.000 A 
BRANCH  11  17
ATOM     17  N   UNL     1       4.930   2.482  19.655  0.00  0.00    +0.000 N 
ATOM     18  H   UNL     1       5.277   3.074  20.407  0.00  0.00    +0.000 HD
ATOM     19  H   UNL     1       5.609   2.432  18.905  0.00  0.00    +0.000 HD
ENDBRANCH  11  17
ENDBRANCH   7  16
ENDBRANCH   1   8
BRANCH   4  20
ATOM     20  C   UNL     1       9.274   9.441  18.782  0.00  0.00    +0.000 C 
BRANCH  20  21
ATOM     21  S   UNL     1       8.713  11.109  18.327  0.00  0.00    +0.000 S 
BRANCH  21  22
ATOM     22  C   UNL     1       9.947  12.205  18.969  0.00  0.00    +0.000 C 
ATOM     23  S   UNL     1      11.549  11.711  19.173  0.00  0.00    +0.000 S 
BRANCH  22  24
ATOM     24  N   UNL     1       9.510  13.534  19.156  0.00  0.00    +0.000 N 
BRANCH  24  25
ATOM     25  C   UNL     1       9.325  14.183  20.473  0.00  0.00    +0.000 C 
BRANCH  25  26
ATOM     26  C   UNL     1       8.354  13.509  21.435  0.00  0.00    +0.000 A 
ATOM     27  C   UNL     1       8.634  12.337  22.151  0.00  0.00    +0.000 A 
ATOM     28  C   UNL     1       7.702  11.809  23.057  0.00  0.00    +0.000 A 
ATOM     29  C   UNL     1       6.479  12.442  23.266  0.00  0.00    +0.000 A 
ATOM     30  C   UNL     1       6.180  13.606  22.565  0.00  0.00    +0.000 A 
ATOM     31  C   UNL     1       7.108  14.130  21.659  0.00  0.00    +0.000 A 
ENDBRANCH  25  26
ENDBRANCH  24  25
BRANCH  24  32
ATOM     32  C   UNL     1       9.122  14.369  18.004  0.00  0.00    +0.000 C 
BRANCH  32  33
ATOM     33  C   UNL     1       7.783  15.073  18.146  0.00  0.00    +0.000 A 
ATOM     34  C   UNL     1       6.613  14.348  17.847  0.00  0.00    +0.000 A 
ATOM     35  C   UNL     1       5.345  14.904  18.031  0.00  0.00    +0.000 A 
ATOM     36  C   UNL     1       5.219  16.199  18.525  0.00  0.00    +0.000 A 
ATOM     37  C   UNL     1       6.361  16.933  18.836  0.00  0.00    +0.000 A 
ATOM     38  C   UNL     1       7.633  16.374  18.654  0.00  0.00    +0.000 A 
ENDBRANCH  32  33
ENDBRANCH  24  32
ENDBRANCH  22  24
ENDBRANCH  21  22
ENDBRANCH  20  21
ENDBRANCH   4  20
TORSDOF 11
ENDMDL
MODEL 9
REMARK VINA RESULT:      -7.6      3.348     12.359
REMARK  Name = 
REMARK  11 active torsions:
REMARK  status: ('A' for Active; 'I' for Inactive)
REMARK    1  A    between atoms: N_1  and  C_2
REMARK    2  A    between atoms: C_7  and  N_8
REMARK    3  A    between atoms: C_9  and  C_11
REMARK    4  A    between atoms: C_14  and  C_15
REMARK    5  A    between atoms: C_15  and  S_16
REMARK    6  A    between atoms: S_16  and  C_17
REMARK    7  A    between atoms: C_17  and  N_19
REMARK    8  A    between atoms: N_19  and  C_20
REMARK    9  A    between atoms: N_19  and  C_27
REMARK   10  A    between atoms: C_20  and  C_21
REMARK   11  A    between atoms: C_27  and  C_28
REMARK                            x       y       z     vdW  Elec       q    Type
REMARK                         _______ _______ _______ _____ _____    ______ ____
ROOT
ATOM      1  C   UNL     1       2.321   7.711  18.844  0.00  0.00    +0.000 A 
ATOM      2  C   UNL     1       1.915   8.602  17.849  0.00  0.00    +0.000 A 
ATOM      3  C   UNL     1       1.067   9.662  18.170  0.00  0.00    +0.000 A 
ATOM      4  C   UNL     1       0.567   9.825  19.471  0.00  0.00    +0.000 A 
ATOM      5  C   UNL     1       0.950   8.898  20.455  0.00  0.00    +0.000 A 
ATOM      6  C   UNL     1       1.819   7.850  20.143  0.00  0.00    +0.000 A 
ENDROOT
BRANCH   1   8
ATOM      7  N   UNL     1       4.072   6.815  17.422  0.00  0.00    +0.000 N 
ATOM      8  C   UNL     1       3.279   6.615  18.541  0.00  0.00    +0.000 C 
ATOM      9  O   UNL     1       3.336   5.673  19.323  0.00  0.00    +0.000 OA
ATOM     10  H   UNL     1       4.046   7.717  16.967  0.00  0.00    +0.000 HD
BRANCH   7  16
ATOM     11  C   UNL     1       6.372   6.276  16.815  0.00  0.00    +0.000 A 
ATOM     12  C   UNL     1       7.285   5.404  16.198  0.00  0.00    +0.000 A 
ATOM     13  C   UNL     1       6.881   4.150  15.738  0.00  0.00    +0.000 A 
ATOM     14  C   UNL     1       5.548   3.775  15.838  0.00  0.00    +0.000 A 
ATOM     15  C   UNL     1       4.619   4.648  16.401  0.00  0.00    +0.000 A 
ATOM     16  C   UNL     1       5.011   5.901  16.886  0.00  0.00    +0.000 A 
BRANCH  11  17
ATOM     17  N   UNL     1       6.818   7.571  17.173  0.00  0.00    +0.000 N 
ATOM     18  H   UNL     1       6.101   8.277  17.017  0.00  0.00    +0.000 HD
ATOM     19  H   UNL     1       7.680   7.838  16.713  0.00  0.00    +0.000 HD
ENDBRANCH  11  17
ENDBRANCH   7  16
ENDBRANCH   1   8
BRANCH   4  20
ATOM     20  C   UNL     1      -0.290  11.012  19.860  0.00  0.00    +0.000 C 
BRANCH  20  21
ATOM     21  S   UNL     1      -0.224  11.520  21.604  0.00  0.00    +0.000 S 
BRANCH  21  22
ATOM     22  C   UNL     1      -0.439  13.278  21.583  0.00  0.00    +0.000 C 
ATOM     23  S   UNL     1       0.881  14.330  21.592  0.00  0.00    +0.000 S 
BRANCH  22  24
ATOM     24  N   UNL     1      -1.775  13.703  21.421  0.00  0.00    +0.000 N 
BRANCH  24  25
ATOM     25  C   UNL     1      -2.929  12.798  21.215  0.00  0.00    +0.000 C 
BRANCH  25  26
ATOM     26  C   UNL     1      -3.979  12.769  22.320  0.00  0.00    +0.000 A 
ATOM     27  C   UNL     1      -5.343  13.020  22.123  0.00  0.00    +0.000 A 
ATOM     28  C   UNL     1      -6.252  12.923  23.187  0.00  0.00    +0.000 A 
ATOM     29  C   UNL     1      -5.816  12.570  24.463  0.00  0.00    +0.000 A 
ATOM     30  C   UNL     1      -4.465  12.318  24.680  0.00  0.00    +0.000 A 
ATOM     31  C   UNL     1      -3.559  12.418  23.620  0.00  0.00    +0.000 A 
ENDBRANCH  25  26
ENDBRANCH  24  25
BRANCH  24  32
ATOM     32  C   UNL     1      -2.109  15.139  21.369  0.00  0.00    +0.000 C 
BRANCH  32  33
ATOM     33  C   UNL     1      -2.726  15.698  22.640  0.00  0.00    +0.000 A 
ATOM     34  C   UNL     1      -4.001  16.288  22.559  0.00  0.00    +0.000 A 
ATOM     35  C   UNL     1      -4.663  16.752  23.699  0.00  0.00    +0.000 A 
ATOM     36  C   UNL     1      -4.064  16.629  24.948  0.00  0.00    +0.000 A 
ATOM     37  C   UNL     1      -2.807  16.040  25.056  0.00  0.00    +0.000 A 
ATOM     38  C   UNL     1      -2.144  15.573  23.912  0.00  0.00    +0.000 A 
ENDBRANCH  32  33
ENDBRANCH  24  32
ENDBRANCH  22  24
ENDBRANCH  21  22
ENDBRANCH  20  21
ENDBRANCH   4  20
TORSDOF 11
ENDMDL
