MODEL 1
REMARK VINA RESULT:      -6.8      0.000      0.000
REMARK  Name = 
REMARK  9 active torsions:
REMARK  status: ('A' for Active; 'I' for Inactive)
REMARK    1  A    between atoms: C_1  and  C_2
REMARK    2  A    between atoms: C_5  and  N_6
REMARK    3  A    between atoms: N_9  and  C_10
REMARK    4  A    between atoms: C_10  and  C_11
REMARK    5  A    between atoms: C_11  and  N_12
REMARK    6  A    between atoms: C_13  and  C_15
REMARK    7  A    between atoms: C_15  and  N_16
REMARK    8  A    between atoms: C_17  and  N_18
REMARK    9  A    between atoms: C_23  and  C_24
REMARK                            x       y       z     vdW  Elec       q    Type
REMARK                         _______ _______ _______ _____ _____    ______ ____
ROOT
ATOM      1  N   UNL     1       4.584   4.314  17.220  0.00  0.00    +0.000 N 
ATOM      2  C   UNL     1       4.170   5.353  18.030  0.00  0.00    +0.000 C 
ATOM      3  O   UNL     1       3.766   6.426  17.583  0.00  0.00    +0.000 OA
ATOM      4  H   UNL     1       4.740   3.400  17.638  0.00  0.00    +0.000 HD
ENDROOT
BRANCH   1   5
ATOM      5  C   UNL     1       4.494   4.373  15.766  0.00  0.00    +0.000 C 
BRANCH   5   6
ATOM      6  C   UNL     1       5.376   3.350  15.043  0.00  0.00    +0.000 C 
BRANCH   6  12
ATOM      7  C   UNL     1       5.512   3.024  11.979  0.00  0.00    +0.000 C 
ATOM      8  C   UNL     1       6.435   3.851  12.806  0.00  0.00    +0.000 A 
ATOM      9  N   UNL     1       7.393   4.624  12.323  0.00  0.00    +0.000 NA
ATOM     10  C   UNL     1       7.945   5.272  13.399  0.00  0.00    +0.000 A 
ATOM     11  C   UNL     1       7.339   4.854  14.548  0.00  0.00    +0.000 A 
ATOM     12  N   UNL     1       6.382   3.946  14.186  0.00  0.00    +0.000 N 
BRANCH  11  13
ATOM     13  N   UNL     1       7.569   5.268  15.879  0.00  0.00    +0.000 N 
ATOM     14  O   UNL     1       7.382   6.463  16.126  0.00  0.00    +0.000 OA
ATOM     15  O   UNL     1       7.916   4.393  16.680  0.00  0.00    +0.000 OA
ENDBRANCH  11  13
ENDBRANCH   6  12
ENDBRANCH   5   6
ENDBRANCH   1   5
BRANCH   2  16
ATOM     16  C   UNL     1       4.259   5.113  19.506  0.00  0.00    +0.000 C 
BRANCH  16  17
ATOM     17  N   UNL     1       3.167   4.363  20.123  0.00  0.00    +0.000 N 
ATOM     18  C   UNL     1       3.126   2.985  20.224  0.00  0.00    +0.000 A 
ATOM     19  C   UNL     1       1.936   2.674  20.827  0.00  0.00    +0.000 A 
ATOM     20  N   UNL     1       1.234   3.812  21.093  0.00  0.00    +0.000 NA
ATOM     21  C   UNL     1       1.978   4.824  20.680  0.00  0.00    +0.000 A 
ATOM     22  C   UNL     1       1.540   6.237  20.830  0.00  0.00    +0.000 C 
BRANCH  18  23
ATOM     23  N   UNL     1       4.125   2.071  19.777  0.00  0.00    +0.000 N 
ATOM     24  O   UNL     1       3.984   1.561  18.661  0.00  0.00    +0.000 OA
ATOM     25  O   UNL     1       5.056   1.851  20.555  0.00  0.00    +0.000 OA
ENDBRANCH  18  23
ENDBRANCH  16  17
ENDBRANCH   2  16
TORSDOF 7
ENDMDL
MODEL 2
REMARK VINA RESULT:      -6.4      4.334      7.884
REMARK  Name = 
REMARK  9 active torsions:
REMARK  status: ('A' for Active; 'I' for Inactive)
REMARK    1  A    between atoms: C_1  and  C_2
REMARK    2  A    between atoms: C_5  and  N_6
REMARK    3  A    between atoms: N_9  and  C_10
REMARK    4  A    between atoms: C_10  and  C_11
REMARK    5  A    between atoms: C_11  and  N_12
REMARK    6  A    between atoms: C_13  and  C_15
REMARK    7  A    between atoms: C_15  and  N_16
REMARK    8  A    between atoms: C_17  and  N_18
REMARK    9  A    between atoms: C_23  and  C_24
REMARK                            x       y       z     vdW  Elec       q    Type
REMARK                         _______ _______ _______ _____ _____    ______ ____
ROOT
ATOM      1  N   UNL     1       2.034   6.647  19.826  0.00  0.00    +0.000 N 
ATOM      2  C   UNL     1       2.736   6.643  18.637  0.00  0.00    +0.000 C 
ATOM      3  O   UNL     1       3.214   7.663  18.141  0.00  0.00    +0.000 OA
ATOM      4  H   UNL     1       1.817   5.757  20.270  0.00  0.00    +0.000 HD
ENDROOT
BRANCH   1   5
ATOM      5  C   UNL     1       1.879   7.849  20.638  0.00  0.00    +0.000 C 
BRANCH   5   6
ATOM      6  C   UNL     1       0.431   8.326  20.778  0.00  0.00    +0.000 C 
BRANCH   6  12
ATOM      7  C   UNL     1       0.616   9.833  18.093  0.00  0.00    +0.000 C 
ATOM      8  C   UNL     1       0.300  10.446  19.413  0.00  0.00    +0.000 A 
ATOM      9  N   UNL     1      -0.025  11.715  19.597  0.00  0.00    +0.000 NA
ATOM     10  C   UNL     1      -0.321  11.848  20.930  0.00  0.00    +0.000 A 
ATOM     11  C   UNL     1      -0.134  10.654  21.564  0.00  0.00    +0.000 A 
ATOM     12  N   UNL     1       0.267   9.757  20.613  0.00  0.00    +0.000 N 
BRANCH  11  13
ATOM     13  N   UNL     1      -0.340  10.324  22.922  0.00  0.00    +0.000 N 
ATOM     14  O   UNL     1      -1.453  10.579  23.391  0.00  0.00    +0.000 OA
ATOM     15  O   UNL     1       0.606   9.791  23.513  0.00  0.00    +0.000 OA
ENDBRANCH  11  13
ENDBRANCH   6  12
ENDBRANCH   5   6
ENDBRANCH   1   5
BRANCH   2  16
ATOM     16  C   UNL     1       2.868   5.315  17.955  0.00  0.00    +0.000 C 
BRANCH  16  17
ATOM     17  N   UNL     1       3.454   4.226  18.734  0.00  0.00    +0.000 N 
ATOM     18  C   UNL     1       2.723   3.284  19.432  0.00  0.00    +0.000 A 
ATOM     19  C   UNL     1       3.630   2.465  20.050  0.00  0.00    +0.000 A 
ATOM     20  N   UNL     1       4.899   2.876  19.769  0.00  0.00    +0.000 NA
ATOM     21  C   UNL     1       4.792   3.925  18.970  0.00  0.00    +0.000 A 
ATOM     22  C   UNL     1       5.985   4.632  18.433  0.00  0.00    +0.000 C 
BRANCH  18  23
ATOM     23  N   UNL     1       1.301   3.192  19.499  0.00  0.00    +0.000 N 
ATOM     24  O   UNL     1       0.717   3.875  20.347  0.00  0.00    +0.000 OA
ATOM     25  O   UNL     1       0.762   2.420  18.702  0.00  0.00    +0.000 OA
ENDBRANCH  18  23
ENDBRANCH  16  17
ENDBRANCH   2  16
TORSDOF 7
ENDMDL
MODEL 3
REMARK VINA RESULT:      -6.4      4.866      7.476
REMARK  Name = 
REMARK  9 active torsions:
REMARK  status: ('A' for Active; 'I' for Inactive)
REMARK    1  A    between atoms: C_1  and  C_2
REMARK    2  A    between atoms: C_5  and  N_6
REMARK    3  A    between atoms: N_9  and  C_10
REMARK    4  A    between atoms: C_10  and  C_11
REMARK    5  A    between atoms: C_11  and  N_12
REMARK    6  A    between atoms: C_13  and  C_15
REMARK    7  A    between atoms: C_15  and  N_16
REMARK    8  A    between atoms: C_17  and  N_18
REMARK    9  A    between atoms: C_23  and  C_24
REMARK                            x       y       z     vdW  Elec       q    Type
REMARK                         _______ _______ _______ _____ _____    ______ ____
ROOT
ATOM      1  N   UNL     1       2.158   7.787  19.023  0.00  0.00    +0.000 N 
ATOM      2  C   UNL     1       1.686   9.001  18.564  0.00  0.00    +0.000 C 
ATOM      3  O   UNL     1       2.014   9.476  17.478  0.00  0.00    +0.000 OA
ATOM      4  H   UNL     1       1.720   7.369  19.840  0.00  0.00    +0.000 HD
ENDROOT
BRANCH   1   5
ATOM      5  C   UNL     1       3.017   6.928  18.217  0.00  0.00    +0.000 C 
BRANCH   5   6
ATOM      6  C   UNL     1       2.466   5.515  18.005  0.00  0.00    +0.000 C 
BRANCH   6  12
ATOM      7  C   UNL     1       1.099   4.207  20.442  0.00  0.00    +0.000 C 
ATOM      8  C   UNL     1       2.460   3.882  19.932  0.00  0.00    +0.000 A 
ATOM      9  N   UNL     1       3.237   2.926  20.412  0.00  0.00    +0.000 NA
ATOM     10  C   UNL     1       4.354   2.899  19.615  0.00  0.00    +0.000 A 
ATOM     11  C   UNL     1       4.266   3.879  18.669  0.00  0.00    +0.000 A 
ATOM     12  N   UNL     1       3.072   4.515  18.863  0.00  0.00    +0.000 N 
BRANCH  11  13
ATOM     13  N   UNL     1       5.171   4.199  17.632  0.00  0.00    +0.000 N 
ATOM     14  O   UNL     1       4.958   3.681  16.532  0.00  0.00    +0.000 OA
ATOM     15  O   UNL     1       6.081   4.987  17.914  0.00  0.00    +0.000 OA
ENDBRANCH  11  13
ENDBRANCH   6  12
ENDBRANCH   5   6
ENDBRANCH   1   5
BRANCH   2  16
ATOM     16  C   UNL     1       0.755   9.734  19.481  0.00  0.00    +0.000 C 
BRANCH  16  17
ATOM     17  N   UNL     1       0.081  10.912  18.938  0.00  0.00    +0.000 N 
ATOM     18  C   UNL     1       0.487  12.214  19.160  0.00  0.00    +0.000 A 
ATOM     19  C   UNL     1      -0.416  13.019  18.516  0.00  0.00    +0.000 A 
ATOM     20  N   UNL     1      -1.374  12.259  17.914  0.00  0.00    +0.000 NA
ATOM     21  C   UNL     1      -1.068  10.996  18.158  0.00  0.00    +0.000 A 
ATOM     22  C   UNL     1      -1.886   9.871  17.632  0.00  0.00    +0.000 C 
BRANCH  18  23
ATOM     23  N   UNL     1       1.619  12.633  19.919  0.00  0.00    +0.000 N 
ATOM     24  O   UNL     1       1.532  12.602  21.151  0.00  0.00    +0.000 OA
ATOM     25  O   UNL     1       2.602  13.010  19.277  0.00  0.00    +0.000 OA
ENDBRANCH  18  23
ENDBRANCH  16  17
ENDBRANCH   2  16
TORSDOF 7
ENDMDL
MODEL 4
REMARK VINA RESULT:      -6.3      4.557      7.798
REMARK  Name = 
REMARK  9 active torsions:
REMARK  status: ('A' for Active; 'I' for Inactive)
REMARK    1  A    between atoms: C_1  and  C_2
REMARK    2  A    between atoms: C_5  and  N_6
REMARK    3  A    between atoms: N_9  and  C_10
REMARK    4  A    between atoms: C_10  and  C_11
REMARK    5  A    between atoms: C_11  and  N_12
REMARK    6  A    between atoms: C_13  and  C_15
REMARK    7  A    between atoms: C_15  and  N_16
REMARK    8  A    between atoms: C_17  and  N_18
REMARK    9  A    between atoms: C_23  and  C_24
REMARK                            x       y       z     vdW  Elec       q    Type
REMARK                         _______ _______ _______ _____ _____    ______ ____
ROOT
ATOM      1  N   UNL     1       2.393   8.065  17.748  0.00  0.00    +0.000 N 
ATOM      2  C   UNL     1       2.563   6.955  18.552  0.00  0.00    +0.000 C 
ATOM      3  O   UNL     1       2.597   7.021  19.781  0.00  0.00    +0.000 OA
ATOM      4  H   UNL     1       2.199   7.927  16.759  0.00  0.00    +0.000 HD
ENDROOT
BRANCH   1   5
ATOM      5  C   UNL     1       2.153   9.396  18.293  0.00  0.00    +0.000 C 
BRANCH   5   6
ATOM      6  C   UNL     1       0.681   9.689  18.599  0.00  0.00    +0.000 C 
BRANCH   6  12
ATOM      7  C   UNL     1       0.345   8.752  21.518  0.00  0.00    +0.000 C 
ATOM      8  C   UNL     1       0.376  10.168  21.060  0.00  0.00    +0.000 A 
ATOM      9  N   UNL     1       0.343  11.221  21.859  0.00  0.00    +0.000 NA
ATOM     10  C   UNL     1       0.479  12.323  21.053  0.00  0.00    +0.000 A 
ATOM     11  C   UNL     1       0.554  11.930  19.747  0.00  0.00    +0.000 A 
ATOM     12  N   UNL     1       0.483  10.565  19.737  0.00  0.00    +0.000 N 
BRANCH  11  13
ATOM     13  N   UNL     1       0.720  12.720  18.588  0.00  0.00    +0.000 N 
ATOM     14  O   UNL     1      -0.309  13.138  18.050  0.00  0.00    +0.000 OA
ATOM     15  O   UNL     1       1.882  12.939  18.228  0.00  0.00    +0.000 OA
ENDBRANCH  11  13
ENDBRANCH   6  12
ENDBRANCH   5   6
ENDBRANCH   1   5
BRANCH   2  16
ATOM     16  C   UNL     1       2.729   5.647  17.842  0.00  0.00    +0.000 C 
BRANCH  16  17
ATOM     17  N   UNL     1       3.397   4.573  18.576  0.00  0.00    +0.000 N 
ATOM     18  C   UNL     1       2.739   3.541  19.217  0.00  0.00    +0.000 A 
ATOM     19  C   UNL     1       3.705   2.772  19.810  0.00  0.00    +0.000 A 
ATOM     20  N   UNL     1       4.938   3.300  19.567  0.00  0.00    +0.000 NA
ATOM     21  C   UNL     1       4.752   4.373  18.818  0.00  0.00    +0.000 A 
ATOM     22  C   UNL     1       5.887   5.203  18.332  0.00  0.00    +0.000 C 
BRANCH  18  23
ATOM     23  N   UNL     1       1.329   3.328  19.259  0.00  0.00    +0.000 N 
ATOM     24  O   UNL     1       0.820   2.653  18.357  0.00  0.00    +0.000 OA
ATOM     25  O   UNL     1       0.722   3.851  20.196  0.00  0.00    +0.000 OA
ENDBRANCH  18  23
ENDBRANCH  16  17
ENDBRANCH   2  16
TORSDOF 7
ENDMDL
MODEL 5
REMARK VINA RESULT:      -6.3      5.064      7.713
REMARK  Name = 
REMARK  9 active torsions:
REMARK  status: ('A' for Active; 'I' for Inactive)
REMARK    1  A    between atoms: C_1  and  C_2
REMARK    2  A    between atoms: C_5  and  N_6
REMARK    3  A    between atoms: N_9  and  C_10
REMARK    4  A    between atoms: C_10  and  C_11
REMARK    5  A    between atoms: C_11  and  N_12
REMARK    6  A    between atoms: C_13  and  C_15
REMARK    7  A    between atoms: C_15  and  N_16
REMARK    8  A    between atoms: C_17  and  N_18
REMARK    9  A    between atoms: C_23  and  C_24
REMARK                            x       y       z     vdW  Elec       q    Type
REMARK                         _______ _______ _______ _____ _____    ______ ____
ROOT
ATOM      1  N   UNL     1       2.172   8.185  18.488  0.00  0.00    +0.000 N 
ATOM      2  C   UNL     1       1.421   9.109  19.186  0.00  0.00    +0.000 C 
ATOM      3  O   UNL     1       0.993   8.899  20.321  0.00  0.00    +0.000 OA
ATOM      4  H   UNL     1       2.641   8.480  17.634  0.00  0.00    +0.000 HD
ENDROOT
BRANCH   1   5
ATOM      5  C   UNL     1       2.593   6.917  19.072  0.00  0.00    +0.000 C 
BRANCH   5   6
ATOM      6  C   UNL     1       3.194   5.933  18.065  0.00  0.00    +0.000 C 
BRANCH   6  12
ATOM      7  C   UNL     1       6.122   5.303  18.800  0.00  0.00    +0.000 C 
ATOM      8  C   UNL     1       4.956   4.409  19.039  0.00  0.00    +0.000 A 
ATOM      9  N   UNL     1       5.010   3.251  19.676  0.00  0.00    +0.000 NA
ATOM     10  C   UNL     1       3.720   2.793  19.757  0.00  0.00    +0.000 A 
ATOM     11  C   UNL     1       2.882   3.667  19.125  0.00  0.00    +0.000 A 
ATOM     12  N   UNL     1       3.655   4.694  18.659  0.00  0.00    +0.000 N 
BRANCH  11  13
ATOM     13  N   UNL     1       1.478   3.609  18.983  0.00  0.00    +0.000 N 
ATOM     14  O   UNL     1       1.046   3.234  17.889  0.00  0.00    +0.000 OA
ATOM     15  O   UNL     1       0.807   3.920  19.974  0.00  0.00    +0.000 OA
ENDBRANCH  11  13
ENDBRANCH   6  12
ENDBRANCH   5   6
ENDBRANCH   1   5
BRANCH   2  16
ATOM     16  C   UNL     1       1.130  10.395  18.474  0.00  0.00    +0.000 C 
BRANCH  16  17
ATOM     17  N   UNL     1      -0.137  11.053  18.785  0.00  0.00    +0.000 N 
ATOM     18  C   UNL     1      -0.289  12.038  19.743  0.00  0.00    +0.000 A 
ATOM     19  C   UNL     1      -1.619  12.368  19.755  0.00  0.00    +0.000 A 
ATOM     20  N   UNL     1      -2.297  11.613  18.844  0.00  0.00    +0.000 NA
ATOM     21  C   UNL     1      -1.404  10.833  18.256  0.00  0.00    +0.000 A 
ATOM     22  C   UNL     1      -1.780   9.879  17.179  0.00  0.00    +0.000 C 
BRANCH  18  23
ATOM     23  N   UNL     1       0.738  12.591  20.563  0.00  0.00    +0.000 N 
ATOM     24  O   UNL     1       1.321  13.601  20.156  0.00  0.00    +0.000 OA
ATOM     25  O   UNL     1       0.974  12.002  21.621  0.00  0.00    +0.000 OA
ENDBRANCH  18  23
ENDBRANCH  16  17
ENDBRANCH   2  16
TORSDOF 7
ENDMDL
MODEL 6
REMARK VINA RESULT:      -6.3      4.301      7.172
REMARK  Name = 
REMARK  9 active torsions:
REMARK  status: ('A' for Active; 'I' for Inactive)
REMARK    1  A    between atoms: C_1  and  C_2
REMARK    2  A    between atoms: C_5  and  N_6
REMARK    3  A    between atoms: N_9  and  C_10
REMARK    4  A    between atoms: C_10  and  C_11
REMARK    5  A    between atoms: C_11  and  N_12
REMARK    6  A    between atoms: C_13  and  C_15
REMARK    7  A    between atoms: C_15  and  N_16
REMARK    8  A    between atoms: C_17  and  N_18
REMARK    9  A    between atoms: C_23  and  C_24
REMARK                            x       y       z     vdW  Elec       q    Type
REMARK                         _______ _______ _______ _____ _____    ______ ____
ROOT
ATOM      1  N   UNL     1       2.091   7.795  19.194  0.00  0.00    +0.000 N 
ATOM      2  C   UNL     1       1.769   8.761  18.261  0.00  0.00    +0.000 C 
ATOM      3  O   UNL     1       2.432   8.950  17.242  0.00  0.00    +0.000 OA
ATOM      4  H   UNL     1       1.414   7.570  19.920  0.00  0.00    +0.000 HD
ENDROOT
BRANCH   1   5
ATOM      5  C   UNL     1       3.194   6.861  19.004  0.00  0.00    +0.000 C 
BRANCH   5   6
ATOM      6  C   UNL     1       2.776   5.513  18.408  0.00  0.00    +0.000 C 
BRANCH   6  12
ATOM      7  C   UNL     1       0.952   3.923  20.320  0.00  0.00    +0.000 C 
ATOM      8  C   UNL     1       2.378   3.614  20.024  0.00  0.00    +0.000 A 
ATOM      9  N   UNL     1       3.034   2.562  20.484  0.00  0.00    +0.000 NA
ATOM     10  C   UNL     1       4.280   2.602  19.912  0.00  0.00    +0.000 A 
ATOM     11  C   UNL     1       4.390   3.715  19.129  0.00  0.00    +0.000 A 
ATOM     12  N   UNL     1       3.192   4.370  19.196  0.00  0.00    +0.000 N 
BRANCH  11  13
ATOM     13  N   UNL     1       5.479   4.143  18.337  0.00  0.00    +0.000 N 
ATOM     14  O   UNL     1       5.385   3.959  17.120  0.00  0.00    +0.000 OA
ATOM     15  O   UNL     1       6.418   4.683  18.933  0.00  0.00    +0.000 OA
ENDBRANCH  11  13
ENDBRANCH   6  12
ENDBRANCH   5   6
ENDBRANCH   1   5
BRANCH   2  16
ATOM     16  C   UNL     1       0.564   9.597  18.568  0.00  0.00    +0.000 C 
BRANCH  16  17
ATOM     17  N   UNL     1       0.640  10.463  19.743  0.00  0.00    +0.000 N 
ATOM     18  C   UNL     1       1.087  11.771  19.720  0.00  0.00    +0.000 A 
ATOM     19  C   UNL     1       1.037  12.222  21.012  0.00  0.00    +0.000 A 
ATOM     20  N   UNL     1       0.587  11.234  21.836  0.00  0.00    +0.000 NA
ATOM     21  C   UNL     1       0.338  10.184  21.072  0.00  0.00    +0.000 A 
ATOM     22  C   UNL     1      -0.196   8.913  21.628  0.00  0.00    +0.000 C 
BRANCH  18  23
ATOM     23  N   UNL     1       1.521  12.499  18.574  0.00  0.00    +0.000 N 
ATOM     24  O   UNL     1       0.757  13.349  18.105  0.00  0.00    +0.000 OA
ATOM     25  O   UNL     1       2.635  12.210  18.128  0.00  0.00    +0.000 OA
ENDBRANCH  18  23
ENDBRANCH  16  17
ENDBRANCH   2  16
TORSDOF 7
ENDMDL
MODEL 7
REMARK VINA RESULT:      -6.2      4.332      7.387
REMARK  Name = 
REMARK  9 active torsions:
REMARK  status: ('A' for Active; 'I' for Inactive)
REMARK    1  A    between atoms: C_1  and  C_2
REMARK    2  A    between atoms: C_5  and  N_6
REMARK    3  A    between atoms: N_9  and  C_10
REMARK    4  A    between atoms: C_10  and  C_11
REMARK    5  A    between atoms: C_11  and  N_12
REMARK    6  A    between atoms: C_13  and  C_15
REMARK    7  A    between atoms: C_15  and  N_16
REMARK    8  A    between atoms: C_17  and  N_18
REMARK    9  A    between atoms: C_23  and  C_24
REMARK                            x       y       z     vdW  Elec       q    Type
REMARK                         _______ _______ _______ _____ _____    ______ ____
ROOT
ATOM      1  N   UNL     1       1.945   7.513  20.615  0.00  0.00    +0.000 N 
ATOM      2  C   UNL     1       0.944   8.262  21.202  0.00  0.00    +0.000 C 
ATOM      3  O   UNL     1      -0.146   7.787  21.517  0.00  0.00    +0.000 OA
ATOM      4  H   UNL     1       2.877   7.915  20.539  0.00  0.00    +0.000 HD
ENDROOT
BRANCH   1   5
ATOM      5  C   UNL     1       1.822   6.076  20.401  0.00  0.00    +0.000 C 
BRANCH   5   6
ATOM      6  C   UNL     1       3.150   5.372  20.107  0.00  0.00    +0.000 C 
BRANCH   6  12
ATOM      7  C   UNL     1       4.028   5.027  17.170  0.00  0.00    +0.000 C 
ATOM      8  C   UNL     1       3.438   3.964  18.030  0.00  0.00    +0.000 A 
ATOM      9  N   UNL     1       3.285   2.701  17.671  0.00  0.00    +0.000 NA
ATOM     10  C   UNL     1       2.793   2.043  18.770  0.00  0.00    +0.000 A 
ATOM     11  C   UNL     1       2.610   2.930  19.791  0.00  0.00    +0.000 A 
ATOM     12  N   UNL     1       3.009   4.154  19.333  0.00  0.00    +0.000 N 
BRANCH  11  13
ATOM     13  N   UNL     1       2.148   2.691  21.105  0.00  0.00    +0.000 N 
ATOM     14  O   UNL     1       3.004   2.423  21.953  0.00  0.00    +0.000 OA
ATOM     15  O   UNL     1       0.930   2.794  21.292  0.00  0.00    +0.000 OA
ENDBRANCH  11  13
ENDBRANCH   6  12
ENDBRANCH   5   6
ENDBRANCH   1   5
BRANCH   2  16
ATOM     16  C   UNL     1       1.249   9.713  21.419  0.00  0.00    +0.000 C 
BRANCH  16  17
ATOM     17  N   UNL     1       0.346  10.681  20.800  0.00  0.00    +0.000 N 
ATOM     18  C   UNL     1       0.387  11.045  19.468  0.00  0.00    +0.000 A 
ATOM     19  C   UNL     1      -0.589  11.990  19.291  0.00  0.00    +0.000 A 
ATOM     20  N   UNL     1      -1.226  12.231  20.472  0.00  0.00    +0.000 NA
ATOM     21  C   UNL     1      -0.672  11.437  21.373  0.00  0.00    +0.000 A 
ATOM     22  C   UNL     1      -1.131  11.408  22.787  0.00  0.00    +0.000 C 
BRANCH  18  23
ATOM     23  N   UNL     1       1.281  10.541  18.477  0.00  0.00    +0.000 N 
ATOM     24  O   UNL     1       1.047   9.423  18.004  0.00  0.00    +0.000 OA
ATOM     25  O   UNL     1       2.233  11.264  18.176  0.00  0.00    +0.000 OA
ENDBRANCH  18  23
ENDBRANCH  16  17
ENDBRANCH   2  16
TORSDOF 7
ENDMDL
MODEL 8
REMARK VINA RESULT:      -6.2      4.780      7.740
REMARK  Name = 
REMARK  9 active torsions:
REMARK  status: ('A' for Active; 'I' for Inactive)
REMARK    1  A    between atoms: C_1  and  C_2
REMARK    2  A    between atoms: C_5  and  N_6
REMARK    3  A    between atoms: N_9  and  C_10
REMARK    4  A    between atoms: C_10  and  C_11
REMARK    5  A    between atoms: C_11  and  N_12
REMARK    6  A    between atoms: C_13  and  C_15
REMARK    7  A    between atoms: C_15  and  N_16
REMARK    8  A    between atoms: C_17  and  N_18
REMARK    9  A    between atoms: C_23  and  C_24
REMARK                            x       y       z     vdW  Elec       q    Type
REMARK                         _______ _______ _______ _____ _____    ______ ____
ROOT
ATOM      1  N   UNL     1       2.140   7.853  18.359  0.00  0.00    +0.000 N 
ATOM      2  C   UNL     1       2.453   6.663  18.985  0.00  0.00    +0.000 C 
ATOM      3  O   UNL     1       2.327   6.495  20.198  0.00  0.00    +0.000 OA
ATOM      4  H   UNL     1       2.099   7.875  17.342  0.00  0.00    +0.000 HD
ENDROOT
BRANCH   1   5
ATOM      5  C   UNL     1       1.551   8.980  19.072  0.00  0.00    +0.000 C 
BRANCH   5   6
ATOM      6  C   UNL     1       1.123  10.138  18.165  0.00  0.00    +0.000 C 
BRANCH   6  12
ATOM      7  C   UNL     1      -1.775   9.886  17.140  0.00  0.00    +0.000 C 
ATOM      8  C   UNL     1      -1.323  10.760  18.258  0.00  0.00    +0.000 A 
ATOM      9  N   UNL     1      -2.123  11.490  19.017  0.00  0.00    +0.000 NA
ATOM     10  C   UNL     1      -1.327  12.069  19.972  0.00  0.00    +0.000 A 
ATOM     11  C   UNL     1      -0.025  11.717  19.761  0.00  0.00    +0.000 A 
ATOM     12  N   UNL     1      -0.007  10.891  18.671  0.00  0.00    +0.000 N 
BRANCH  11  13
ATOM     13  N   UNL     1       1.124  12.061  20.508  0.00  0.00    +0.000 N 
ATOM     14  O   UNL     1       1.848  12.942  20.036  0.00  0.00    +0.000 OA
ATOM     15  O   UNL     1       1.288  11.464  21.578  0.00  0.00    +0.000 OA
ENDBRANCH  11  13
ENDBRANCH   6  12
ENDBRANCH   5   6
ENDBRANCH   1   5
BRANCH   2  16
ATOM     16  C   UNL     1       2.984   5.574  18.103  0.00  0.00    +0.000 C 
BRANCH  16  17
ATOM     17  N   UNL     1       3.573   4.412  18.766  0.00  0.00    +0.000 N 
ATOM     18  C   UNL     1       2.849   3.333  19.236  0.00  0.00    +0.000 A 
ATOM     19  C   UNL     1       3.751   2.480  19.815  0.00  0.00    +0.000 A 
ATOM     20  N   UNL     1       5.008   3.001  19.730  0.00  0.00    +0.000 NA
ATOM     21  C   UNL     1       4.900   4.153  19.090  0.00  0.00    +0.000 A 
ATOM     22  C   UNL     1       6.085   5.001  18.789  0.00  0.00    +0.000 C 
BRANCH  18  23
ATOM     23  N   UNL     1       1.437   3.152  19.143  0.00  0.00    +0.000 N 
ATOM     24  O   UNL     1       0.741   3.540  20.088  0.00  0.00    +0.000 OA
ATOM     25  O   UNL     1       1.019   2.605  18.120  0.00  0.00    +0.000 OA
ENDBRANCH  18  23
ENDBRANCH  16  17
ENDBRANCH   2  16
TORSDOF 7
ENDMDL
MODEL 9
REMARK VINA RESULT:      -6.2      4.876      7.870
REMARK  Name = 
REMARK  9 active torsions:
REMARK  status: ('A' for Active; 'I' for Inactive)
REMARK    1  A    between atoms: C_1  and  C_2
REMARK    2  A    between atoms: C_5  and  N_6
REMARK    3  A    between atoms: N_9  and  C_10
REMARK    4  A    between atoms: C_10  and  C_11
REMARK    5  A    between atoms: C_11  and  N_12
REMARK    6  A    between atoms: C_13  and  C_15
REMARK    7  A    between atoms: C_15  and  N_16
REMARK    8  A    between atoms: C_17  and  N_18
REMARK    9  A    between atoms: C_23  and  C_24
REMARK                            x       y       z     vdW  Elec       q    Type
REMARK                         _______ _______ _______ _____ _____    ______ ____
ROOT
ATOM      1  N   UNL     1       2.017   7.816  19.879  0.00  0.00    +0.000 N 
ATOM      2  C   UNL     1       2.515   6.764  19.136  0.00  0.00    +0.000 C 
ATOM      3  O   UNL     1       2.463   6.733  17.907  0.00  0.00    +0.000 OA
ATOM      4  H   UNL     1       2.244   7.866  20.870  0.00  0.00    +0.000 HD
ENDROOT
BRANCH   1   5
ATOM      5  C   UNL     1       1.468   9.018  19.262  0.00  0.00    +0.000 C 
BRANCH   5   6
ATOM      6  C   UNL     1       0.197   9.542  19.937  0.00  0.00    +0.000 C 
BRANCH   6  12
ATOM      7  C   UNL     1      -1.554   9.895  17.422  0.00  0.00    +0.000 C 
ATOM      8  C   UNL     1      -1.086  10.991  18.315  0.00  0.00    +0.000 A 
ATOM      9  N   UNL     1      -1.429  12.262  18.193  0.00  0.00    +0.000 NA
ATOM     10  C   UNL     1      -0.861  12.920  19.254  0.00  0.00    +0.000 A 
ATOM     11  C   UNL     1      -0.133  12.040  20.003  0.00  0.00    +0.000 A 
ATOM     12  N   UNL     1      -0.262  10.813  19.415  0.00  0.00    +0.000 N 
BRANCH  11  13
ATOM     13  N   UNL     1       0.595  12.272  21.191  0.00  0.00    +0.000 N 
ATOM     14  O   UNL     1       1.807  12.475  21.067  0.00  0.00    +0.000 OA
ATOM     15  O   UNL     1      -0.049  12.273  22.246  0.00  0.00    +0.000 OA
ENDBRANCH  11  13
ENDBRANCH   6  12
ENDBRANCH   5   6
ENDBRANCH   1   5
BRANCH   2  16
ATOM     16  C   UNL     1       3.112   5.632  19.915  0.00  0.00    +0.000 C 
BRANCH  16  17
ATOM     17  N   UNL     1       3.072   4.308  19.297  0.00  0.00    +0.000 N 
ATOM     18  C   UNL     1       4.074   3.790  18.499  0.00  0.00    +0.000 A 
ATOM     19  C   UNL     1       3.648   2.554  18.091  0.00  0.00    +0.000 A 
ATOM     20  N   UNL     1       2.410   2.294  18.600  0.00  0.00    +0.000 NA
ATOM     21  C   UNL     1       2.072   3.342  19.332  0.00  0.00    +0.000 A 
ATOM     22  C   UNL     1       0.781   3.405  20.068  0.00  0.00    +0.000 C 
BRANCH  18  23
ATOM     23  N   UNL     1       5.305   4.427  18.161  0.00  0.00    +0.000 N 
ATOM     24  O   UNL     1       6.245   4.325  18.957  0.00  0.00    +0.000 OA
ATOM     25  O   UNL     1       5.330   5.046  17.095  0.00  0.00    +0.000 OA
ENDBRANCH  18  23
ENDBRANCH  16  17
ENDBRANCH   2  16
TORSDOF 7
ENDMDL
