MODEL 1
REMARK VINA RESULT:      -8.2      0.000      0.000
REMARK  Name = 
REMARK  4 active torsions:
REMARK  status: ('A' for Active; 'I' for Inactive)
REMARK    1  A    between atoms: C_2  and  C_3
REMARK    2  A    between atoms: C_8  and  N_9
REMARK    3  A    between atoms: C_11  and  C_12
REMARK    4  A    between atoms: N_16  and  C_17
REMARK                            x       y       z     vdW  Elec       q    Type
REMARK                         _______ _______ _______ _____ _____    ______ ____
ROOT
ATOM      1  N   UNL     1       4.225   4.904  18.174  0.00  0.00    +0.000 N 
ATOM      2  C   UNL     1       5.128   5.246  19.132  0.00  0.00    +0.000 A 
ATOM      3  C   UNL     1       6.285   5.599  18.455  0.00  0.00    +0.000 A 
ATOM      4  C   UNL     1       5.968   5.417  17.076  0.00  0.00    +0.000 A 
ATOM      5  N   UNL     1       6.854   5.586  16.058  0.00  0.00    +0.000 N 
ATOM      6  N   UNL     1       4.708   5.003  16.942  0.00  0.00    +0.000 NA
ATOM      7  H   UNL     1       7.777   5.943  16.307  0.00  0.00    +0.000 HD
ENDROOT
BRANCH   5   8
ATOM      8  C   UNL     1       6.799   5.061  14.742  0.00  0.00    +0.000 A 
ATOM      9  C   UNL     1       5.948   4.006  14.370  0.00  0.00    +0.000 A 
ATOM     10  C   UNL     1       6.026   3.409  13.108  0.00  0.00    +0.000 A 
ATOM     11  C   UNL     1       6.956   3.876  12.196  0.00  0.00    +0.000 A 
ATOM     12  F   UNL     1       7.052   3.293  10.995  0.00  0.00    +0.000 F 
ATOM     13  C   UNL     1       7.791   4.939  12.516  0.00  0.00    +0.000 A 
ATOM     14  C   UNL     1       7.709   5.531  13.782  0.00  0.00    +0.000 A 
ENDBRANCH   5   8
BRANCH   1  20
ATOM     15  C   UNL     1       2.105   5.178  19.499  0.00  0.00    +0.000 C 
ATOM     16  C   UNL     1       2.546   4.761  20.907  0.00  0.00    +0.000 C 
ATOM     17  C   UNL     1       2.494   3.245  21.097  0.00  0.00    +0.000 C 
ATOM     18  C   UNL     1       3.204   2.464  19.994  0.00  0.00    +0.000 C 
ATOM     19  C   UNL     1       2.796   2.912  18.589  0.00  0.00    +0.000 C 
ATOM     20  C   UNL     1       2.856   4.437  18.376  0.00  0.00    +0.000 C 
BRANCH  15  22
ATOM     21  N   UNL     1       2.217   7.799  19.234  0.00  0.00    +0.000 NA
ATOM     22  C   UNL     1       2.167   6.642  19.319  0.00  0.00    +0.000 C 
ENDBRANCH  15  22
ENDBRANCH   1  20
BRANCH   3  23
ATOM     23  C   UNL     1       7.549   6.017  19.039  0.00  0.00    +0.000 C 
ATOM     24  N   UNL     1       7.994   5.275  20.097  0.00  0.00    +0.000 N 
ATOM     25  O   UNL     1       8.201   6.966  18.615  0.00  0.00    +0.000 OA
ATOM     26  H   UNL     1       7.568   4.404  20.374  0.00  0.00    +0.000 HD
ATOM     27  H   UNL     1       8.903   5.499  20.474  0.00  0.00    +0.000 HD
ENDBRANCH   3  23
TORSDOF 4
ENDMDL
MODEL 2
REMARK VINA RESULT:      -8.1      0.213      1.002
REMARK  Name = 
REMARK  4 active torsions:
REMARK  status: ('A' for Active; 'I' for Inactive)
REMARK    1  A    between atoms: C_2  and  C_3
REMARK    2  A    between atoms: C_8  and  N_9
REMARK    3  A    between atoms: C_11  and  C_12
REMARK    4  A    between atoms: N_16  and  C_17
REMARK                            x       y       z     vdW  Elec       q    Type
REMARK                         _______ _______ _______ _____ _____    ______ ____
ROOT
ATOM      1  N   UNL     1       4.355   4.922  18.084  0.00  0.00    +0.000 N 
ATOM      2  C   UNL     1       5.215   5.296  19.068  0.00  0.00    +0.000 A 
ATOM      3  C   UNL     1       6.403   5.624  18.432  0.00  0.00    +0.000 A 
ATOM      4  C   UNL     1       6.147   5.394  17.047  0.00  0.00    +0.000 A 
ATOM      5  N   UNL     1       7.078   5.526  16.064  0.00  0.00    +0.000 N 
ATOM      6  N   UNL     1       4.893   4.977  16.872  0.00  0.00    +0.000 NA
ATOM      7  H   UNL     1       7.989   5.890  16.341  0.00  0.00    +0.000 HD
ENDROOT
BRANCH   5   8
ATOM      8  C   UNL     1       7.079   4.954  14.766  0.00  0.00    +0.000 A 
ATOM      9  C   UNL     1       7.827   5.475  13.696  0.00  0.00    +0.000 A 
ATOM     10  C   UNL     1       7.688   4.983  12.395  0.00  0.00    +0.000 A 
ATOM     11  C   UNL     1       6.802   3.948  12.154  0.00  0.00    +0.000 A 
ATOM     12  F   UNL     1       6.647   3.489  10.906  0.00  0.00    +0.000 F 
ATOM     13  C   UNL     1       6.070   3.386  13.192  0.00  0.00    +0.000 A 
ATOM     14  C   UNL     1       6.212   3.884  14.493  0.00  0.00    +0.000 A 
ENDBRANCH   5   8
BRANCH   1  20
ATOM     15  C   UNL     1       2.182   5.238  19.310  0.00  0.00    +0.000 C 
ATOM     16  C   UNL     1       2.562   4.860  20.747  0.00  0.00    +0.000 C 
ATOM     17  C   UNL     1       2.497   3.350  20.977  0.00  0.00    +0.000 C 
ATOM     18  C   UNL     1       3.250   2.537  19.927  0.00  0.00    +0.000 C 
ATOM     19  C   UNL     1       2.903   2.946  18.494  0.00  0.00    +0.000 C 
ATOM     20  C   UNL     1       2.978   4.463  18.241  0.00  0.00    +0.000 C 
BRANCH  15  22
ATOM     21  N   UNL     1       2.340   7.833  18.869  0.00  0.00    +0.000 NA
ATOM     22  C   UNL     1       2.257   6.696  19.092  0.00  0.00    +0.000 C 
ENDBRANCH  15  22
ENDBRANCH   1  20
BRANCH   3  23
ATOM     23  C   UNL     1       7.640   6.061  19.056  0.00  0.00    +0.000 C 
ATOM     24  N   UNL     1       8.078   5.308  20.110  0.00  0.00    +0.000 N 
ATOM     25  O   UNL     1       8.279   7.035  18.668  0.00  0.00    +0.000 OA
ATOM     26  H   UNL     1       7.667   4.421  20.358  0.00  0.00    +0.000 HD
ATOM     27  H   UNL     1       8.971   5.546  20.514  0.00  0.00    +0.000 HD
ENDBRANCH   3  23
TORSDOF 4
ENDMDL
MODEL 3
REMARK VINA RESULT:      -8.0      1.257      2.417
REMARK  Name = 
REMARK  4 active torsions:
REMARK  status: ('A' for Active; 'I' for Inactive)
REMARK    1  A    between atoms: C_2  and  C_3
REMARK    2  A    between atoms: C_8  and  N_9
REMARK    3  A    between atoms: C_11  and  C_12
REMARK    4  A    between atoms: N_16  and  C_17
REMARK                            x       y       z     vdW  Elec       q    Type
REMARK                         _______ _______ _______ _____ _____    ______ ____
ROOT
ATOM      1  N   UNL     1       4.512   4.679  18.966  0.00  0.00    +0.000 N 
ATOM      2  C   UNL     1       5.546   5.104  19.741  0.00  0.00    +0.000 A 
ATOM      3  C   UNL     1       6.532   5.526  18.863  0.00  0.00    +0.000 A 
ATOM      4  C   UNL     1       5.985   5.295  17.566  0.00  0.00    +0.000 A 
ATOM      5  N   UNL     1       6.657   5.507  16.402  0.00  0.00    +0.000 N 
ATOM      6  N   UNL     1       4.756   4.788  17.666  0.00  0.00    +0.000 NA
ATOM      7  H   UNL     1       7.580   5.934  16.477  0.00  0.00    +0.000 HD
ENDROOT
BRANCH   5   8
ATOM      8  C   UNL     1       6.403   4.952  15.122  0.00  0.00    +0.000 A 
ATOM      9  C   UNL     1       5.246   4.214  14.818  0.00  0.00    +0.000 A 
ATOM     10  C   UNL     1       5.097   3.552  13.597  0.00  0.00    +0.000 A 
ATOM     11  C   UNL     1       6.108   3.634  12.655  0.00  0.00    +0.000 A 
ATOM     12  F   UNL     1       5.982   2.981  11.493  0.00  0.00    +0.000 F 
ATOM     13  C   UNL     1       7.252   4.380  12.906  0.00  0.00    +0.000 A 
ATOM     14  C   UNL     1       7.396   5.040  14.133  0.00  0.00    +0.000 A 
ENDBRANCH   5   8
BRANCH   1  20
ATOM     15  C   UNL     1       3.252   2.582  19.548  0.00  0.00    +0.000 C 
ATOM     16  C   UNL     1       3.195   1.853  18.200  0.00  0.00    +0.000 C 
ATOM     17  C   UNL     1       2.031   2.339  17.337  0.00  0.00    +0.000 C 
ATOM     18  C   UNL     1       1.963   3.858  17.198  0.00  0.00    +0.000 C 
ATOM     19  C   UNL     1       2.065   4.585  18.539  0.00  0.00    +0.000 C 
ATOM     20  C   UNL     1       3.242   4.118  19.417  0.00  0.00    +0.000 C 
BRANCH  15  22
ATOM     21  N   UNL     1       5.242   1.711  21.044  0.00  0.00    +0.000 NA
ATOM     22  C   UNL     1       4.385   2.116  20.372  0.00  0.00    +0.000 C 
ENDBRANCH  15  22
ENDBRANCH   1  20
BRANCH   3  23
ATOM     23  C   UNL     1       7.846   6.047  19.204  0.00  0.00    +0.000 C 
ATOM     24  N   UNL     1       8.529   5.361  20.168  0.00  0.00    +0.000 N 
ATOM     25  O   UNL     1       8.337   7.032  18.661  0.00  0.00    +0.000 OA
ATOM     26  H   UNL     1       8.227   4.467  20.524  0.00  0.00    +0.000 HD
ATOM     27  H   UNL     1       9.472   5.657  20.371  0.00  0.00    +0.000 HD
ENDBRANCH   3  23
TORSDOF 4
ENDMDL
MODEL 4
REMARK VINA RESULT:      -7.8      3.552      6.715
REMARK  Name = 
REMARK  4 active torsions:
REMARK  status: ('A' for Active; 'I' for Inactive)
REMARK    1  A    between atoms: C_2  and  C_3
REMARK    2  A    between atoms: C_8  and  N_9
REMARK    3  A    between atoms: C_11  and  C_12
REMARK    4  A    between atoms: N_16  and  C_17
REMARK                            x       y       z     vdW  Elec       q    Type
REMARK                         _______ _______ _______ _____ _____    ______ ____
ROOT
ATOM      1  N   UNL     1       4.781   4.118  18.433  0.00  0.00    +0.000 N 
ATOM      2  C   UNL     1       4.394   3.167  19.324  0.00  0.00    +0.000 A 
ATOM      3  C   UNL     1       3.237   3.648  19.918  0.00  0.00    +0.000 A 
ATOM      4  C   UNL     1       3.022   4.922  19.311  0.00  0.00    +0.000 A 
ATOM      5  N   UNL     1       2.022   5.776  19.657  0.00  0.00    +0.000 N 
ATOM      6  N   UNL     1       3.973   5.170  18.410  0.00  0.00    +0.000 NA
ATOM      7  H   UNL     1       1.344   5.436  20.338  0.00  0.00    +0.000 HD
ENDROOT
BRANCH   5   8
ATOM      8  C   UNL     1       1.943   7.176  19.445  0.00  0.00    +0.000 A 
ATOM      9  C   UNL     1       1.467   8.076  20.414  0.00  0.00    +0.000 A 
ATOM     10  C   UNL     1       1.257   9.426  20.122  0.00  0.00    +0.000 A 
ATOM     11  C   UNL     1       1.537   9.895  18.851  0.00  0.00    +0.000 A 
ATOM     12  F   UNL     1       1.315  11.183  18.558  0.00  0.00    +0.000 F 
ATOM     13  C   UNL     1       2.040   9.043  17.876  0.00  0.00    +0.000 A 
ATOM     14  C   UNL     1       2.246   7.690  18.174  0.00  0.00    +0.000 A 
ENDBRANCH   5   8
BRANCH   1  20
ATOM     15  C   UNL     1       6.933   5.263  17.817  0.00  0.00    +0.000 C 
ATOM     16  C   UNL     1       6.440   6.600  17.251  0.00  0.00    +0.000 C 
ATOM     17  C   UNL     1       6.051   6.489  15.778  0.00  0.00    +0.000 C 
ATOM     18  C   UNL     1       5.105   5.329  15.478  0.00  0.00    +0.000 C 
ATOM     19  C   UNL     1       5.576   4.004  16.080  0.00  0.00    +0.000 C 
ATOM     20  C   UNL     1       5.958   4.094  17.570  0.00  0.00    +0.000 C 
BRANCH  15  22
ATOM     21  N   UNL     1       7.630   5.431  20.354  0.00  0.00    +0.000 NA
ATOM     22  C   UNL     1       7.297   5.374  19.243  0.00  0.00    +0.000 C 
ENDBRANCH  15  22
ENDBRANCH   1  20
BRANCH   3  23
ATOM     23  C   UNL     1       2.452   3.006  20.959  0.00  0.00    +0.000 C 
ATOM     24  N   UNL     1       1.113   2.890  20.713  0.00  0.00    +0.000 N 
ATOM     25  O   UNL     1       2.944   2.572  21.996  0.00  0.00    +0.000 OA
ATOM     26  H   UNL     1       0.701   3.094  19.816  0.00  0.00    +0.000 HD
ATOM     27  H   UNL     1       0.557   2.383  21.386  0.00  0.00    +0.000 HD
ENDBRANCH   3  23
TORSDOF 4
ENDMDL
MODEL 5
REMARK VINA RESULT:      -7.6      4.952      7.931
REMARK  Name = 
REMARK  4 active torsions:
REMARK  status: ('A' for Active; 'I' for Inactive)
REMARK    1  A    between atoms: C_2  and  C_3
REMARK    2  A    between atoms: C_8  and  N_9
REMARK    3  A    between atoms: C_11  and  C_12
REMARK    4  A    between atoms: N_16  and  C_17
REMARK                            x       y       z     vdW  Elec       q    Type
REMARK                         _______ _______ _______ _____ _____    ______ ____
ROOT
ATOM      1  N   UNL     1      -0.051  10.238  19.248  0.00  0.00    +0.000 N 
ATOM      2  C   UNL     1      -0.346  10.526  20.544  0.00  0.00    +0.000 A 
ATOM      3  C   UNL     1       0.391   9.636  21.310  0.00  0.00    +0.000 A 
ATOM      4  C   UNL     1       1.093   8.837  20.360  0.00  0.00    +0.000 A 
ATOM      5  N   UNL     1       1.889   7.782  20.685  0.00  0.00    +0.000 N 
ATOM      6  N   UNL     1       0.808   9.235  19.120  0.00  0.00    +0.000 NA
ATOM      7  H   UNL     1       2.045   7.615  21.679  0.00  0.00    +0.000 HD
ENDROOT
BRANCH   5   8
ATOM      8  C   UNL     1       2.292   6.695  19.869  0.00  0.00    +0.000 A 
ATOM      9  C   UNL     1       3.022   6.854  18.679  0.00  0.00    +0.000 A 
ATOM     10  C   UNL     1       3.270   5.781  17.820  0.00  0.00    +0.000 A 
ATOM     11  C   UNL     1       2.797   4.524  18.153  0.00  0.00    +0.000 A 
ATOM     12  F   UNL     1       3.010   3.496  17.322  0.00  0.00    +0.000 F 
ATOM     13  C   UNL     1       2.100   4.320  19.337  0.00  0.00    +0.000 A 
ATOM     14  C   UNL     1       1.853   5.401  20.193  0.00  0.00    +0.000 A 
ENDBRANCH   5   8
BRANCH   1  20
ATOM     15  C   UNL     1      -1.248  12.249  18.328  0.00  0.00    +0.000 C 
ATOM     16  C   UNL     1      -2.624  12.141  18.996  0.00  0.00    +0.000 C 
ATOM     17  C   UNL     1      -3.559  11.207  18.229  0.00  0.00    +0.000 C 
ATOM     18  C   UNL     1      -2.943   9.847  17.911  0.00  0.00    +0.000 C 
ATOM     19  C   UNL     1      -1.551   9.955  17.286  0.00  0.00    +0.000 C 
ATOM     20  C   UNL     1      -0.590  10.882  18.054  0.00  0.00    +0.000 C 
BRANCH  15  22
ATOM     21  N   UNL     1       0.366  13.883  19.624  0.00  0.00    +0.000 NA
ATOM     22  C   UNL     1      -0.346  13.144  19.079  0.00  0.00    +0.000 C 
ENDBRANCH  15  22
ENDBRANCH   1  20
BRANCH   3  23
ATOM     23  C   UNL     1       0.400   9.525  22.759  0.00  0.00    +0.000 C 
ATOM     24  N   UNL     1      -0.823   9.420  23.359  0.00  0.00    +0.000 N 
ATOM     25  O   UNL     1       1.433   9.509  23.423  0.00  0.00    +0.000 OA
ATOM     26  H   UNL     1      -1.677   9.277  22.842  0.00  0.00    +0.000 HD
ATOM     27  H   UNL     1      -0.842   9.269  24.357  0.00  0.00    +0.000 HD
ENDBRANCH   3  23
TORSDOF 4
ENDMDL
MODEL 6
REMARK VINA RESULT:      -7.5      4.967      7.831
REMARK  Name = 
REMARK  4 active torsions:
REMARK  status: ('A' for Active; 'I' for Inactive)
REMARK    1  A    between atoms: C_2  and  C_3
REMARK    2  A    between atoms: C_8  and  N_9
REMARK    3  A    between atoms: C_11  and  C_12
REMARK    4  A    between atoms: N_16  and  C_17
REMARK                            x       y       z     vdW  Elec       q    Type
REMARK                         _______ _______ _______ _____ _____    ______ ____
ROOT
ATOM      1  N   UNL     1      -0.147  10.266  19.174  0.00  0.00    +0.000 N 
ATOM      2  C   UNL     1      -0.426  10.533  20.477  0.00  0.00    +0.000 A 
ATOM      3  C   UNL     1       0.350   9.657  21.221  0.00  0.00    +0.000 A 
ATOM      4  C   UNL     1       1.058   8.888  20.250  0.00  0.00    +0.000 A 
ATOM      5  N   UNL     1       1.890   7.854  20.550  0.00  0.00    +0.000 N 
ATOM      6  N   UNL     1       0.738   9.290  19.019  0.00  0.00    +0.000 NA
ATOM      7  H   UNL     1       2.069   7.683  21.539  0.00  0.00    +0.000 HD
ENDROOT
BRANCH   5   8
ATOM      8  C   UNL     1       2.309   6.787  19.716  0.00  0.00    +0.000 A 
ATOM      9  C   UNL     1       2.149   5.433  20.058  0.00  0.00    +0.000 A 
ATOM     10  C   UNL     1       2.710   4.410  19.288  0.00  0.00    +0.000 A 
ATOM     11  C   UNL     1       3.429   4.735  18.152  0.00  0.00    +0.000 A 
ATOM     12  F   UNL     1       3.989   3.760  17.424  0.00  0.00    +0.000 F 
ATOM     13  C   UNL     1       3.581   6.060  17.764  0.00  0.00    +0.000 A 
ATOM     14  C   UNL     1       3.019   7.080  18.540  0.00  0.00    +0.000 A 
ENDBRANCH   5   8
BRANCH   1  20
ATOM     15  C   UNL     1      -1.451  12.232  18.302  0.00  0.00    +0.000 C 
ATOM     16  C   UNL     1      -2.815  12.042  18.976  0.00  0.00    +0.000 C 
ATOM     17  C   UNL     1      -3.708  11.077  18.197  0.00  0.00    +0.000 C 
ATOM     18  C   UNL     1      -3.026   9.756  17.848  0.00  0.00    +0.000 C 
ATOM     19  C   UNL     1      -1.646   9.947  17.216  0.00  0.00    +0.000 C 
ATOM     20  C   UNL     1      -0.727  10.906  17.996  0.00  0.00    +0.000 C 
BRANCH  15  22
ATOM     21  N   UNL     1       0.053  13.926  19.652  0.00  0.00    +0.000 NA
ATOM     22  C   UNL     1      -0.589  13.156  19.064  0.00  0.00    +0.000 C 
ENDBRANCH  15  22
ENDBRANCH   1  20
BRANCH   3  23
ATOM     23  C   UNL     1       0.390   9.533  22.668  0.00  0.00    +0.000 C 
ATOM     24  N   UNL     1      -0.815   9.343  23.286  0.00  0.00    +0.000 N 
ATOM     25  O   UNL     1       1.431   9.576  23.316  0.00  0.00    +0.000 OA
ATOM     26  H   UNL     1      -1.666   9.150  22.780  0.00  0.00    +0.000 HD
ATOM     27  H   UNL     1      -0.808   9.181  24.282  0.00  0.00    +0.000 HD
ENDBRANCH   3  23
TORSDOF 4
ENDMDL
MODEL 7
REMARK VINA RESULT:      -7.2      1.262      1.394
REMARK  Name = 
REMARK  4 active torsions:
REMARK  status: ('A' for Active; 'I' for Inactive)
REMARK    1  A    between atoms: C_2  and  C_3
REMARK    2  A    between atoms: C_8  and  N_9
REMARK    3  A    between atoms: C_11  and  C_12
REMARK    4  A    between atoms: N_16  and  C_17
REMARK                            x       y       z     vdW  Elec       q    Type
REMARK                         _______ _______ _______ _____ _____    ______ ____
ROOT
ATOM      1  N   UNL     1       4.606   3.543  18.231  0.00  0.00    +0.000 N 
ATOM      2  C   UNL     1       5.381   4.221  19.118  0.00  0.00    +0.000 A 
ATOM      3  C   UNL     1       6.197   5.046  18.360  0.00  0.00    +0.000 A 
ATOM      4  C   UNL     1       5.834   4.770  17.008  0.00  0.00    +0.000 A 
ATOM      5  N   UNL     1       6.446   5.318  15.924  0.00  0.00    +0.000 N 
ATOM      6  N   UNL     1       4.861   3.859  16.967  0.00  0.00    +0.000 NA
ATOM      7  H   UNL     1       7.152   6.030  16.107  0.00  0.00    +0.000 HD
ENDROOT
BRANCH   5   8
ATOM      8  C   UNL     1       6.470   4.842  14.589  0.00  0.00    +0.000 A 
ATOM      9  C   UNL     1       5.528   3.932  14.078  0.00  0.00    +0.000 A 
ATOM     10  C   UNL     1       5.668   3.364  12.809  0.00  0.00    +0.000 A 
ATOM     11  C   UNL     1       6.755   3.715  12.027  0.00  0.00    +0.000 A 
ATOM     12  F   UNL     1       6.908   3.156  10.820  0.00  0.00    +0.000 F 
ATOM     13  C   UNL     1       7.689   4.635  12.484  0.00  0.00    +0.000 A 
ATOM     14  C   UNL     1       7.544   5.199  13.758  0.00  0.00    +0.000 A 
ENDBRANCH   5   8
BRANCH   1  20
ATOM     15  C   UNL     1       2.238   3.119  18.961  0.00  0.00    +0.000 C 
ATOM     16  C   UNL     1       2.236   3.668  20.393  0.00  0.00    +0.000 C 
ATOM     17  C   UNL     1       2.753   2.641  21.400  0.00  0.00    +0.000 C 
ATOM     18  C   UNL     1       4.086   2.011  21.003  0.00  0.00    +0.000 C 
ATOM     19  C   UNL     1       4.100   1.504  19.561  0.00  0.00    +0.000 C 
ATOM     20  C   UNL     1       3.596   2.532  18.530  0.00  0.00    +0.000 C 
BRANCH  15  22
ATOM     21  N   UNL     1       1.336   4.865  17.202  0.00  0.00    +0.000 NA
ATOM     22  C   UNL     1       1.748   4.120  17.993  0.00  0.00    +0.000 C 
ENDBRANCH  15  22
ENDBRANCH   1  20
BRANCH   3  23
ATOM     23  C   UNL     1       7.222   5.954  18.847  0.00  0.00    +0.000 C 
ATOM     24  N   UNL     1       7.870   5.569  19.988  0.00  0.00    +0.000 N 
ATOM     25  O   UNL     1       7.516   7.000  18.277  0.00  0.00    +0.000 OA
ATOM     26  H   UNL     1       7.764   4.652  20.395  0.00  0.00    +0.000 HD
ATOM     27  H   UNL     1       8.635   6.144  20.307  0.00  0.00    +0.000 HD
ENDBRANCH   3  23
TORSDOF 4
ENDMDL
MODEL 8
REMARK VINA RESULT:      -7.0      4.078      7.317
REMARK  Name = 
REMARK  4 active torsions:
REMARK  status: ('A' for Active; 'I' for Inactive)
REMARK    1  A    between atoms: C_2  and  C_3
REMARK    2  A    between atoms: C_8  and  N_9
REMARK    3  A    between atoms: C_11  and  C_12
REMARK    4  A    between atoms: N_16  and  C_17
REMARK                            x       y       z     vdW  Elec       q    Type
REMARK                         _______ _______ _______ _____ _____    ______ ____
ROOT
ATOM      1  N   UNL     1       4.753   6.307  17.217  0.00  0.00    +0.000 N 
ATOM      2  C   UNL     1       4.184   5.091  17.436  0.00  0.00    +0.000 A 
ATOM      3  C   UNL     1       2.894   5.346  17.874  0.00  0.00    +0.000 A 
ATOM      4  C   UNL     1       2.794   6.769  17.895  0.00  0.00    +0.000 A 
ATOM      5  N   UNL     1       1.704   7.454  18.335  0.00  0.00    +0.000 N 
ATOM      6  N   UNL     1       3.937   7.319  17.484  0.00  0.00    +0.000 NA
ATOM      7  H   UNL     1       0.885   6.900  18.587  0.00  0.00    +0.000 HD
ENDROOT
BRANCH   5   8
ATOM      8  C   UNL     1       1.626   8.796  18.786  0.00  0.00    +0.000 A 
ATOM      9  C   UNL     1       1.089   9.160  20.032  0.00  0.00    +0.000 A 
ATOM     10  C   UNL     1       0.885  10.498  20.382  0.00  0.00    +0.000 A 
ATOM     11  C   UNL     1       1.234  11.492  19.485  0.00  0.00    +0.000 A 
ATOM     12  F   UNL     1       1.019  12.775  19.804  0.00  0.00    +0.000 F 
ATOM     13  C   UNL     1       1.798  11.172  18.257  0.00  0.00    +0.000 A 
ATOM     14  C   UNL     1       1.998   9.830  17.912  0.00  0.00    +0.000 A 
ENDBRANCH   5   8
BRANCH   1  20
ATOM     15  C   UNL     1       6.795   5.378  16.081  0.00  0.00    +0.000 C 
ATOM     16  C   UNL     1       7.243   4.287  17.061  0.00  0.00    +0.000 C 
ATOM     17  C   UNL     1       8.103   4.852  18.191  0.00  0.00    +0.000 C 
ATOM     18  C   UNL     1       7.483   6.061  18.887  0.00  0.00    +0.000 C 
ATOM     19  C   UNL     1       6.996   7.129  17.906  0.00  0.00    +0.000 C 
ATOM     20  C   UNL     1       6.115   6.579  16.768  0.00  0.00    +0.000 C 
BRANCH  15  22
ATOM     21  N   UNL     1       5.342   4.390  14.114  0.00  0.00    +0.000 NA
ATOM     22  C   UNL     1       5.956   4.827  14.998  0.00  0.00    +0.000 C 
ENDBRANCH  15  22
ENDBRANCH   1  20
BRANCH   3  23
ATOM     23  C   UNL     1       1.891   4.369  18.263  0.00  0.00    +0.000 C 
ATOM     24  N   UNL     1       1.806   4.099  19.600  0.00  0.00    +0.000 N 
ATOM     25  O   UNL     1       1.144   3.820  17.459  0.00  0.00    +0.000 OA
ATOM     26  H   UNL     1       2.292   4.637  20.300  0.00  0.00    +0.000 HD
ATOM     27  H   UNL     1       1.070   3.479  19.905  0.00  0.00    +0.000 HD
ENDBRANCH   3  23
TORSDOF 4
ENDMDL
MODEL 9
REMARK VINA RESULT:      -6.9      3.940      6.356
REMARK  Name = 
REMARK  4 active torsions:
REMARK  status: ('A' for Active; 'I' for Inactive)
REMARK    1  A    between atoms: C_2  and  C_3
REMARK    2  A    between atoms: C_8  and  N_9
REMARK    3  A    between atoms: C_11  and  C_12
REMARK    4  A    between atoms: N_16  and  C_17
REMARK                            x       y       z     vdW  Elec       q    Type
REMARK                         _______ _______ _______ _____ _____    ______ ____
ROOT
ATOM      1  N   UNL     1       3.805   4.516  19.085  0.00  0.00    +0.000 N 
ATOM      2  C   UNL     1       4.683   4.503  18.047  0.00  0.00    +0.000 A 
ATOM      3  C   UNL     1       4.660   5.782  17.511  0.00  0.00    +0.000 A 
ATOM      4  C   UNL     1       3.710   6.489  18.306  0.00  0.00    +0.000 A 
ATOM      5  N   UNL     1       3.325   7.774  18.076  0.00  0.00    +0.000 N 
ATOM      6  N   UNL     1       3.217   5.694  19.255  0.00  0.00    +0.000 NA
ATOM      7  H   UNL     1       3.815   8.274  17.335  0.00  0.00    +0.000 HD
ENDROOT
BRANCH   5   8
ATOM      8  C   UNL     1       2.144   8.432  18.503  0.00  0.00    +0.000 A 
ATOM      9  C   UNL     1       1.348   9.216  17.650  0.00  0.00    +0.000 A 
ATOM     10  C   UNL     1       0.278   9.974  18.135  0.00  0.00    +0.000 A 
ATOM     11  C   UNL     1      -0.015   9.943  19.487  0.00  0.00    +0.000 A 
ATOM     12  F   UNL     1      -1.023  10.687  19.961  0.00  0.00    +0.000 F 
ATOM     13  C   UNL     1       0.728   9.155  20.356  0.00  0.00    +0.000 A 
ATOM     14  C   UNL     1       1.800   8.399  19.864  0.00  0.00    +0.000 A 
ENDBRANCH   5   8
BRANCH   1  20
ATOM     15  C   UNL     1       2.805   2.212  19.220  0.00  0.00    +0.000 C 
ATOM     16  C   UNL     1       1.349   2.466  18.812  0.00  0.00    +0.000 C 
ATOM     17  C   UNL     1       0.497   2.928  19.992  0.00  0.00    +0.000 C 
ATOM     18  C   UNL     1       1.108   4.090  20.773  0.00  0.00    +0.000 C 
ATOM     19  C   UNL     1       2.574   3.855  21.141  0.00  0.00    +0.000 C 
ATOM     20  C   UNL     1       3.452   3.401  19.959  0.00  0.00    +0.000 C 
BRANCH  15  22
ATOM     21  N   UNL     1       4.224   1.417  17.144  0.00  0.00    +0.000 NA
ATOM     22  C   UNL     1       3.626   1.776  18.073  0.00  0.00    +0.000 C 
ENDBRANCH  15  22
ENDBRANCH   1  20
BRANCH   3  23
ATOM     23  C   UNL     1       5.412   6.266  16.366  0.00  0.00    +0.000 C 
ATOM     24  N   UNL     1       6.732   5.913  16.323  0.00  0.00    +0.000 N 
ATOM     25  O   UNL     1       4.909   6.940  15.472  0.00  0.00    +0.000 OA
ATOM     26  H   UNL     1       7.139   5.239  16.953  0.00  0.00    +0.000 HD
ATOM     27  H   UNL     1       7.258   6.174  15.503  0.00  0.00    +0.000 HD
ENDBRANCH   3  23
TORSDOF 4
ENDMDL
