MODEL 1
REMARK VINA RESULT:      -7.4      0.000      0.000
REMARK  Name = 
REMARK  6 active torsions:
REMARK  status: ('A' for Active; 'I' for Inactive)
REMARK    1  A    between atoms: C_1  and  N_2
REMARK    2  A    between atoms: C_6  and  C_8
REMARK    3  A    between atoms: C_8  and  N_9
REMARK    4  A    between atoms: C_8  and  C_16
REMARK    5  A    between atoms: N_9  and  C_10
REMARK    6  A    between atoms: C_10  and  C_11
REMARK                            x       y       z     vdW  Elec       q    Type
REMARK                         _______ _______ _______ _____ _____    ______ ____
ROOT
ATOM      1  C   UNL     1       3.651   5.500  18.558  0.00  0.00    +0.000 C 
ENDROOT
BRANCH   1   7
ATOM      2  C   UNL     1       0.481  10.195  19.780  0.00  0.00    +0.000 C 
ATOM      3  N   UNL     1       1.303   9.051  19.506  0.00  0.00    +0.000 N 
ATOM      4  C   UNL     1       1.636   8.127  20.446  0.00  0.00    +0.000 C 
ATOM      5  O   UNL     1       1.300   8.195  21.626  0.00  0.00    +0.000 OA
ATOM      6  N   UNL     1       2.378   7.060  20.005  0.00  0.00    +0.000 N 
ATOM      7  C   UNL     1       2.811   6.800  18.713  0.00  0.00    +0.000 C 
ATOM      8  O   UNL     1       2.601   7.561  17.764  0.00  0.00    +0.000 OA
ATOM      9  H   UNL     1       1.723   8.946  18.583  0.00  0.00    +0.000 HD
ATOM     10  H   UNL     1       2.591   6.406  20.741  0.00  0.00    +0.000 HD
ENDBRANCH   1   7
BRANCH   1  11
ATOM     11  C   UNL     1       5.116   5.868  18.388  0.00  0.00    +0.000 A 
ATOM     12  C   UNL     1       5.512   6.758  17.379  0.00  0.00    +0.000 A 
ATOM     13  C   UNL     1       6.848   7.142  17.262  0.00  0.00    +0.000 A 
ATOM     14  C   UNL     1       7.802   6.643  18.149  0.00  0.00    +0.000 A 
ATOM     15  C   UNL     1       7.425   5.749  19.147  0.00  0.00    +0.000 A 
ATOM     16  C   UNL     1       6.092   5.360  19.264  0.00  0.00    +0.000 A 
ENDBRANCH   1  11
BRANCH   1  17
ATOM     17  N   UNL     1       3.101   4.739  17.414  0.00  0.00    +0.000 NA
ATOM     18  H   UNL     1       3.747   4.837  16.629  0.00  0.00    +0.000 HD
BRANCH  17  19
ATOM     19  C   UNL     1       2.895   3.319  17.691  0.00  0.00    +0.000 C 
BRANCH  19  20
ATOM     20  C   UNL     1       2.453   3.133  19.115  0.00  0.00    +0.000 A 
ATOM     21  C   UNL     1       1.207   3.359  19.668  0.00  0.00    +0.000 A 
ATOM     22  C   UNL     1       1.165   3.065  21.062  0.00  0.00    +0.000 A 
ATOM     23  C   UNL     1       2.382   2.628  21.530  0.00  0.00    +0.000 A 
ATOM     24  S   UNL     1       3.564   2.571  20.298  0.00  0.00    +0.000 S 
ENDBRANCH  19  20
ENDBRANCH  17  19
ENDBRANCH   1  17
TORSDOF 5
ENDMDL
MODEL 2
REMARK VINA RESULT:      -7.4      0.320      1.101
REMARK  Name = 
REMARK  6 active torsions:
REMARK  status: ('A' for Active; 'I' for Inactive)
REMARK    1  A    between atoms: C_1  and  N_2
REMARK    2  A    between atoms: C_6  and  C_8
REMARK    3  A    between atoms: C_8  and  N_9
REMARK    4  A    between atoms: C_8  and  C_16
REMARK    5  A    between atoms: N_9  and  C_10
REMARK    6  A    between atoms: C_10  and  C_11
REMARK                            x       y       z     vdW  Elec       q    Type
REMARK                         _______ _______ _______ _____ _____    ______ ____
ROOT
ATOM      1  C   UNL     1       3.332   5.573  18.663  0.00  0.00    +0.000 C 
ENDROOT
BRANCH   1   7
ATOM      2  C   UNL     1       0.376  10.360  20.054  0.00  0.00    +0.000 C 
ATOM      3  N   UNL     1       1.148   9.192  19.735  0.00  0.00    +0.000 N 
ATOM      4  C   UNL     1       1.538   8.277  20.661  0.00  0.00    +0.000 C 
ATOM      5  O   UNL     1       1.303   8.373  21.863  0.00  0.00    +0.000 OA
ATOM      6  N   UNL     1       2.218   7.186  20.181  0.00  0.00    +0.000 N 
ATOM      7  C   UNL     1       2.536   6.894  18.862  0.00  0.00    +0.000 C 
ATOM      8  O   UNL     1       2.264   7.644  17.920  0.00  0.00    +0.000 OA
ATOM      9  H   UNL     1       1.488   9.062  18.782  0.00  0.00    +0.000 HD
ATOM     10  H   UNL     1       2.478   6.541  20.909  0.00  0.00    +0.000 HD
ENDBRANCH   1   7
BRANCH   1  11
ATOM     11  C   UNL     1       4.796   5.902  18.416  0.00  0.00    +0.000 A 
ATOM     12  C   UNL     1       5.793   5.379  19.253  0.00  0.00    +0.000 A 
ATOM     13  C   UNL     1       7.140   5.633  18.990  0.00  0.00    +0.000 A 
ATOM     14  C   UNL     1       7.505   6.409  17.890  0.00  0.00    +0.000 A 
ATOM     15  C   UNL     1       6.525   6.945  17.059  0.00  0.00    +0.000 A 
ATOM     16  C   UNL     1       5.180   6.697  17.321  0.00  0.00    +0.000 A 
ENDBRANCH   1  11
BRANCH   1  17
ATOM     17  N   UNL     1       2.704   4.829  17.550  0.00  0.00    +0.000 NA
ATOM     18  H   UNL     1       3.265   4.982  16.709  0.00  0.00    +0.000 HD
BRANCH  17  19
ATOM     19  C   UNL     1       2.584   3.392  17.790  0.00  0.00    +0.000 C 
BRANCH  19  20
ATOM     20  C   UNL     1       2.273   3.139  19.238  0.00  0.00    +0.000 A 
ATOM     21  C   UNL     1       1.075   3.310  19.905  0.00  0.00    +0.000 A 
ATOM     22  C   UNL     1       1.162   2.961  21.284  0.00  0.00    +0.000 A 
ATOM     23  C   UNL     1       2.424   2.537  21.627  0.00  0.00    +0.000 A 
ATOM     24  S   UNL     1       3.495   2.559  20.295  0.00  0.00    +0.000 S 
ENDBRANCH  19  20
ENDBRANCH  17  19
ENDBRANCH   1  17
TORSDOF 5
ENDMDL
MODEL 3
REMARK VINA RESULT:      -7.3      1.916      4.537
REMARK  Name = 
REMARK  6 active torsions:
REMARK  status: ('A' for Active; 'I' for Inactive)
REMARK    1  A    between atoms: C_1  and  N_2
REMARK    2  A    between atoms: C_6  and  C_8
REMARK    3  A    between atoms: C_8  and  N_9
REMARK    4  A    between atoms: C_8  and  C_16
REMARK    5  A    between atoms: N_9  and  C_10
REMARK    6  A    between atoms: C_10  and  C_11
REMARK                            x       y       z     vdW  Elec       q    Type
REMARK                         _______ _______ _______ _____ _____    ______ ____
ROOT
ATOM      1  C   UNL     1       3.137   5.809  18.796  0.00  0.00    +0.000 C 
ENDROOT
BRANCH   1   7
ATOM      2  C   UNL     1       0.298  10.641  20.274  0.00  0.00    +0.000 C 
ATOM      3  N   UNL     1       1.042   9.462  19.932  0.00  0.00    +0.000 N 
ATOM      4  C   UNL     1       1.450   8.543  20.847  0.00  0.00    +0.000 C 
ATOM      5  O   UNL     1       1.258   8.645  22.056  0.00  0.00    +0.000 OA
ATOM      6  N   UNL     1       2.098   7.441  20.346  0.00  0.00    +0.000 N 
ATOM      7  C   UNL     1       2.367   7.142  19.018  0.00  0.00    +0.000 C 
ATOM      8  O   UNL     1       2.073   7.893  18.084  0.00  0.00    +0.000 OA
ATOM      9  H   UNL     1       1.346   9.324  18.968  0.00  0.00    +0.000 HD
ATOM     10  H   UNL     1       2.373   6.794  21.067  0.00  0.00    +0.000 HD
ENDBRANCH   1   7
BRANCH   1  11
ATOM     11  C   UNL     1       2.254   4.645  19.221  0.00  0.00    +0.000 A 
ATOM     12  C   UNL     1       1.607   3.857  18.258  0.00  0.00    +0.000 A 
ATOM     13  C   UNL     1       0.847   2.753  18.646  0.00  0.00    +0.000 A 
ATOM     14  C   UNL     1       0.726   2.424  19.996  0.00  0.00    +0.000 A 
ATOM     15  C   UNL     1       1.353   3.205  20.963  0.00  0.00    +0.000 A 
ATOM     16  C   UNL     1       2.109   4.311  20.579  0.00  0.00    +0.000 A 
ENDBRANCH   1  11
BRANCH   1  17
ATOM     17  N   UNL     1       4.406   5.888  19.553  0.00  0.00    +0.000 NA
ATOM     18  H   UNL     1       4.190   5.787  20.547  0.00  0.00    +0.000 HD
BRANCH  17  19
ATOM     19  C   UNL     1       5.388   4.874  19.171  0.00  0.00    +0.000 C 
BRANCH  19  20
ATOM     20  C   UNL     1       5.550   4.856  17.677  0.00  0.00    +0.000 A 
ATOM     21  C   UNL     1       5.053   3.943  16.767  0.00  0.00    +0.000 A 
ATOM     22  C   UNL     1       5.414   4.258  15.424  0.00  0.00    +0.000 A 
ATOM     23  C   UNL     1       6.177   5.399  15.352  0.00  0.00    +0.000 A 
ATOM     24  S   UNL     1       6.455   6.086  16.892  0.00  0.00    +0.000 S 
ENDBRANCH  19  20
ENDBRANCH  17  19
ENDBRANCH   1  17
TORSDOF 5
ENDMDL
MODEL 4
REMARK VINA RESULT:      -7.3      2.932      5.987
REMARK  Name = 
REMARK  6 active torsions:
REMARK  status: ('A' for Active; 'I' for Inactive)
REMARK    1  A    between atoms: C_1  and  N_2
REMARK    2  A    between atoms: C_6  and  C_8
REMARK    3  A    between atoms: C_8  and  N_9
REMARK    4  A    between atoms: C_8  and  C_16
REMARK    5  A    between atoms: N_9  and  C_10
REMARK    6  A    between atoms: C_10  and  C_11
REMARK                            x       y       z     vdW  Elec       q    Type
REMARK                         _______ _______ _______ _____ _____    ______ ____
ROOT
ATOM      1  C   UNL     1       3.073   6.118  19.063  0.00  0.00    +0.000 C 
ENDROOT
BRANCH   1   7
ATOM      2  C   UNL     1       7.075   4.707  15.115  0.00  0.00    +0.000 C 
ATOM      3  N   UNL     1       6.109   5.099  16.102  0.00  0.00    +0.000 N 
ATOM      4  C   UNL     1       5.254   6.143  15.937  0.00  0.00    +0.000 C 
ATOM      5  O   UNL     1       5.245   6.875  14.950  0.00  0.00    +0.000 OA
ATOM      6  N   UNL     1       4.350   6.347  16.950  0.00  0.00    +0.000 N 
ATOM      7  C   UNL     1       4.191   5.603  18.111  0.00  0.00    +0.000 C 
ATOM      8  O   UNL     1       4.909   4.643  18.401  0.00  0.00    +0.000 OA
ATOM      9  H   UNL     1       6.095   4.625  17.005  0.00  0.00    +0.000 HD
ATOM     10  H   UNL     1       3.741   7.129  16.773  0.00  0.00    +0.000 HD
ENDBRANCH   1   7
BRANCH   1  11
ATOM     11  C   UNL     1       2.362   4.928  19.689  0.00  0.00    +0.000 A 
ATOM     12  C   UNL     1       1.519   4.117  18.915  0.00  0.00    +0.000 A 
ATOM     13  C   UNL     1       0.915   2.991  19.476  0.00  0.00    +0.000 A 
ATOM     14  C   UNL     1       1.147   2.663  20.811  0.00  0.00    +0.000 A 
ATOM     15  C   UNL     1       1.972   3.466  21.594  0.00  0.00    +0.000 A 
ATOM     16  C   UNL     1       2.573   4.593  21.039  0.00  0.00    +0.000 A 
ENDBRANCH   1  11
BRANCH   1  17
ATOM     17  N   UNL     1       2.174   6.989  18.275  0.00  0.00    +0.000 NA
ATOM     18  H   UNL     1       1.210   6.708  18.469  0.00  0.00    +0.000 HD
BRANCH  17  19
ATOM     19  C   UNL     1       2.325   8.414  18.565  0.00  0.00    +0.000 C 
BRANCH  19  20
ATOM     20  C   UNL     1       1.386   8.814  19.668  0.00  0.00    +0.000 A 
ATOM     21  C   UNL     1       1.273   8.282  20.939  0.00  0.00    +0.000 A 
ATOM     22  C   UNL     1       0.265   8.927  21.713  0.00  0.00    +0.000 A 
ATOM     23  C   UNL     1      -0.361   9.928  21.009  0.00  0.00    +0.000 A 
ATOM     24  S   UNL     1       0.264  10.090  19.427  0.00  0.00    +0.000 S 
ENDBRANCH  19  20
ENDBRANCH  17  19
ENDBRANCH   1  17
TORSDOF 5
ENDMDL
MODEL 5
REMARK VINA RESULT:      -7.3      3.775      5.557
REMARK  Name = 
REMARK  6 active torsions:
REMARK  status: ('A' for Active; 'I' for Inactive)
REMARK    1  A    between atoms: C_1  and  N_2
REMARK    2  A    between atoms: C_6  and  C_8
REMARK    3  A    between atoms: C_8  and  N_9
REMARK    4  A    between atoms: C_8  and  C_16
REMARK    5  A    between atoms: N_9  and  C_10
REMARK    6  A    between atoms: C_10  and  C_11
REMARK                            x       y       z     vdW  Elec       q    Type
REMARK                         _______ _______ _______ _____ _____    ______ ____
ROOT
ATOM      1  C   UNL     1       5.227   4.742  16.389  0.00  0.00    +0.000 C 
ENDROOT
BRANCH   1   7
ATOM      2  C   UNL     1       7.098   2.586  11.345  0.00  0.00    +0.000 C 
ATOM      3  N   UNL     1       6.627   3.164  12.571  0.00  0.00    +0.000 N 
ATOM      4  C   UNL     1       5.338   3.544  12.773  0.00  0.00    +0.000 C 
ATOM      5  O   UNL     1       4.457   3.466  11.919  0.00  0.00    +0.000 OA
ATOM      6  N   UNL     1       5.038   4.022  14.024  0.00  0.00    +0.000 N 
ATOM      7  C   UNL     1       5.889   4.145  15.114  0.00  0.00    +0.000 C 
ATOM      8  O   UNL     1       7.088   3.859  15.070  0.00  0.00    +0.000 OA
ATOM      9  H   UNL     1       7.293   3.371  13.316  0.00  0.00    +0.000 HD
ATOM     10  H   UNL     1       4.071   4.284  14.117  0.00  0.00    +0.000 HD
ENDBRANCH   1   7
BRANCH   1  11
ATOM     11  C   UNL     1       6.267   5.531  17.169  0.00  0.00    +0.000 A 
ATOM     12  C   UNL     1       6.586   6.845  16.799  0.00  0.00    +0.000 A 
ATOM     13  C   UNL     1       7.496   7.589  17.552  0.00  0.00    +0.000 A 
ATOM     14  C   UNL     1       8.094   7.030  18.680  0.00  0.00    +0.000 A 
ATOM     15  C   UNL     1       7.796   5.722  19.052  0.00  0.00    +0.000 A 
ATOM     16  C   UNL     1       6.892   4.975  18.300  0.00  0.00    +0.000 A 
ENDBRANCH   1  11
BRANCH   1  17
ATOM     17  N   UNL     1       4.640   3.624  17.160  0.00  0.00    +0.000 NA
ATOM     18  H   UNL     1       4.992   3.680  18.118  0.00  0.00    +0.000 HD
BRANCH  17  19
ATOM     19  C   UNL     1       3.178   3.625  17.186  0.00  0.00    +0.000 C 
BRANCH  19  20
ATOM     20  C   UNL     1       2.691   3.488  18.600  0.00  0.00    +0.000 A 
ATOM     21  C   UNL     1       1.457   3.822  19.123  0.00  0.00    +0.000 A 
ATOM     22  C   UNL     1       1.359   3.543  20.517  0.00  0.00    +0.000 A 
ATOM     23  C   UNL     1       2.524   3.008  21.016  0.00  0.00    +0.000 A 
ATOM     24  S   UNL     1       3.724   2.842  19.811  0.00  0.00    +0.000 S 
ENDBRANCH  19  20
ENDBRANCH  17  19
ENDBRANCH   1  17
TORSDOF 5
ENDMDL
MODEL 6
REMARK VINA RESULT:      -7.3      2.106      4.734
REMARK  Name = 
REMARK  6 active torsions:
REMARK  status: ('A' for Active; 'I' for Inactive)
REMARK    1  A    between atoms: C_1  and  N_2
REMARK    2  A    between atoms: C_6  and  C_8
REMARK    3  A    between atoms: C_8  and  N_9
REMARK    4  A    between atoms: C_8  and  C_16
REMARK    5  A    between atoms: N_9  and  C_10
REMARK    6  A    between atoms: C_10  and  C_11
REMARK                            x       y       z     vdW  Elec       q    Type
REMARK                         _______ _______ _______ _____ _____    ______ ____
ROOT
ATOM      1  C   UNL     1       3.155   5.744  18.883  0.00  0.00    +0.000 C 
ENDROOT
BRANCH   1   7
ATOM      2  C   UNL     1       0.594  10.875  19.721  0.00  0.00    +0.000 C 
ATOM      3  N   UNL     1       1.193   9.594  19.478  0.00  0.00    +0.000 N 
ATOM      4  C   UNL     1       1.836   9.276  18.323  0.00  0.00    +0.000 C 
ATOM      5  O   UNL     1       1.936  10.034  17.361  0.00  0.00    +0.000 OA
ATOM      6  N   UNL     1       2.408   8.029  18.276  0.00  0.00    +0.000 N 
ATOM      7  C   UNL     1       2.427   7.063  19.272  0.00  0.00    +0.000 C 
ATOM      8  O   UNL     1       1.868   7.207  20.363  0.00  0.00    +0.000 OA
ATOM      9  H   UNL     1       1.083   8.851  20.168  0.00  0.00    +0.000 HD
ATOM     10  H   UNL     1       2.872   7.849  17.401  0.00  0.00    +0.000 HD
ENDBRANCH   1   7
BRANCH   1  11
ATOM     11  C   UNL     1       2.277   4.560  19.257  0.00  0.00    +0.000 A 
ATOM     12  C   UNL     1       1.646   3.802  18.259  0.00  0.00    +0.000 A 
ATOM     13  C   UNL     1       0.890   2.679  18.599  0.00  0.00    +0.000 A 
ATOM     14  C   UNL     1       0.757   2.302  19.935  0.00  0.00    +0.000 A 
ATOM     15  C   UNL     1       1.369   3.052  20.936  0.00  0.00    +0.000 A 
ATOM     16  C   UNL     1       2.120   4.176  20.600  0.00  0.00    +0.000 A 
ENDBRANCH   1  11
BRANCH   1  17
ATOM     17  N   UNL     1       4.470   5.736  19.562  0.00  0.00    +0.000 NA
ATOM     18  H   UNL     1       4.307   5.660  20.569  0.00  0.00    +0.000 HD
BRANCH  17  19
ATOM     19  C   UNL     1       5.349   4.648  19.137  0.00  0.00    +0.000 C 
BRANCH  19  20
ATOM     20  C   UNL     1       5.561   4.713  17.650  0.00  0.00    +0.000 A 
ATOM     21  C   UNL     1       5.031   3.897  16.669  0.00  0.00    +0.000 A 
ATOM     22  C   UNL     1       5.458   4.268  15.361  0.00  0.00    +0.000 A 
ATOM     23  C   UNL     1       6.302   5.353  15.385  0.00  0.00    +0.000 A 
ATOM     24  S   UNL     1       6.577   5.920  16.974  0.00  0.00    +0.000 S 
ENDBRANCH  19  20
ENDBRANCH  17  19
ENDBRANCH   1  17
TORSDOF 5
ENDMDL
MODEL 7
REMARK VINA RESULT:      -7.3      1.981      4.639
REMARK  Name = 
REMARK  6 active torsions:
REMARK  status: ('A' for Active; 'I' for Inactive)
REMARK    1  A    between atoms: C_1  and  N_2
REMARK    2  A    between atoms: C_6  and  C_8
REMARK    3  A    between atoms: C_8  and  N_9
REMARK    4  A    between atoms: C_8  and  C_16
REMARK    5  A    between atoms: N_9  and  C_10
REMARK    6  A    between atoms: C_10  and  C_11
REMARK                            x       y       z     vdW  Elec       q    Type
REMARK                         _______ _______ _______ _____ _____    ______ ____
ROOT
ATOM      1  C   UNL     1       3.281   5.759  18.524  0.00  0.00    +0.000 C 
ENDROOT
BRANCH   1   7
ATOM      2  C   UNL     1       0.360  10.535  20.019  0.00  0.00    +0.000 C 
ATOM      3  N   UNL     1       1.123   9.370  19.674  0.00  0.00    +0.000 N 
ATOM      4  C   UNL     1       1.509   8.433  20.580  0.00  0.00    +0.000 C 
ATOM      5  O   UNL     1       1.277   8.506  21.785  0.00  0.00    +0.000 OA
ATOM      6  N   UNL     1       2.181   7.348  20.076  0.00  0.00    +0.000 N 
ATOM      7  C   UNL     1       2.495   7.082  18.751  0.00  0.00    +0.000 C 
ATOM      8  O   UNL     1       2.225   7.852  17.825  0.00  0.00    +0.000 OA
ATOM      9  H   UNL     1       1.460   9.257  18.718  0.00  0.00    +0.000 HD
ATOM     10  H   UNL     1       2.438   6.686  20.790  0.00  0.00    +0.000 HD
ENDBRANCH   1   7
BRANCH   1  11
ATOM     11  C   UNL     1       2.448   4.589  19.022  0.00  0.00    +0.000 A 
ATOM     12  C   UNL     1       2.270   4.379  20.398  0.00  0.00    +0.000 A 
ATOM     13  C   UNL     1       1.456   3.341  20.853  0.00  0.00    +0.000 A 
ATOM     14  C   UNL     1       0.811   2.505  19.943  0.00  0.00    +0.000 A 
ATOM     15  C   UNL     1       0.988   2.695  18.575  0.00  0.00    +0.000 A 
ATOM     16  C   UNL     1       1.804   3.727  18.117  0.00  0.00    +0.000 A 
ENDBRANCH   1  11
BRANCH   1  17
ATOM     17  N   UNL     1       4.585   5.884  19.212  0.00  0.00    +0.000 NA
ATOM     18  H   UNL     1       4.409   5.941  20.217  0.00  0.00    +0.000 HD
BRANCH  17  19
ATOM     19  C   UNL     1       5.503   4.777  18.948  0.00  0.00    +0.000 C 
BRANCH  19  20
ATOM     20  C   UNL     1       5.820   4.712  17.481  0.00  0.00    +0.000 A 
ATOM     21  C   UNL     1       5.310   3.855  16.526  0.00  0.00    +0.000 A 
ATOM     22  C   UNL     1       5.848   4.097  15.229  0.00  0.00    +0.000 A 
ATOM     23  C   UNL     1       6.756   5.130  15.236  0.00  0.00    +0.000 A 
ATOM     24  S   UNL     1       6.955   5.803  16.794  0.00  0.00    +0.000 S 
ENDBRANCH  19  20
ENDBRANCH  17  19
ENDBRANCH   1  17
TORSDOF 5
ENDMDL
MODEL 8
REMARK VINA RESULT:      -7.2      2.120      4.824
REMARK  Name = 
REMARK  6 active torsions:
REMARK  status: ('A' for Active; 'I' for Inactive)
REMARK    1  A    between atoms: C_1  and  N_2
REMARK    2  A    between atoms: C_6  and  C_8
REMARK    3  A    between atoms: C_8  and  N_9
REMARK    4  A    between atoms: C_8  and  C_16
REMARK    5  A    between atoms: N_9  and  C_10
REMARK    6  A    between atoms: C_10  and  C_11
REMARK                            x       y       z     vdW  Elec       q    Type
REMARK                         _______ _______ _______ _____ _____    ______ ____
ROOT
ATOM      1  C   UNL     1       3.212   5.750  18.867  0.00  0.00    +0.000 C 
ENDROOT
BRANCH   1   7
ATOM      2  C   UNL     1       0.557  10.837  19.687  0.00  0.00    +0.000 C 
ATOM      3  N   UNL     1       1.181   9.566  19.448  0.00  0.00    +0.000 N 
ATOM      4  C   UNL     1       1.851   9.265  18.304  0.00  0.00    +0.000 C 
ATOM      5  O   UNL     1       1.960  10.032  17.349  0.00  0.00    +0.000 OA
ATOM      6  N   UNL     1       2.443   8.027  18.260  0.00  0.00    +0.000 N 
ATOM      7  C   UNL     1       2.457   7.055  19.250  0.00  0.00    +0.000 C 
ATOM      8  O   UNL     1       1.873   7.182  20.330  0.00  0.00    +0.000 OA
ATOM      9  H   UNL     1       1.068   8.816  20.130  0.00  0.00    +0.000 HD
ATOM     10  H   UNL     1       2.928   7.861  17.393  0.00  0.00    +0.000 HD
ENDBRANCH   1   7
BRANCH   1  11
ATOM     11  C   UNL     1       2.366   4.549  19.260  0.00  0.00    +0.000 A 
ATOM     12  C   UNL     1       2.237   4.182  20.607  0.00  0.00    +0.000 A 
ATOM     13  C   UNL     1       1.412   3.117  20.972  0.00  0.00    +0.000 A 
ATOM     14  C   UNL     1       0.709   2.409  19.998  0.00  0.00    +0.000 A 
ATOM     15  C   UNL     1       0.837   2.755  18.656  0.00  0.00    +0.000 A 
ATOM     16  C   UNL     1       1.663   3.815  18.288  0.00  0.00    +0.000 A 
ENDBRANCH   1  11
BRANCH   1  17
ATOM     17  N   UNL     1       4.533   5.779  19.533  0.00  0.00    +0.000 NA
ATOM     18  H   UNL     1       4.380   5.734  20.543  0.00  0.00    +0.000 HD
BRANCH  17  19
ATOM     19  C   UNL     1       5.422   4.689  19.134  0.00  0.00    +0.000 C 
BRANCH  19  20
ATOM     20  C   UNL     1       5.641   4.725  17.648  0.00  0.00    +0.000 A 
ATOM     21  C   UNL     1       5.092   3.910  16.677  0.00  0.00    +0.000 A 
ATOM     22  C   UNL     1       5.535   4.249  15.365  0.00  0.00    +0.000 A 
ATOM     23  C   UNL     1       6.410   5.310  15.377  0.00  0.00    +0.000 A 
ATOM     24  S   UNL     1       6.694   5.893  16.958  0.00  0.00    +0.000 S 
ENDBRANCH  19  20
ENDBRANCH  17  19
ENDBRANCH   1  17
TORSDOF 5
ENDMDL
MODEL 9
REMARK VINA RESULT:      -7.2      0.968      1.706
REMARK  Name = 
REMARK  6 active torsions:
REMARK  status: ('A' for Active; 'I' for Inactive)
REMARK    1  A    between atoms: C_1  and  N_2
REMARK    2  A    between atoms: C_6  and  C_8
REMARK    3  A    between atoms: C_8  and  N_9
REMARK    4  A    between atoms: C_8  and  C_16
REMARK    5  A    between atoms: N_9  and  C_10
REMARK    6  A    between atoms: C_10  and  C_11
REMARK                            x       y       z     vdW  Elec       q    Type
REMARK                         _______ _______ _______ _____ _____    ______ ____
ROOT
ATOM      1  C   UNL     1       3.557   5.351  18.720  0.00  0.00    +0.000 C 
ENDROOT
BRANCH   1   7
ATOM      2  C   UNL     1       0.584  10.221  19.736  0.00  0.00    +0.000 C 
ATOM      3  N   UNL     1       1.287   9.002  19.449  0.00  0.00    +0.000 N 
ATOM      4  C   UNL     1       1.955   8.781  18.286  0.00  0.00    +0.000 C 
ATOM      5  O   UNL     1       1.995   9.581  17.354  0.00  0.00    +0.000 OA
ATOM      6  N   UNL     1       2.627   7.588  18.195  0.00  0.00    +0.000 N 
ATOM      7  C   UNL     1       2.724   6.590  19.155  0.00  0.00    +0.000 C 
ATOM      8  O   UNL     1       2.153   6.646  20.247  0.00  0.00    +0.000 OA
ATOM      9  H   UNL     1       1.237   8.227  20.110  0.00  0.00    +0.000 HD
ATOM     10  H   UNL     1       3.106   7.480  17.316  0.00  0.00    +0.000 HD
ENDBRANCH   1   7
BRANCH   1  11
ATOM     11  C   UNL     1       4.992   5.780  18.455  0.00  0.00    +0.000 A 
ATOM     12  C   UNL     1       6.024   5.376  19.314  0.00  0.00    +0.000 A 
ATOM     13  C   UNL     1       7.348   5.720  19.037  0.00  0.00    +0.000 A 
ATOM     14  C   UNL     1       7.655   6.469  17.902  0.00  0.00    +0.000 A 
ATOM     15  C   UNL     1       6.638   6.887  17.047  0.00  0.00    +0.000 A 
ATOM     16  C   UNL     1       5.315   6.549  17.323  0.00  0.00    +0.000 A 
ENDBRANCH   1  11
BRANCH   1  17
ATOM     17  N   UNL     1       2.897   4.753  17.538  0.00  0.00    +0.000 NA
ATOM     18  H   UNL     1       3.552   4.796  16.754  0.00  0.00    +0.000 HD
BRANCH  17  19
ATOM     19  C   UNL     1       2.473   3.368  17.734  0.00  0.00    +0.000 C 
BRANCH  19  20
ATOM     20  C   UNL     1       2.228   3.108  19.193  0.00  0.00    +0.000 A 
ATOM     21  C   UNL     1       1.058   3.263  19.911  0.00  0.00    +0.000 A 
ATOM     22  C   UNL     1       1.209   2.912  21.284  0.00  0.00    +0.000 A 
ATOM     23  C   UNL     1       2.490   2.503  21.572  0.00  0.00    +0.000 A 
ATOM     24  S   UNL     1       3.502   2.542  20.195  0.00  0.00    +0.000 S 
ENDBRANCH  19  20
ENDBRANCH  17  19
ENDBRANCH   1  17
TORSDOF 5
ENDMDL
