MODEL 1
REMARK VINA RESULT:      -7.8      0.000      0.000
REMARK  Name = 
REMARK  6 active torsions:
REMARK  status: ('A' for Active; 'I' for Inactive)
REMARK    1  A    between atoms: C_1  and  O_2
REMARK    2  A    between atoms: O_2  and  C_3
REMARK    3  A    between atoms: C_3  and  C_4
REMARK    4  A    between atoms: C_4  and  N_5
REMARK    5  A    between atoms: N_5  and  C_6
REMARK    6  A    between atoms: N_18  and  C_19
REMARK                            x       y       z     vdW  Elec       q    Type
REMARK                         _______ _______ _______ _____ _____    ______ ____
ROOT
ATOM      1  C   UNL     1       4.444   5.220  17.632  0.00  0.00    +0.000 A 
ATOM      2  C   UNL     1       4.470   6.290  16.725  0.00  0.00    +0.000 A 
ATOM      3  C   UNL     1       3.749   7.453  16.951  0.00  0.00    +0.000 A 
ATOM      4  C   UNL     1       2.946   7.565  18.084  0.00  0.00    +0.000 A 
ATOM      5  C   UNL     1       2.840   6.515  18.994  0.00  0.00    +0.000 A 
ATOM      6  C   UNL     1       1.992   6.625  20.103  0.00  0.00    +0.000 A 
ATOM      7  C   UNL     1       1.861   5.569  21.015  0.00  0.00    +0.000 A 
ATOM      8  C   UNL     1       2.568   4.389  20.814  0.00  0.00    +0.000 A 
ATOM      9  C   UNL     1       3.414   4.270  19.709  0.00  0.00    +0.000 A 
ATOM     10  C   UNL     1       3.586   5.319  18.774  0.00  0.00    +0.000 A 
ATOM     11  C   UNL     1       1.211   7.865  20.335  0.00  0.00    +0.000 C 
ATOM     12  O   UNL     1       0.539   7.943  21.363  0.00  0.00    +0.000 OA
ATOM     13  N   UNL     1       1.338   8.884  19.382  0.00  0.00    +0.000 N 
ATOM     14  C   UNL     1       2.179   8.815  18.268  0.00  0.00    +0.000 C 
ATOM     15  O   UNL     1       2.293   9.689  17.410  0.00  0.00    +0.000 OA
ENDROOT
BRANCH  13  16
ATOM     16  C   UNL     1       0.550  10.070  19.543  0.00  0.00    +0.000 A 
ATOM     17  C   UNL     1       1.005  11.116  20.356  0.00  0.00    +0.000 A 
ATOM     18  C   UNL     1       0.210  12.245  20.569  0.00  0.00    +0.000 A 
ATOM     19  C   UNL     1      -1.031  12.353  19.943  0.00  0.00    +0.000 A 
ATOM     20  C   UNL     1      -1.479  11.323  19.117  0.00  0.00    +0.000 A 
ATOM     21 BR   UNL     1      -3.147  11.481  18.241  0.00  0.00    +0.000 Br
ATOM     22  C   UNL     1      -0.705  10.179  18.925  0.00  0.00    +0.000 A 
ENDBRANCH  13  16
BRANCH   1  23
ATOM     23  N   UNL     1       5.151   4.037  17.362  0.00  0.00    +0.000 N 
ATOM     24  H   UNL     1       5.239   3.422  18.169  0.00  0.00    +0.000 HD
BRANCH  23  25
ATOM     25  C   UNL     1       6.334   4.065  16.493  0.00  0.00    +0.000 C 
BRANCH  25  26
ATOM     26  C   UNL     1       7.564   4.648  17.193  0.00  0.00    +0.000 C 
BRANCH  26  28
ATOM     27  C   UNL     1       7.787   5.728  19.275  0.00  0.00    +0.000 C 
ATOM     28  O   UNL     1       7.437   4.524  18.610  0.00  0.00    +0.000 OA
ENDBRANCH  26  28
ENDBRANCH  25  26
ENDBRANCH  23  25
ENDBRANCH   1  23
TORSDOF 5
ENDMDL
MODEL 2
REMARK VINA RESULT:      -7.7      0.947      1.259
REMARK  Name = 
REMARK  6 active torsions:
REMARK  status: ('A' for Active; 'I' for Inactive)
REMARK    1  A    between atoms: C_1  and  O_2
REMARK    2  A    between atoms: O_2  and  C_3
REMARK    3  A    between atoms: C_3  and  C_4
REMARK    4  A    between atoms: C_4  and  N_5
REMARK    5  A    between atoms: N_5  and  C_6
REMARK    6  A    between atoms: N_18  and  C_19
REMARK                            x       y       z     vdW  Elec       q    Type
REMARK                         _______ _______ _______ _____ _____    ______ ____
ROOT
ATOM      1  C   UNL     1       4.404   5.296  17.793  0.00  0.00    +0.000 A 
ATOM      2  C   UNL     1       4.466   6.366  16.889  0.00  0.00    +0.000 A 
ATOM      3  C   UNL     1       3.741   7.531  17.091  0.00  0.00    +0.000 A 
ATOM      4  C   UNL     1       2.898   7.645  18.194  0.00  0.00    +0.000 A 
ATOM      5  C   UNL     1       2.756   6.594  19.098  0.00  0.00    +0.000 A 
ATOM      6  C   UNL     1       1.870   6.705  20.177  0.00  0.00    +0.000 A 
ATOM      7  C   UNL     1       1.702   5.648  21.082  0.00  0.00    +0.000 A 
ATOM      8  C   UNL     1       2.412   4.467  20.905  0.00  0.00    +0.000 A 
ATOM      9  C   UNL     1       3.297   4.346  19.831  0.00  0.00    +0.000 A 
ATOM     10  C   UNL     1       3.506   5.395  18.903  0.00  0.00    +0.000 A 
ATOM     11  C   UNL     1       1.085   7.947  20.382  0.00  0.00    +0.000 C 
ATOM     12  O   UNL     1       0.377   8.026  21.385  0.00  0.00    +0.000 OA
ATOM     13  N   UNL     1       1.249   8.967  19.436  0.00  0.00    +0.000 N 
ATOM     14  C   UNL     1       2.129   8.897  18.353  0.00  0.00    +0.000 C 
ATOM     15  O   UNL     1       2.277   9.772  17.500  0.00  0.00    +0.000 OA
ENDROOT
BRANCH  13  16
ATOM     16  C   UNL     1       0.459  10.156  19.570  0.00  0.00    +0.000 A 
ATOM     17  C   UNL     1       0.921  11.227  20.346  0.00  0.00    +0.000 A 
ATOM     18  C   UNL     1       0.125  12.360  20.533  0.00  0.00    +0.000 A 
ATOM     19  C   UNL     1      -1.123  12.445  19.919  0.00  0.00    +0.000 A 
ATOM     20  C   UNL     1      -1.578  11.390  19.131  0.00  0.00    +0.000 A 
ATOM     21 BR   UNL     1      -3.256  11.518  18.270  0.00  0.00    +0.000 Br
ATOM     22  C   UNL     1      -0.803  10.243  18.964  0.00  0.00    +0.000 A 
ENDBRANCH  13  16
BRANCH   1  23
ATOM     23  N   UNL     1       5.116   4.111  17.547  0.00  0.00    +0.000 N 
ATOM     24  H   UNL     1       5.595   3.745  18.368  0.00  0.00    +0.000 HD
BRANCH  23  25
ATOM     25  C   UNL     1       5.857   3.941  16.291  0.00  0.00    +0.000 C 
BRANCH  25  26
ATOM     26  C   UNL     1       7.287   4.481  16.375  0.00  0.00    +0.000 C 
BRANCH  26  28
ATOM     27  C   UNL     1       6.771   4.766  14.095  0.00  0.00    +0.000 C 
ATOM     28  O   UNL     1       7.653   5.117  15.150  0.00  0.00    +0.000 OA
ENDBRANCH  26  28
ENDBRANCH  25  26
ENDBRANCH  23  25
ENDBRANCH   1  23
TORSDOF 5
ENDMDL
MODEL 3
REMARK VINA RESULT:      -7.5      1.662      3.503
REMARK  Name = 
REMARK  6 active torsions:
REMARK  status: ('A' for Active; 'I' for Inactive)
REMARK    1  A    between atoms: C_1  and  O_2
REMARK    2  A    between atoms: O_2  and  C_3
REMARK    3  A    between atoms: C_3  and  C_4
REMARK    4  A    between atoms: C_4  and  N_5
REMARK    5  A    between atoms: N_5  and  C_6
REMARK    6  A    between atoms: N_18  and  C_19
REMARK                            x       y       z     vdW  Elec       q    Type
REMARK                         _______ _______ _______ _____ _____    ______ ____
ROOT
ATOM      1  C   UNL     1       3.869   4.273  19.580  0.00  0.00    +0.000 A 
ATOM      2  C   UNL     1       3.045   4.391  20.709  0.00  0.00    +0.000 A 
ATOM      3  C   UNL     1       2.228   5.495  20.901  0.00  0.00    +0.000 A 
ATOM      4  C   UNL     1       2.238   6.538  19.979  0.00  0.00    +0.000 A 
ATOM      5  C   UNL     1       3.075   6.501  18.864  0.00  0.00    +0.000 A 
ATOM      6  C   UNL     1       3.109   7.578  17.970  0.00  0.00    +0.000 A 
ATOM      7  C   UNL     1       3.961   7.562  16.857  0.00  0.00    +0.000 A 
ATOM      8  C   UNL     1       4.794   6.471  16.639  0.00  0.00    +0.000 A 
ATOM      9  C   UNL     1       4.768   5.393  17.527  0.00  0.00    +0.000 A 
ATOM     10  C   UNL     1       3.912   5.364  18.654  0.00  0.00    +0.000 A 
ATOM     11  C   UNL     1       2.244   8.764  18.186  0.00  0.00    +0.000 C 
ATOM     12  O   UNL     1       2.254   9.651  17.333  0.00  0.00    +0.000 OA
ATOM     13  N   UNL     1       1.436   8.762  19.330  0.00  0.00    +0.000 N 
ATOM     14  C   UNL     1       1.368   7.703  20.239  0.00  0.00    +0.000 C 
ATOM     15  O   UNL     1       0.678   7.686  21.259  0.00  0.00    +0.000 OA
ENDROOT
BRANCH  13  16
ATOM     16  C   UNL     1       0.634   9.919  19.601  0.00  0.00    +0.000 A 
ATOM     17  C   UNL     1       1.048  10.857  20.555  0.00  0.00    +0.000 A 
ATOM     18  C   UNL     1       0.237  11.952  20.869  0.00  0.00    +0.000 A 
ATOM     19  C   UNL     1      -0.975  12.135  20.207  0.00  0.00    +0.000 A 
ATOM     20  C   UNL     1      -1.380  11.214  19.242  0.00  0.00    +0.000 A 
ATOM     21 BR   UNL     1      -3.009  11.479  18.319  0.00  0.00    +0.000 Br
ATOM     22  C   UNL     1      -0.592  10.103  18.945  0.00  0.00    +0.000 A 
ENDBRANCH  13  16
BRANCH   1  23
ATOM     23  N   UNL     1       4.718   3.164  19.427  0.00  0.00    +0.000 N 
ATOM     24  H   UNL     1       5.571   3.373  18.913  0.00  0.00    +0.000 HD
BRANCH  23  25
ATOM     25  C   UNL     1       4.156   1.837  19.151  0.00  0.00    +0.000 C 
BRANCH  25  26
ATOM     26  C   UNL     1       2.918   1.898  18.252  0.00  0.00    +0.000 C 
BRANCH  26  28
ATOM     27  C   UNL     1       0.693   2.508  18.731  0.00  0.00    +0.000 C 
ATOM     28  O   UNL     1       1.742   1.591  19.002  0.00  0.00    +0.000 OA
ENDBRANCH  26  28
ENDBRANCH  25  26
ENDBRANCH  23  25
ENDBRANCH   1  23
TORSDOF 5
ENDMDL
MODEL 4
REMARK VINA RESULT:      -7.5      2.048      3.763
REMARK  Name = 
REMARK  6 active torsions:
REMARK  status: ('A' for Active; 'I' for Inactive)
REMARK    1  A    between atoms: C_1  and  O_2
REMARK    2  A    between atoms: O_2  and  C_3
REMARK    3  A    between atoms: C_3  and  C_4
REMARK    4  A    between atoms: C_4  and  N_5
REMARK    5  A    between atoms: N_5  and  C_6
REMARK    6  A    between atoms: N_18  and  C_19
REMARK                            x       y       z     vdW  Elec       q    Type
REMARK                         _______ _______ _______ _____ _____    ______ ____
ROOT
ATOM      1  C   UNL     1       3.353   4.561  19.849  0.00  0.00    +0.000 A 
ATOM      2  C   UNL     1       2.496   4.765  20.940  0.00  0.00    +0.000 A 
ATOM      3  C   UNL     1       1.738   5.920  21.063  0.00  0.00    +0.000 A 
ATOM      4  C   UNL     1       1.845   6.928  20.108  0.00  0.00    +0.000 A 
ATOM      5  C   UNL     1       2.720   6.804  19.029  0.00  0.00    +0.000 A 
ATOM      6  C   UNL     1       2.851   7.845  18.102  0.00  0.00    +0.000 A 
ATOM      7  C   UNL     1       3.741   7.741  17.025  0.00  0.00    +0.000 A 
ATOM      8  C   UNL     1       4.516   6.597  16.876  0.00  0.00    +0.000 A 
ATOM      9  C   UNL     1       4.394   5.554  17.797  0.00  0.00    +0.000 A 
ATOM     10  C   UNL     1       3.495   5.614  18.890  0.00  0.00    +0.000 A 
ATOM     11  C   UNL     1       2.050   9.086  18.244  0.00  0.00    +0.000 C 
ATOM     12  O   UNL     1       2.144   9.940  17.364  0.00  0.00    +0.000 OA
ATOM     13  N   UNL     1       1.200   9.170  19.355  0.00  0.00    +0.000 N 
ATOM     14  C   UNL     1       1.035   8.150  20.295  0.00  0.00    +0.000 C 
ATOM     15  O   UNL     1       0.308   8.209  21.287  0.00  0.00    +0.000 OA
ENDROOT
BRANCH  13  16
ATOM     16  C   UNL     1       0.458  10.381  19.555  0.00  0.00    +0.000 A 
ATOM     17  C   UNL     1      -0.848  10.498  19.064  0.00  0.00    +0.000 A 
ATOM     18  C   UNL     1      -1.550  11.699  19.199  0.00  0.00    +0.000 A 
ATOM     19  C   UNL     1      -0.964  12.780  19.856  0.00  0.00    +0.000 A 
ATOM     20  C   UNL     1       0.328  12.660  20.364  0.00  0.00    +0.000 A 
ATOM     21 BR   UNL     1       1.113  14.113  21.285  0.00  0.00    +0.000 Br
ATOM     22  C   UNL     1       1.046  11.475  20.206  0.00  0.00    +0.000 A 
ENDBRANCH  13  16
BRANCH   1  23
ATOM     23  N   UNL     1       4.140   3.400  19.767  0.00  0.00    +0.000 N 
ATOM     24  H   UNL     1       5.062   3.561  19.367  0.00  0.00    +0.000 HD
BRANCH  23  25
ATOM     25  C   UNL     1       3.532   2.121  19.384  0.00  0.00    +0.000 C 
BRANCH  25  26
ATOM     26  C   UNL     1       3.312   2.003  17.873  0.00  0.00    +0.000 C 
BRANCH  26  28
ATOM     27  C   UNL     1       1.100   2.124  18.675  0.00  0.00    +0.000 C 
ATOM     28  O   UNL     1       1.948   2.268  17.545  0.00  0.00    +0.000 OA
ENDBRANCH  26  28
ENDBRANCH  25  26
ENDBRANCH  23  25
ENDBRANCH   1  23
TORSDOF 5
ENDMDL
MODEL 5
REMARK VINA RESULT:      -7.4      1.593      2.075
REMARK  Name = 
REMARK  6 active torsions:
REMARK  status: ('A' for Active; 'I' for Inactive)
REMARK    1  A    between atoms: C_1  and  O_2
REMARK    2  A    between atoms: O_2  and  C_3
REMARK    3  A    between atoms: C_3  and  C_4
REMARK    4  A    between atoms: C_4  and  N_5
REMARK    5  A    between atoms: N_5  and  C_6
REMARK    6  A    between atoms: N_18  and  C_19
REMARK                            x       y       z     vdW  Elec       q    Type
REMARK                         _______ _______ _______ _____ _____    ______ ____
ROOT
ATOM      1  C   UNL     1       4.388   5.469  17.752  0.00  0.00    +0.000 A 
ATOM      2  C   UNL     1       4.441   6.550  16.860  0.00  0.00    +0.000 A 
ATOM      3  C   UNL     1       3.705   7.706  17.074  0.00  0.00    +0.000 A 
ATOM      4  C   UNL     1       2.862   7.801  18.178  0.00  0.00    +0.000 A 
ATOM      5  C   UNL     1       2.729   6.739  19.072  0.00  0.00    +0.000 A 
ATOM      6  C   UNL     1       1.843   6.831  20.152  0.00  0.00    +0.000 A 
ATOM      7  C   UNL     1       1.685   5.763  21.046  0.00  0.00    +0.000 A 
ATOM      8  C   UNL     1       2.406   4.590  20.856  0.00  0.00    +0.000 A 
ATOM      9  C   UNL     1       3.291   4.488  19.780  0.00  0.00    +0.000 A 
ATOM     10  C   UNL     1       3.490   5.549  18.864  0.00  0.00    +0.000 A 
ATOM     11  C   UNL     1       1.047   8.064  20.370  0.00  0.00    +0.000 C 
ATOM     12  O   UNL     1       0.339   8.126  21.375  0.00  0.00    +0.000 OA
ATOM     13  N   UNL     1       1.201   9.095  19.434  0.00  0.00    +0.000 N 
ATOM     14  C   UNL     1       2.082   9.044  18.350  0.00  0.00    +0.000 C 
ATOM     15  O   UNL     1       2.221   9.929  17.507  0.00  0.00    +0.000 OA
ENDROOT
BRANCH  13  16
ATOM     16  C   UNL     1       0.401  10.275  19.582  0.00  0.00    +0.000 A 
ATOM     17  C   UNL     1      -0.859  10.355  18.974  0.00  0.00    +0.000 A 
ATOM     18  C   UNL     1      -1.613  11.528  19.060  0.00  0.00    +0.000 A 
ATOM     19  C   UNL     1      -1.129  12.617  19.782  0.00  0.00    +0.000 A 
ATOM     20  C   UNL     1       0.115  12.534  20.404  0.00  0.00    +0.000 A 
ATOM     21 BR   UNL     1       0.759  13.999  21.413  0.00  0.00    +0.000 Br
ATOM     22  C   UNL     1       0.887  11.379  20.298  0.00  0.00    +0.000 A 
ENDBRANCH  13  16
BRANCH   1  23
ATOM     23  N   UNL     1       5.111   4.293  17.494  0.00  0.00    +0.000 N 
ATOM     24  H   UNL     1       5.834   4.099  18.184  0.00  0.00    +0.000 HD
BRANCH  23  25
ATOM     25  C   UNL     1       5.480   3.941  16.117  0.00  0.00    +0.000 C 
BRANCH  25  26
ATOM     26  C   UNL     1       6.921   4.332  15.777  0.00  0.00    +0.000 C 
BRANCH  26  28
ATOM     27  C   UNL     1       6.217   3.904  13.570  0.00  0.00    +0.000 C 
ATOM     28  O   UNL     1       7.022   4.721  14.407  0.00  0.00    +0.000 OA
ENDBRANCH  26  28
ENDBRANCH  25  26
ENDBRANCH  23  25
ENDBRANCH   1  23
TORSDOF 5
ENDMDL
MODEL 6
REMARK VINA RESULT:      -7.4      1.309      1.604
REMARK  Name = 
REMARK  6 active torsions:
REMARK  status: ('A' for Active; 'I' for Inactive)
REMARK    1  A    between atoms: C_1  and  O_2
REMARK    2  A    between atoms: O_2  and  C_3
REMARK    3  A    between atoms: C_3  and  C_4
REMARK    4  A    between atoms: C_4  and  N_5
REMARK    5  A    between atoms: N_5  and  C_6
REMARK    6  A    between atoms: N_18  and  C_19
REMARK                            x       y       z     vdW  Elec       q    Type
REMARK                         _______ _______ _______ _____ _____    ______ ____
ROOT
ATOM      1  C   UNL     1       4.394   5.460  17.618  0.00  0.00    +0.000 A 
ATOM      2  C   UNL     1       4.404   6.541  16.725  0.00  0.00    +0.000 A 
ATOM      3  C   UNL     1       3.668   7.692  16.966  0.00  0.00    +0.000 A 
ATOM      4  C   UNL     1       2.865   7.779  18.101  0.00  0.00    +0.000 A 
ATOM      5  C   UNL     1       2.774   6.716  18.998  0.00  0.00    +0.000 A 
ATOM      6  C   UNL     1       1.927   6.801  20.110  0.00  0.00    +0.000 A 
ATOM      7  C   UNL     1       1.810   5.731  21.008  0.00  0.00    +0.000 A 
ATOM      8  C   UNL     1       2.533   4.564  20.792  0.00  0.00    +0.000 A 
ATOM      9  C   UNL     1       3.379   4.470  19.684  0.00  0.00    +0.000 A 
ATOM     10  C   UNL     1       3.536   5.532  18.762  0.00  0.00    +0.000 A 
ATOM     11  C   UNL     1       1.129   8.027  20.358  0.00  0.00    +0.000 C 
ATOM     12  O   UNL     1       0.458   8.083  21.388  0.00  0.00    +0.000 OA
ATOM     13  N   UNL     1       1.241   9.059  19.418  0.00  0.00    +0.000 N 
ATOM     14  C   UNL     1       2.082   9.016  18.302  0.00  0.00    +0.000 C 
ATOM     15  O   UNL     1       2.183   9.902  17.455  0.00  0.00    +0.000 OA
ENDROOT
BRANCH  13  16
ATOM     16  C   UNL     1       0.437  10.233  19.595  0.00  0.00    +0.000 A 
ATOM     17  C   UNL     1      -0.849  10.298  19.043  0.00  0.00    +0.000 A 
ATOM     18  C   UNL     1      -1.610  11.465  19.157  0.00  0.00    +0.000 A 
ATOM     19  C   UNL     1      -1.104  12.562  19.852  0.00  0.00    +0.000 A 
ATOM     20  C   UNL     1       0.167  12.494  20.419  0.00  0.00    +0.000 A 
ATOM     21 BR   UNL     1       0.841  13.969  21.391  0.00  0.00    +0.000 Br
ATOM     22  C   UNL     1       0.944  11.344  20.283  0.00  0.00    +0.000 A 
ENDBRANCH  13  16
BRANCH   1  23
ATOM     23  N   UNL     1       5.116   4.290  17.333  0.00  0.00    +0.000 N 
ATOM     24  H   UNL     1       4.934   3.530  17.985  0.00  0.00    +0.000 HD
BRANCH  23  25
ATOM     25  C   UNL     1       6.509   4.374  16.877  0.00  0.00    +0.000 C 
BRANCH  25  26
ATOM     26  C   UNL     1       7.358   5.301  17.751  0.00  0.00    +0.000 C 
BRANCH  26  28
ATOM     27  C   UNL     1       7.730   7.626  17.817  0.00  0.00    +0.000 C 
ATOM     28  O   UNL     1       7.755   6.457  17.013  0.00  0.00    +0.000 OA
ENDBRANCH  26  28
ENDBRANCH  25  26
ENDBRANCH  23  25
ENDBRANCH   1  23
TORSDOF 5
ENDMDL
MODEL 7
REMARK VINA RESULT:      -7.4      3.274      7.639
REMARK  Name = 
REMARK  6 active torsions:
REMARK  status: ('A' for Active; 'I' for Inactive)
REMARK    1  A    between atoms: C_1  and  O_2
REMARK    2  A    between atoms: O_2  and  C_3
REMARK    3  A    between atoms: C_3  and  C_4
REMARK    4  A    between atoms: C_4  and  N_5
REMARK    5  A    between atoms: N_5  and  C_6
REMARK    6  A    between atoms: N_18  and  C_19
REMARK                            x       y       z     vdW  Elec       q    Type
REMARK                         _______ _______ _______ _____ _____    ______ ____
ROOT
ATOM      1  C   UNL     1       1.577   7.473  20.225  0.00  0.00    +0.000 A 
ATOM      2  C   UNL     1       1.987   8.427  19.282  0.00  0.00    +0.000 A 
ATOM      3  C   UNL     1       2.784   8.084  18.200  0.00  0.00    +0.000 A 
ATOM      4  C   UNL     1       3.227   6.772  18.049  0.00  0.00    +0.000 A 
ATOM      5  C   UNL     1       2.895   5.792  18.983  0.00  0.00    +0.000 A 
ATOM      6  C   UNL     1       3.386   4.488  18.843  0.00  0.00    +0.000 A 
ATOM      7  C   UNL     1       3.076   3.498  19.785  0.00  0.00    +0.000 A 
ATOM      8  C   UNL     1       2.282   3.811  20.882  0.00  0.00    +0.000 A 
ATOM      9  C   UNL     1       1.789   5.109  21.031  0.00  0.00    +0.000 A 
ATOM     10  C   UNL     1       2.067   6.134  20.094  0.00  0.00    +0.000 A 
ATOM     11  C   UNL     1       4.250   4.128  17.692  0.00  0.00    +0.000 C 
ATOM     12  O   UNL     1       4.595   2.952  17.572  0.00  0.00    +0.000 OA
ATOM     13  N   UNL     1       4.571   5.152  16.792  0.00  0.00    +0.000 N 
ATOM     14  C   UNL     1       4.094   6.462  16.893  0.00  0.00    +0.000 C 
ATOM     15  O   UNL     1       4.375   7.381  16.125  0.00  0.00    +0.000 OA
ENDROOT
BRANCH  13  16
ATOM     16  C   UNL     1       5.454   4.852  15.704  0.00  0.00    +0.000 A 
ATOM     17  C   UNL     1       6.810   5.199  15.778  0.00  0.00    +0.000 A 
ATOM     18  C   UNL     1       7.660   4.968  14.693  0.00  0.00    +0.000 A 
ATOM     19  C   UNL     1       7.169   4.358  13.540  0.00  0.00    +0.000 A 
ATOM     20  C   UNL     1       5.826   3.994  13.470  0.00  0.00    +0.000 A 
ATOM     21 BR   UNL     1       5.165   3.136  11.920  0.00  0.00    +0.000 Br
ATOM     22  C   UNL     1       4.964   4.249  14.537  0.00  0.00    +0.000 A 
ENDBRANCH  13  16
BRANCH   1  23
ATOM     23  N   UNL     1       0.803   7.851  21.334  0.00  0.00    +0.000 N 
ATOM     24  H   UNL     1      -0.115   7.410  21.360  0.00  0.00    +0.000 HD
BRANCH  23  25
ATOM     25  C   UNL     1       0.818   9.241  21.806  0.00  0.00    +0.000 C 
BRANCH  25  26
ATOM     26  C   UNL     1      -0.164   9.482  22.956  0.00  0.00    +0.000 C 
BRANCH  26  28
ATOM     27  C   UNL     1      -1.100  11.542  22.300  0.00  0.00    +0.000 C 
ATOM     28  O   UNL     1      -0.268  10.877  23.239  0.00  0.00    +0.000 OA
ENDBRANCH  26  28
ENDBRANCH  25  26
ENDBRANCH  23  25
ENDBRANCH   1  23
TORSDOF 5
ENDMDL
MODEL 8
REMARK VINA RESULT:      -7.3      3.416      8.566
REMARK  Name = 
REMARK  6 active torsions:
REMARK  status: ('A' for Active; 'I' for Inactive)
REMARK    1  A    between atoms: C_1  and  O_2
REMARK    2  A    between atoms: O_2  and  C_3
REMARK    3  A    between atoms: C_3  and  C_4
REMARK    4  A    between atoms: C_4  and  N_5
REMARK    5  A    between atoms: N_5  and  C_6
REMARK    6  A    between atoms: N_18  and  C_19
REMARK                            x       y       z     vdW  Elec       q    Type
REMARK                         _______ _______ _______ _____ _____    ______ ____
ROOT
ATOM      1  C   UNL     1      -0.175  10.782  22.085  0.00  0.00    +0.000 A 
ATOM      2  C   UNL     1      -0.105   9.554  22.758  0.00  0.00    +0.000 A 
ATOM      3  C   UNL     1       0.517   8.450  22.194  0.00  0.00    +0.000 A 
ATOM      4  C   UNL     1       1.060   8.535  20.914  0.00  0.00    +0.000 A 
ATOM      5  C   UNL     1       0.975   9.715  20.176  0.00  0.00    +0.000 A 
ATOM      6  C   UNL     1       1.484   9.772  18.874  0.00  0.00    +0.000 A 
ATOM      7  C   UNL     1       1.387  10.945  18.114  0.00  0.00    +0.000 A 
ATOM      8  C   UNL     1       0.766  12.067  18.650  0.00  0.00    +0.000 A 
ATOM      9  C   UNL     1       0.253  12.019  19.948  0.00  0.00    +0.000 A 
ATOM     10  C   UNL     1       0.345  10.858  20.754  0.00  0.00    +0.000 A 
ATOM     11  C   UNL     1       2.137   8.585  18.267  0.00  0.00    +0.000 C 
ATOM     12  O   UNL     1       2.636   8.706  17.149  0.00  0.00    +0.000 OA
ATOM     13  N   UNL     1       2.181   7.418  19.042  0.00  0.00    +0.000 N 
ATOM     14  C   UNL     1       1.692   7.326  20.348  0.00  0.00    +0.000 C 
ATOM     15  O   UNL     1       1.704   6.308  21.040  0.00  0.00    +0.000 OA
ENDROOT
BRANCH  13  16
ATOM     16  C   UNL     1       2.749   6.237  18.463  0.00  0.00    +0.000 A 
ATOM     17  C   UNL     1       1.918   5.226  17.961  0.00  0.00    +0.000 A 
ATOM     18  C   UNL     1       2.466   4.044  17.456  0.00  0.00    +0.000 A 
ATOM     19  C   UNL     1       3.850   3.878  17.417  0.00  0.00    +0.000 A 
ATOM     20  C   UNL     1       4.680   4.889  17.897  0.00  0.00    +0.000 A 
ATOM     21 BR   UNL     1       6.557   4.680  17.814  0.00  0.00    +0.000 Br
ATOM     22  C   UNL     1       4.139   6.059  18.430  0.00  0.00    +0.000 A 
ENDBRANCH  13  16
BRANCH   1  23
ATOM     23  N   UNL     1      -0.845  11.875  22.660  0.00  0.00    +0.000 N 
ATOM     24  H   UNL     1      -0.255  12.443  23.264  0.00  0.00    +0.000 HD
BRANCH  23  25
ATOM     25  C   UNL     1      -2.227  11.728  23.133  0.00  0.00    +0.000 C 
BRANCH  25  26
ATOM     26  C   UNL     1      -3.221  12.549  22.307  0.00  0.00    +0.000 C 
BRANCH  26  28
ATOM     27  C   UNL     1      -5.013  13.549  23.464  0.00  0.00    +0.000 C 
ATOM     28  O   UNL     1      -4.547  12.379  22.810  0.00  0.00    +0.000 OA
ENDBRANCH  26  28
ENDBRANCH  25  26
ENDBRANCH  23  25
ENDBRANCH   1  23
TORSDOF 5
ENDMDL
MODEL 9
REMARK VINA RESULT:      -7.3      2.327      3.091
REMARK  Name = 
REMARK  6 active torsions:
REMARK  status: ('A' for Active; 'I' for Inactive)
REMARK    1  A    between atoms: C_1  and  O_2
REMARK    2  A    between atoms: O_2  and  C_3
REMARK    3  A    between atoms: C_3  and  C_4
REMARK    4  A    between atoms: C_4  and  N_5
REMARK    5  A    between atoms: N_5  and  C_6
REMARK    6  A    between atoms: N_18  and  C_19
REMARK                            x       y       z     vdW  Elec       q    Type
REMARK                         _______ _______ _______ _____ _____    ______ ____
ROOT
ATOM      1  C   UNL     1       5.177   4.618  16.246  0.00  0.00    +0.000 A 
ATOM      2  C   UNL     1       5.232   5.971  15.880  0.00  0.00    +0.000 A 
ATOM      3  C   UNL     1       4.544   6.945  16.589  0.00  0.00    +0.000 A 
ATOM      4  C   UNL     1       3.745   6.584  17.671  0.00  0.00    +0.000 A 
ATOM      5  C   UNL     1       3.610   5.249  18.049  0.00  0.00    +0.000 A 
ATOM      6  C   UNL     1       2.767   4.897  19.110  0.00  0.00    +0.000 A 
ATOM      7  C   UNL     1       2.606   3.557  19.487  0.00  0.00    +0.000 A 
ATOM      8  C   UNL     1       3.280   2.559  18.795  0.00  0.00    +0.000 A 
ATOM      9  C   UNL     1       4.122   2.900  17.734  0.00  0.00    +0.000 A 
ATOM     10  C   UNL     1       4.323   4.242  17.332  0.00  0.00    +0.000 A 
ATOM     11  C   UNL     1       2.020   5.940  19.857  0.00  0.00    +0.000 C 
ATOM     12  O   UNL     1       1.352   5.589  20.829  0.00  0.00    +0.000 OA
ATOM     13  N   UNL     1       2.175   7.264  19.427  0.00  0.00    +0.000 N 
ATOM     14  C   UNL     1       3.013   7.655  18.379  0.00  0.00    +0.000 C 
ATOM     15  O   UNL     1       3.151   8.809  17.973  0.00  0.00    +0.000 OA
ENDROOT
BRANCH  13  16
ATOM     16  C   UNL     1       1.420   8.288  20.087  0.00  0.00    +0.000 A 
ATOM     17  C   UNL     1       1.506   8.445  21.477  0.00  0.00    +0.000 A 
ATOM     18  C   UNL     1       0.722   9.398  22.132  0.00  0.00    +0.000 A 
ATOM     19  C   UNL     1      -0.129  10.224  21.399  0.00  0.00    +0.000 A 
ATOM     20  C   UNL     1      -0.202  10.085  20.015  0.00  0.00    +0.000 A 
ATOM     21 BR   UNL     1      -1.331  11.227  19.016  0.00  0.00    +0.000 Br
ATOM     22  C   UNL     1       0.554   9.116  19.357  0.00  0.00    +0.000 A 
ENDBRANCH  13  16
BRANCH   1  23
ATOM     23  N   UNL     1       5.850   3.645  15.489  0.00  0.00    +0.000 N 
ATOM     24  H   UNL     1       6.377   2.982  16.055  0.00  0.00    +0.000 HD
BRANCH  23  25
ATOM     25  C   UNL     1       6.502   4.012  14.226  0.00  0.00    +0.000 C 
BRANCH  25  26
ATOM     26  C   UNL     1       5.638   3.687  13.004  0.00  0.00    +0.000 C 
BRANCH  26  28
ATOM     27  C   UNL     1       5.752   1.905  11.468  0.00  0.00    +0.000 C 
ATOM     28  O   UNL     1       6.420   3.040  12.000  0.00  0.00    +0.000 OA
ENDBRANCH  26  28
ENDBRANCH  25  26
ENDBRANCH  23  25
ENDBRANCH   1  23
TORSDOF 5
ENDMDL
