MODEL 1
REMARK VINA RESULT:      -8.5      0.000      0.000
REMARK  Name = 
REMARK  7 active torsions:
REMARK  status: ('A' for Active; 'I' for Inactive)
REMARK    1  A    between atoms: C_1  and  C_2
REMARK    2  A    between atoms: C_3  and  C_4
REMARK    3  A    between atoms: C_4  and  C_5
REMARK    4  A    between atoms: C_5  and  O_7
REMARK    5  A    between atoms: C_13  and  O_14
REMARK    6  A    between atoms: O_14  and  C_15
REMARK    7  A    between atoms: C_15  and  C_16
REMARK                            x       y       z     vdW  Elec       q    Type
REMARK                         _______ _______ _______ _____ _____    ______ ____
ROOT
ATOM      1  C   UNL     1       3.836   2.657  17.527  0.00  0.00    +0.000 C 
ATOM      2  C   UNL     1       3.924   4.162  17.506  0.00  0.00    +0.000 A 
ATOM      3  C   UNL     1       4.705   4.862  16.653  0.00  0.00    +0.000 A 
ATOM      4  C   UNL     1       4.693   6.353  16.657  0.00  0.00    +0.000 A 
ATOM      5  O   UNL     1       5.217   6.998  15.755  0.00  0.00    +0.000 OA
ATOM      6  O   UNL     1       4.062   6.990  17.709  0.00  0.00    +0.000 OA
ATOM      7  C   UNL     1       3.220   6.279  18.577  0.00  0.00    +0.000 A 
ATOM      8  C   UNL     1       2.496   7.033  19.503  0.00  0.00    +0.000 A 
ATOM      9  C   UNL     1       1.613   6.395  20.372  0.00  0.00    +0.000 A 
ATOM     10  C   UNL     1       1.442   5.015  20.267  0.00  0.00    +0.000 A 
ATOM     11  C   UNL     1       2.189   4.272  19.345  0.00  0.00    +0.000 A 
ATOM     12  C   UNL     1       3.101   4.895  18.485  0.00  0.00    +0.000 A 
ENDROOT
BRANCH   3  13
ATOM     13  C   UNL     1       5.570   4.254  15.570  0.00  0.00    +0.000 C 
BRANCH  13  14
ATOM     14  C   UNL     1       7.044   4.621  15.647  0.00  0.00    +0.000 C 
ATOM     15  O   UNL     1       7.808   4.346  16.559  0.00  0.00    +0.000 OA
BRANCH  14  16
ATOM     16  O   UNL     1       7.458   5.295  14.545  0.00  0.00    +0.000 OA
ATOM     17  H   UNL     1       8.272   4.942  14.137  0.00  0.00    +0.000 HD
ENDBRANCH  14  16
ENDBRANCH  13  14
ENDBRANCH   3  13
BRANCH   9  18
ATOM     18  O   UNL     1       0.971   7.197  21.271  0.00  0.00    +0.000 OA
BRANCH  18  19
ATOM     19  C   UNL     1       1.570   8.485  21.480  0.00  0.00    +0.000 C 
BRANCH  19  20
ATOM     20  C   UNL     1       0.503   9.536  21.680  0.00  0.00    +0.000 A 
ATOM     21  C   UNL     1      -0.091   9.699  22.948  0.00  0.00    +0.000 A 
ATOM     22  C   UNL     1      -1.073  10.669  23.158  0.00  0.00    +0.000 A 
ATOM     23  C   UNL     1      -1.457  11.489  22.107  0.00  0.00    +0.000 A 
ATOM     24  F   UNL     1      -2.404  12.415  22.306  0.00  0.00    +0.000 F 
ATOM     25  C   UNL     1      -0.873  11.371  20.854  0.00  0.00    +0.000 A 
ATOM     26  C   UNL     1       0.114  10.405  20.645  0.00  0.00    +0.000 A 
ATOM     27 CL   UNL     1       0.833  10.342  19.073  0.00  0.00    +0.000 Cl
ENDBRANCH  19  20
ENDBRANCH  18  19
ENDBRANCH   9  18
TORSDOF 6
ENDMDL
MODEL 2
REMARK VINA RESULT:      -8.2      1.818      2.331
REMARK  Name = 
REMARK  7 active torsions:
REMARK  status: ('A' for Active; 'I' for Inactive)
REMARK    1  A    between atoms: C_1  and  C_2
REMARK    2  A    between atoms: C_3  and  C_4
REMARK    3  A    between atoms: C_4  and  C_5
REMARK    4  A    between atoms: C_5  and  O_7
REMARK    5  A    between atoms: C_13  and  O_14
REMARK    6  A    between atoms: O_14  and  C_15
REMARK    7  A    between atoms: C_15  and  C_16
REMARK                            x       y       z     vdW  Elec       q    Type
REMARK                         _______ _______ _______ _____ _____    ______ ____
ROOT
ATOM      1  C   UNL     1       4.279   3.373  18.739  0.00  0.00    +0.000 C 
ATOM      2  C   UNL     1       4.174   4.744  18.121  0.00  0.00    +0.000 A 
ATOM      3  C   UNL     1       4.850   5.130  17.015  0.00  0.00    +0.000 A 
ATOM      4  C   UNL     1       4.647   6.486  16.431  0.00  0.00    +0.000 A 
ATOM      5  O   UNL     1       5.075   6.773  15.318  0.00  0.00    +0.000 OA
ATOM      6  O   UNL     1       3.949   7.414  17.183  0.00  0.00    +0.000 OA
ATOM      7  C   UNL     1       3.214   7.017  18.309  0.00  0.00    +0.000 A 
ATOM      8  C   UNL     1       2.408   7.991  18.904  0.00  0.00    +0.000 A 
ATOM      9  C   UNL     1       1.623   7.657  20.005  0.00  0.00    +0.000 A 
ATOM     10  C   UNL     1       1.629   6.339  20.464  0.00  0.00    +0.000 A 
ATOM     11  C   UNL     1       2.456   5.381  19.868  0.00  0.00    +0.000 A 
ATOM     12  C   UNL     1       3.272   5.709  18.778  0.00  0.00    +0.000 A 
ENDROOT
BRANCH   3  13
ATOM     13  C   UNL     1       5.776   4.243  16.211  0.00  0.00    +0.000 C 
BRANCH  13  14
ATOM     14  C   UNL     1       7.247   4.616  16.288  0.00  0.00    +0.000 C 
ATOM     15  O   UNL     1       8.012   4.346  17.201  0.00  0.00    +0.000 OA
BRANCH  14  16
ATOM     16  O   UNL     1       7.659   5.292  15.186  0.00  0.00    +0.000 OA
ATOM     17  H   UNL     1       7.636   6.265  15.275  0.00  0.00    +0.000 HD
ENDBRANCH  14  16
ENDBRANCH  13  14
ENDBRANCH   3  13
BRANCH   9  18
ATOM     18  O   UNL     1       0.891   8.672  20.552  0.00  0.00    +0.000 OA
BRANCH  18  19
ATOM     19  C   UNL     1       1.096   9.962  19.957  0.00  0.00    +0.000 C 
BRANCH  19  20
ATOM     20  C   UNL     1      -0.195  10.478  19.361  0.00  0.00    +0.000 A 
ATOM     21  C   UNL     1      -0.627  10.001  18.107  0.00  0.00    +0.000 A 
ATOM     22  C   UNL     1      -1.819  10.456  17.541  0.00  0.00    +0.000 A 
ATOM     23  C   UNL     1      -2.590  11.382  18.230  0.00  0.00    +0.000 A 
ATOM     24  F   UNL     1      -3.731  11.824  17.685  0.00  0.00    +0.000 F 
ATOM     25  C   UNL     1      -2.205  11.851  19.477  0.00  0.00    +0.000 A 
ATOM     26  C   UNL     1      -1.016  11.391  20.047  0.00  0.00    +0.000 A 
ATOM     27 CL   UNL     1      -0.617  11.982  21.623  0.00  0.00    +0.000 Cl
ENDBRANCH  19  20
ENDBRANCH  18  19
ENDBRANCH   9  18
TORSDOF 6
ENDMDL
MODEL 3
REMARK VINA RESULT:      -8.0      3.201      4.281
REMARK  Name = 
REMARK  7 active torsions:
REMARK  status: ('A' for Active; 'I' for Inactive)
REMARK    1  A    between atoms: C_1  and  C_2
REMARK    2  A    between atoms: C_3  and  C_4
REMARK    3  A    between atoms: C_4  and  C_5
REMARK    4  A    between atoms: C_5  and  O_7
REMARK    5  A    between atoms: C_13  and  O_14
REMARK    6  A    between atoms: O_14  and  C_15
REMARK    7  A    between atoms: C_15  and  C_16
REMARK                            x       y       z     vdW  Elec       q    Type
REMARK                         _______ _______ _______ _____ _____    ______ ____
ROOT
ATOM      1  C   UNL     1       3.021   4.256  17.261  0.00  0.00    +0.000 C 
ATOM      2  C   UNL     1       2.588   4.615  18.660  0.00  0.00    +0.000 A 
ATOM      3  C   UNL     1       2.452   3.719  19.663  0.00  0.00    +0.000 A 
ATOM      4  C   UNL     1       2.075   4.162  21.035  0.00  0.00    +0.000 A 
ATOM      5  O   UNL     1       2.161   3.406  21.998  0.00  0.00    +0.000 OA
ATOM      6  O   UNL     1       1.629   5.462  21.194  0.00  0.00    +0.000 OA
ATOM      7  C   UNL     1       1.801   6.408  20.173  0.00  0.00    +0.000 A 
ATOM      8  C   UNL     1       1.476   7.730  20.485  0.00  0.00    +0.000 A 
ATOM      9  C   UNL     1       1.655   8.728  19.529  0.00  0.00    +0.000 A 
ATOM     10  C   UNL     1       2.199   8.386  18.290  0.00  0.00    +0.000 A 
ATOM     11  C   UNL     1       2.502   7.054  17.988  0.00  0.00    +0.000 A 
ATOM     12  C   UNL     1       2.300   6.036  18.928  0.00  0.00    +0.000 A 
ENDROOT
BRANCH   3  13
ATOM     13  C   UNL     1       2.749   2.239  19.551  0.00  0.00    +0.000 C 
BRANCH  13  14
ATOM     14  C   UNL     1       4.226   1.883  19.525  0.00  0.00    +0.000 C 
ATOM     15  O   UNL     1       5.127   2.504  20.068  0.00  0.00    +0.000 OA
BRANCH  14  16
ATOM     16  O   UNL     1       4.463   0.743  18.828  0.00  0.00    +0.000 OA
ATOM     17  H   UNL     1       4.255  -0.079  19.314  0.00  0.00    +0.000 HD
ENDBRANCH  14  16
ENDBRANCH  13  14
ENDBRANCH   3  13
BRANCH   9  18
ATOM     18  O   UNL     1       1.280   9.988  19.898  0.00  0.00    +0.000 OA
BRANCH  18  19
ATOM     19  C   UNL     1       0.982  10.879  18.813  0.00  0.00    +0.000 C 
BRANCH  19  20
ATOM     20  C   UNL     1      -0.507  10.918  18.556  0.00  0.00    +0.000 A 
ATOM     21  C   UNL     1      -1.078  10.046  17.607  0.00  0.00    +0.000 A 
ATOM     22  C   UNL     1      -2.452  10.058  17.360  0.00  0.00    +0.000 A 
ATOM     23  C   UNL     1      -3.263  10.933  18.067  0.00  0.00    +0.000 A 
ATOM     24  F   UNL     1      -4.581  10.950  17.826  0.00  0.00    +0.000 F 
ATOM     25  C   UNL     1      -2.736  11.785  19.026  0.00  0.00    +0.000 A 
ATOM     26  C   UNL     1      -1.363  11.769  19.279  0.00  0.00    +0.000 A 
ATOM     27 CL   UNL     1      -0.778  12.824  20.518  0.00  0.00    +0.000 Cl
ENDBRANCH  19  20
ENDBRANCH  18  19
ENDBRANCH   9  18
TORSDOF 6
ENDMDL
MODEL 4
REMARK VINA RESULT:      -8.0      3.279      4.500
REMARK  Name = 
REMARK  7 active torsions:
REMARK  status: ('A' for Active; 'I' for Inactive)
REMARK    1  A    between atoms: C_1  and  C_2
REMARK    2  A    between atoms: C_3  and  C_4
REMARK    3  A    between atoms: C_4  and  C_5
REMARK    4  A    between atoms: C_5  and  O_7
REMARK    5  A    between atoms: C_13  and  O_14
REMARK    6  A    between atoms: O_14  and  C_15
REMARK    7  A    between atoms: C_15  and  C_16
REMARK                            x       y       z     vdW  Elec       q    Type
REMARK                         _______ _______ _______ _____ _____    ______ ____
ROOT
ATOM      1  C   UNL     1       4.111   4.951  17.480  0.00  0.00    +0.000 C 
ATOM      2  C   UNL     1       3.327   5.130  18.756  0.00  0.00    +0.000 A 
ATOM      3  C   UNL     1       3.175   4.167  19.692  0.00  0.00    +0.000 A 
ATOM      4  C   UNL     1       2.432   4.440  20.955  0.00  0.00    +0.000 A 
ATOM      5  O   UNL     1       2.473   3.661  21.901  0.00  0.00    +0.000 OA
ATOM      6  O   UNL     1       1.699   5.611  21.031  0.00  0.00    +0.000 OA
ATOM      7  C   UNL     1       1.878   6.631  20.086  0.00  0.00    +0.000 A 
ATOM      8  C   UNL     1       1.222   7.839  20.338  0.00  0.00    +0.000 A 
ATOM      9  C   UNL     1       1.384   8.907  19.460  0.00  0.00    +0.000 A 
ATOM     10  C   UNL     1       2.236   8.759  18.365  0.00  0.00    +0.000 A 
ATOM     11  C   UNL     1       2.871   7.537  18.117  0.00  0.00    +0.000 A 
ATOM     12  C   UNL     1       2.695   6.444  18.975  0.00  0.00    +0.000 A 
ENDROOT
BRANCH   3  13
ATOM     13  C   UNL     1       3.795   2.787  19.626  0.00  0.00    +0.000 C 
BRANCH  13  14
ATOM     14  C   UNL     1       3.041   1.787  18.765  0.00  0.00    +0.000 C 
ATOM     15  O   UNL     1       1.871   1.867  18.424  0.00  0.00    +0.000 OA
BRANCH  14  16
ATOM     16  O   UNL     1       3.832   0.756  18.372  0.00  0.00    +0.000 OA
ATOM     17  H   UNL     1       3.348  -0.061  18.144  0.00  0.00    +0.000 HD
ENDBRANCH  14  16
ENDBRANCH  13  14
ENDBRANCH   3  13
BRANCH   9  18
ATOM     18  O   UNL     1       0.681  10.040  19.756  0.00  0.00    +0.000 OA
BRANCH  18  19
ATOM     19  C   UNL     1       0.397  10.894  18.637  0.00  0.00    +0.000 C 
BRANCH  19  20
ATOM     20  C   UNL     1      -1.081  10.876  18.322  0.00  0.00    +0.000 A 
ATOM     21  C   UNL     1      -1.592   9.936  17.405  0.00  0.00    +0.000 A 
ATOM     22  C   UNL     1      -2.954   9.895  17.106  0.00  0.00    +0.000 A 
ATOM     23  C   UNL     1      -3.816  10.786  17.730  0.00  0.00    +0.000 A 
ATOM     24  F   UNL     1      -5.122  10.753  17.439  0.00  0.00    +0.000 F 
ATOM     25  C   UNL     1      -3.348  11.706  18.657  0.00  0.00    +0.000 A 
ATOM     26  C   UNL     1      -1.986  11.743  18.962  0.00  0.00    +0.000 A 
ATOM     27 CL   UNL     1      -1.477  12.882  20.159  0.00  0.00    +0.000 Cl
ENDBRANCH  19  20
ENDBRANCH  18  19
ENDBRANCH   9  18
TORSDOF 6
ENDMDL
MODEL 5
REMARK VINA RESULT:      -8.0      3.089      4.136
REMARK  Name = 
REMARK  7 active torsions:
REMARK  status: ('A' for Active; 'I' for Inactive)
REMARK    1  A    between atoms: C_1  and  C_2
REMARK    2  A    between atoms: C_3  and  C_4
REMARK    3  A    between atoms: C_4  and  C_5
REMARK    4  A    between atoms: C_5  and  O_7
REMARK    5  A    between atoms: C_13  and  O_14
REMARK    6  A    between atoms: O_14  and  C_15
REMARK    7  A    between atoms: C_15  and  C_16
REMARK                            x       y       z     vdW  Elec       q    Type
REMARK                         _______ _______ _______ _____ _____    ______ ____
ROOT
ATOM      1  C   UNL     1       2.607   4.356  21.217  0.00  0.00    +0.000 C 
ATOM      2  C   UNL     1       2.940   4.996  19.893  0.00  0.00    +0.000 A 
ATOM      3  C   UNL     1       3.673   4.398  18.927  0.00  0.00    +0.000 A 
ATOM      4  C   UNL     1       3.909   5.075  17.620  0.00  0.00    +0.000 A 
ATOM      5  O   UNL     1       4.376   4.468  16.661  0.00  0.00    +0.000 OA
ATOM      6  O   UNL     1       3.576   6.413  17.517  0.00  0.00    +0.000 OA
ATOM      7  C   UNL     1       2.784   7.032  18.495  0.00  0.00    +0.000 A 
ATOM      8  C   UNL     1       2.359   8.335  18.223  0.00  0.00    +0.000 A 
ATOM      9  C   UNL     1       1.540   8.997  19.135  0.00  0.00    +0.000 A 
ATOM     10  C   UNL     1       1.127   8.323  20.284  0.00  0.00    +0.000 A 
ATOM     11  C   UNL     1       1.577   7.025  20.550  0.00  0.00    +0.000 A 
ATOM     12  C   UNL     1       2.424   6.357  19.657  0.00  0.00    +0.000 A 
ENDROOT
BRANCH   3  13
ATOM     13  C   UNL     1       4.233   2.994  19.006  0.00  0.00    +0.000 C 
BRANCH  13  14
ATOM     14  C   UNL     1       3.303   1.904  18.498  0.00  0.00    +0.000 C 
ATOM     15  O   UNL     1       2.124   2.040  18.209  0.00  0.00    +0.000 OA
BRANCH  14  16
ATOM     16  O   UNL     1       3.940   0.712  18.368  0.00  0.00    +0.000 OA
ATOM     17  H   UNL     1       3.446  -0.051  18.726  0.00  0.00    +0.000 HD
ENDBRANCH  14  16
ENDBRANCH  13  14
ENDBRANCH   3  13
BRANCH   9  18
ATOM     18  O   UNL     1       1.198  10.279  18.814  0.00  0.00    +0.000 OA
BRANCH  18  19
ATOM     19  C   UNL     1       0.068  10.807  19.526  0.00  0.00    +0.000 C 
BRANCH  19  20
ATOM     20  C   UNL     1      -1.160  10.801  18.644  0.00  0.00    +0.000 A 
ATOM     21  C   UNL     1      -1.210   9.954  17.518  0.00  0.00    +0.000 A 
ATOM     22  C   UNL     1      -2.337   9.925  16.695  0.00  0.00    +0.000 A 
ATOM     23  C   UNL     1      -3.423  10.734  16.998  0.00  0.00    +0.000 A 
ATOM     24  F   UNL     1      -4.501  10.713  16.204  0.00  0.00    +0.000 F 
ATOM     25  C   UNL     1      -3.414  11.559  18.113  0.00  0.00    +0.000 A 
ATOM     26  C   UNL     1      -2.290  11.583  18.941  0.00  0.00    +0.000 A 
ATOM     27 CL   UNL     1      -2.363  12.599  20.339  0.00  0.00    +0.000 Cl
ENDBRANCH  19  20
ENDBRANCH  18  19
ENDBRANCH   9  18
TORSDOF 6
ENDMDL
MODEL 6
REMARK VINA RESULT:      -8.0      1.172      1.264
REMARK  Name = 
REMARK  7 active torsions:
REMARK  status: ('A' for Active; 'I' for Inactive)
REMARK    1  A    between atoms: C_1  and  C_2
REMARK    2  A    between atoms: C_3  and  C_4
REMARK    3  A    between atoms: C_4  and  C_5
REMARK    4  A    between atoms: C_5  and  O_7
REMARK    5  A    between atoms: C_13  and  O_14
REMARK    6  A    between atoms: O_14  and  C_15
REMARK    7  A    between atoms: C_15  and  C_16
REMARK                            x       y       z     vdW  Elec       q    Type
REMARK                         _______ _______ _______ _____ _____    ______ ____
ROOT
ATOM      1  C   UNL     1       4.484   3.295  18.931  0.00  0.00    +0.000 C 
ATOM      2  C   UNL     1       4.275   4.669  18.345  0.00  0.00    +0.000 A 
ATOM      3  C   UNL     1       4.889   5.116  17.228  0.00  0.00    +0.000 A 
ATOM      4  C   UNL     1       4.585   6.469  16.679  0.00  0.00    +0.000 A 
ATOM      5  O   UNL     1       4.959   6.803  15.559  0.00  0.00    +0.000 OA
ATOM      6  O   UNL     1       3.857   7.337  17.471  0.00  0.00    +0.000 OA
ATOM      7  C   UNL     1       3.185   6.874  18.612  0.00  0.00    +0.000 A 
ATOM      8  C   UNL     1       2.340   7.785  19.252  0.00  0.00    +0.000 A 
ATOM      9  C   UNL     1       1.614   7.381  20.370  0.00  0.00    +0.000 A 
ATOM     10  C   UNL     1       1.716   6.058  20.801  0.00  0.00    +0.000 A 
ATOM     11  C   UNL     1       2.580   5.164  20.158  0.00  0.00    +0.000 A 
ATOM     12  C   UNL     1       3.338   5.563  19.051  0.00  0.00    +0.000 A 
ENDROOT
BRANCH   3  13
ATOM     13  C   UNL     1       5.841   4.304  16.376  0.00  0.00    +0.000 C 
BRANCH  13  14
ATOM     14  C   UNL     1       7.307   4.681  16.517  0.00  0.00    +0.000 C 
ATOM     15  O   UNL     1       8.104   4.194  17.303  0.00  0.00    +0.000 OA
BRANCH  14  16
ATOM     16  O   UNL     1       7.673   5.640  15.629  0.00  0.00    +0.000 OA
ATOM     17  H   UNL     1       6.940   5.990  15.086  0.00  0.00    +0.000 HD
ENDBRANCH  14  16
ENDBRANCH  13  14
ENDBRANCH   3  13
BRANCH   9  18
ATOM     18  O   UNL     1       0.840   8.339  20.961  0.00  0.00    +0.000 OA
BRANCH  18  19
ATOM     19  C   UNL     1       0.708   9.562  20.220  0.00  0.00    +0.000 C 
BRANCH  19  20
ATOM     20  C   UNL     1       0.144  10.653  21.101  0.00  0.00    +0.000 A 
ATOM     21  C   UNL     1      -0.743  10.323  22.145  0.00  0.00    +0.000 A 
ATOM     22  C   UNL     1      -1.269  11.312  22.977  0.00  0.00    +0.000 A 
ATOM     23  C   UNL     1      -0.904  12.636  22.776  0.00  0.00    +0.000 A 
ATOM     24  F   UNL     1      -1.414  13.587  23.569  0.00  0.00    +0.000 F 
ATOM     25  C   UNL     1      -0.013  12.990  21.774  0.00  0.00    +0.000 A 
ATOM     26  C   UNL     1       0.520  12.000  20.946  0.00  0.00    +0.000 A 
ATOM     27 CL   UNL     1       1.659  12.504  19.747  0.00  0.00    +0.000 Cl
ENDBRANCH  19  20
ENDBRANCH  18  19
ENDBRANCH   9  18
TORSDOF 6
ENDMDL
MODEL 7
REMARK VINA RESULT:      -8.0      1.197      1.707
REMARK  Name = 
REMARK  7 active torsions:
REMARK  status: ('A' for Active; 'I' for Inactive)
REMARK    1  A    between atoms: C_1  and  C_2
REMARK    2  A    between atoms: C_3  and  C_4
REMARK    3  A    between atoms: C_4  and  C_5
REMARK    4  A    between atoms: C_5  and  O_7
REMARK    5  A    between atoms: C_13  and  O_14
REMARK    6  A    between atoms: O_14  and  C_15
REMARK    7  A    between atoms: C_15  and  C_16
REMARK                            x       y       z     vdW  Elec       q    Type
REMARK                         _______ _______ _______ _____ _____    ______ ____
ROOT
ATOM      1  C   UNL     1       3.874   2.753  17.627  0.00  0.00    +0.000 C 
ATOM      2  C   UNL     1       3.930   4.257  17.530  0.00  0.00    +0.000 A 
ATOM      3  C   UNL     1       4.686   4.930  16.634  0.00  0.00    +0.000 A 
ATOM      4  C   UNL     1       4.642   6.418  16.564  0.00  0.00    +0.000 A 
ATOM      5  O   UNL     1       5.142   7.028  15.624  0.00  0.00    +0.000 OA
ATOM      6  O   UNL     1       4.008   7.094  17.591  0.00  0.00    +0.000 OA
ATOM      7  C   UNL     1       3.192   6.409  18.502  0.00  0.00    +0.000 A 
ATOM      8  C   UNL     1       2.461   7.193  19.398  0.00  0.00    +0.000 A 
ATOM      9  C   UNL     1       1.602   6.581  20.308  0.00  0.00    +0.000 A 
ATOM     10  C   UNL     1       1.460   5.194  20.274  0.00  0.00    +0.000 A 
ATOM     11  C   UNL     1       2.213   4.422  19.382  0.00  0.00    +0.000 A 
ATOM     12  C   UNL     1       3.102   5.020  18.481  0.00  0.00    +0.000 A 
ENDROOT
BRANCH   3  13
ATOM     13  C   UNL     1       5.553   4.286  15.573  0.00  0.00    +0.000 C 
BRANCH  13  14
ATOM     14  C   UNL     1       7.034   4.611  15.673  0.00  0.00    +0.000 C 
ATOM     15  O   UNL     1       7.706   5.181  14.828  0.00  0.00    +0.000 OA
BRANCH  14  16
ATOM     16  O   UNL     1       7.564   4.210  16.857  0.00  0.00    +0.000 OA
ATOM     17  H   UNL     1       6.982   3.628  17.384  0.00  0.00    +0.000 HD
ENDBRANCH  14  16
ENDBRANCH  13  14
ENDBRANCH   3  13
BRANCH   9  18
ATOM     18  O   UNL     1       0.952   7.413  21.174  0.00  0.00    +0.000 OA
BRANCH  18  19
ATOM     19  C   UNL     1       1.540   8.714  21.331  0.00  0.00    +0.000 C 
BRANCH  19  20
ATOM     20  C   UNL     1       0.573   9.786  20.884  0.00  0.00    +0.000 A 
ATOM     21  C   UNL     1       0.545  10.186  19.533  0.00  0.00    +0.000 A 
ATOM     22  C   UNL     1      -0.345  11.168  19.097  0.00  0.00    +0.000 A 
ATOM     23  C   UNL     1      -1.219  11.748  20.005  0.00  0.00    +0.000 A 
ATOM     24  F   UNL     1      -2.069  12.696  19.589  0.00  0.00    +0.000 F 
ATOM     25  C   UNL     1      -1.233  11.358  21.336  0.00  0.00    +0.000 A 
ATOM     26  C   UNL     1      -0.348  10.371  21.772  0.00  0.00    +0.000 A 
ATOM     27 CL   UNL     1      -0.450   9.899  23.433  0.00  0.00    +0.000 Cl
ENDBRANCH  19  20
ENDBRANCH  18  19
ENDBRANCH   9  18
TORSDOF 6
ENDMDL
MODEL 8
REMARK VINA RESULT:      -8.0      1.249      1.601
REMARK  Name = 
REMARK  7 active torsions:
REMARK  status: ('A' for Active; 'I' for Inactive)
REMARK    1  A    between atoms: C_1  and  C_2
REMARK    2  A    between atoms: C_3  and  C_4
REMARK    3  A    between atoms: C_4  and  C_5
REMARK    4  A    between atoms: C_5  and  O_7
REMARK    5  A    between atoms: C_13  and  O_14
REMARK    6  A    between atoms: O_14  and  C_15
REMARK    7  A    between atoms: C_15  and  C_16
REMARK                            x       y       z     vdW  Elec       q    Type
REMARK                         _______ _______ _______ _____ _____    ______ ____
ROOT
ATOM      1  C   UNL     1       4.339   3.182  18.782  0.00  0.00    +0.000 C 
ATOM      2  C   UNL     1       4.180   4.590  18.264  0.00  0.00    +0.000 A 
ATOM      3  C   UNL     1       4.830   5.076  17.183  0.00  0.00    +0.000 A 
ATOM      4  C   UNL     1       4.575   6.462  16.699  0.00  0.00    +0.000 A 
ATOM      5  O   UNL     1       4.980   6.843  15.606  0.00  0.00    +0.000 OA
ATOM      6  O   UNL     1       3.855   7.310  17.522  0.00  0.00    +0.000 OA
ATOM      7  C   UNL     1       3.147   6.809  18.624  0.00  0.00    +0.000 A 
ATOM      8  C   UNL     1       2.315   7.710  19.294  0.00  0.00    +0.000 A 
ATOM      9  C   UNL     1       1.555   7.271  20.376  0.00  0.00    +0.000 A 
ATOM     10  C   UNL     1       1.611   5.925  20.739  0.00  0.00    +0.000 A 
ATOM     11  C   UNL     1       2.463   5.041  20.068  0.00  0.00    +0.000 A 
ATOM     12  C   UNL     1       3.255   5.473  18.998  0.00  0.00    +0.000 A 
ENDROOT
BRANCH   3  13
ATOM     13  C   UNL     1       5.776   4.281  16.309  0.00  0.00    +0.000 C 
BRANCH  13  14
ATOM     14  C   UNL     1       7.239   4.677  16.423  0.00  0.00    +0.000 C 
ATOM     15  O   UNL     1       8.017   4.320  17.294  0.00  0.00    +0.000 OA
BRANCH  14  16
ATOM     16  O   UNL     1       7.626   5.488  15.406  0.00  0.00    +0.000 OA
ATOM     17  H   UNL     1       8.468   5.958  15.562  0.00  0.00    +0.000 HD
ENDBRANCH  14  16
ENDBRANCH  13  14
ENDBRANCH   3  13
BRANCH   9  18
ATOM     18  O   UNL     1       0.796   8.219  21.000  0.00  0.00    +0.000 OA
BRANCH  18  19
ATOM     19  C   UNL     1       1.003   9.565  20.546  0.00  0.00    +0.000 C 
BRANCH  19  20
ATOM     20  C   UNL     1      -0.076  10.475  21.085  0.00  0.00    +0.000 A 
ATOM     21  C   UNL     1      -0.778  11.326  20.208  0.00  0.00    +0.000 A 
ATOM     22  C   UNL     1      -1.785  12.169  20.682  0.00  0.00    +0.000 A 
ATOM     23  C   UNL     1      -2.103  12.157  22.033  0.00  0.00    +0.000 A 
ATOM     24  F   UNL     1      -3.064  12.971  22.490  0.00  0.00    +0.000 F 
ATOM     25  C   UNL     1      -1.449  11.313  22.917  0.00  0.00    +0.000 A 
ATOM     26  C   UNL     1      -0.446  10.465  22.442  0.00  0.00    +0.000 A 
ATOM     27 CL   UNL     1       0.298   9.405  23.590  0.00  0.00    +0.000 Cl
ENDBRANCH  19  20
ENDBRANCH  18  19
ENDBRANCH   9  18
TORSDOF 6
ENDMDL
MODEL 9
REMARK VINA RESULT:      -7.9      1.558      2.336
REMARK  Name = 
REMARK  7 active torsions:
REMARK  status: ('A' for Active; 'I' for Inactive)
REMARK    1  A    between atoms: C_1  and  C_2
REMARK    2  A    between atoms: C_3  and  C_4
REMARK    3  A    between atoms: C_4  and  C_5
REMARK    4  A    between atoms: C_5  and  O_7
REMARK    5  A    between atoms: C_13  and  O_14
REMARK    6  A    between atoms: O_14  and  C_15
REMARK    7  A    between atoms: C_15  and  C_16
REMARK                            x       y       z     vdW  Elec       q    Type
REMARK                         _______ _______ _______ _____ _____    ______ ____
ROOT
ATOM      1  C   UNL     1       4.726   6.672  15.949  0.00  0.00    +0.000 C 
ATOM      2  C   UNL     1       4.363   6.048  17.273  0.00  0.00    +0.000 A 
ATOM      3  C   UNL     1       4.841   4.859  17.705  0.00  0.00    +0.000 A 
ATOM      4  C   UNL     1       4.480   4.336  19.053  0.00  0.00    +0.000 A 
ATOM      5  O   UNL     1       5.071   3.381  19.548  0.00  0.00    +0.000 OA
ATOM      6  O   UNL     1       3.459   4.970  19.738  0.00  0.00    +0.000 OA
ATOM      7  C   UNL     1       2.983   6.221  19.319  0.00  0.00    +0.000 A 
ATOM      8  C   UNL     1       2.073   6.858  20.166  0.00  0.00    +0.000 A 
ATOM      9  C   UNL     1       1.586   8.119  19.829  0.00  0.00    +0.000 A 
ATOM     10  C   UNL     1       2.055   8.737  18.669  0.00  0.00    +0.000 A 
ATOM     11  C   UNL     1       2.953   8.076  17.823  0.00  0.00    +0.000 A 
ATOM     12  C   UNL     1       3.429   6.796  18.133  0.00  0.00    +0.000 A 
ENDROOT
BRANCH   3  13
ATOM     13  C   UNL     1       5.835   3.999  16.954  0.00  0.00    +0.000 C 
BRANCH  13  14
ATOM     14  C   UNL     1       7.286   4.433  17.088  0.00  0.00    +0.000 C 
ATOM     15  O   UNL     1       7.937   4.465  18.120  0.00  0.00    +0.000 OA
BRANCH  14  16
ATOM     16  O   UNL     1       7.826   4.776  15.891  0.00  0.00    +0.000 OA
ATOM     17  H   UNL     1       7.502   4.249  15.134  0.00  0.00    +0.000 HD
ENDBRANCH  14  16
ENDBRANCH  13  14
ENDBRANCH   3  13
BRANCH   9  18
ATOM     18  O   UNL     1       0.673   8.660  20.689  0.00  0.00    +0.000 OA
BRANCH  18  19
ATOM     19  C   UNL     1       1.044   9.925  21.258  0.00  0.00    +0.000 C 
BRANCH  19  20
ATOM     20  C   UNL     1      -0.186  10.766  21.518  0.00  0.00    +0.000 A 
ATOM     21  C   UNL     1      -0.742  10.812  22.813  0.00  0.00    +0.000 A 
ATOM     22  C   UNL     1      -1.872  11.587  23.078  0.00  0.00    +0.000 A 
ATOM     23  C   UNL     1      -2.444  12.329  22.055  0.00  0.00    +0.000 A 
ATOM     24  F   UNL     1      -3.532  13.068  22.308  0.00  0.00    +0.000 F 
ATOM     25  C   UNL     1      -1.906  12.325  20.778  0.00  0.00    +0.000 A 
ATOM     26  C   UNL     1      -0.771  11.555  20.512  0.00  0.00    +0.000 A 
ATOM     27 CL   UNL     1      -0.124  11.631  18.910  0.00  0.00    +0.000 Cl
ENDBRANCH  19  20
ENDBRANCH  18  19
ENDBRANCH   9  18
TORSDOF 6
ENDMDL
