MODEL 1
REMARK VINA RESULT:      -7.7      0.000      0.000
REMARK  Name = 
REMARK  5 active torsions:
REMARK  status: ('A' for Active; 'I' for Inactive)
REMARK    1  A    between atoms: C_4  and  C_5
REMARK    2  A    between atoms: C_5  and  C_6
REMARK    3  A    between atoms: C_6  and  C_7
REMARK    4  A    between atoms: C_7  and  N_8
REMARK    5  A    between atoms: N_11  and  C_12
REMARK                            x       y       z     vdW  Elec       q    Type
REMARK                         _______ _______ _______ _____ _____    ______ ____
ROOT
ATOM      1  N   UNL     1       6.912   4.704  19.012  0.00  0.00    +0.000 N 
ATOM      2  C   UNL     1       5.577   4.472  19.174  0.00  0.00    +0.000 C 
ATOM      3  O   UNL     1       4.826   5.225  19.779  0.00  0.00    +0.000 OA
ATOM      4  N   UNL     1       5.162   3.315  18.555  0.00  0.00    +0.000 N 
ATOM      5  H   UNL     1       7.455   4.120  18.394  0.00  0.00    +0.000 HD
ATOM      6  H   UNL     1       5.862   2.601  18.424  0.00  0.00    +0.000 HD
ENDROOT
BRANCH   4   7
ATOM      7  C   UNL     1       3.757   2.910  18.616  0.00  0.00    +0.000 C 
ATOM      8  C   UNL     1       3.485   2.059  19.867  0.00  0.00    +0.000 C 
ATOM      9  C   UNL     1       2.903   2.793  21.076  0.00  0.00    +0.000 C 
ATOM     10  C   UNL     1       1.381   2.945  21.011  0.00  0.00    +0.000 C 
ATOM     11  C   UNL     1       0.865   3.978  20.016  0.00  0.00    +0.000 C 
ATOM     12  C   UNL     1       1.355   3.805  18.583  0.00  0.00    +0.000 C 
ATOM     13  C   UNL     1       2.840   4.125  18.422  0.00  0.00    +0.000 C 
ENDBRANCH   4   7
BRANCH   1  14
ATOM     14  C   UNL     1       7.533   5.916  19.509  0.00  0.00    +0.000 C 
BRANCH  14  15
ATOM     15  C   UNL     1       8.128   6.774  18.393  0.00  0.00    +0.000 C 
BRANCH  15  16
ATOM     16  C   UNL     1       7.082   7.434  17.493  0.00  0.00    +0.000 C 
BRANCH  16  20
ATOM     17  N   UNL     1       6.636   3.846  14.320  0.00  0.00    +0.000 N 
ATOM     18  C   UNL     1       6.366   4.873  15.130  0.00  0.00    +0.000 A 
ATOM     19  N   UNL     1       7.196   5.510  15.916  0.00  0.00    +0.000 NA
ATOM     20  C   UNL     1       6.448   6.493  16.530  0.00  0.00    +0.000 A 
ATOM     21  C   UNL     1       5.137   6.429  16.109  0.00  0.00    +0.000 A 
ATOM     22  N   UNL     1       5.104   5.395  15.214  0.00  0.00    +0.000 N 
ATOM     23  H   UNL     1       7.541   3.402  14.450  0.00  0.00    +0.000 HD
ATOM     24  H   UNL     1       5.917   3.220  13.980  0.00  0.00    +0.000 HD
ATOM     25  H   UNL     1       4.306   5.077  14.687  0.00  0.00    +0.000 HD
ENDBRANCH  16  20
ENDBRANCH  15  16
ENDBRANCH  14  15
ENDBRANCH   1  14
TORSDOF 5
ENDMDL
MODEL 2
REMARK VINA RESULT:      -7.6      3.957      4.857
REMARK  Name = 
REMARK  5 active torsions:
REMARK  status: ('A' for Active; 'I' for Inactive)
REMARK    1  A    between atoms: C_4  and  C_5
REMARK    2  A    between atoms: C_5  and  C_6
REMARK    3  A    between atoms: C_6  and  C_7
REMARK    4  A    between atoms: C_7  and  N_8
REMARK    5  A    between atoms: N_11  and  C_12
REMARK                            x       y       z     vdW  Elec       q    Type
REMARK                         _______ _______ _______ _____ _____    ______ ____
ROOT
ATOM      1  N   UNL     1       6.438   6.858  17.661  0.00  0.00    +0.000 N 
ATOM      2  C   UNL     1       6.016   5.737  18.315  0.00  0.00    +0.000 C 
ATOM      3  O   UNL     1       6.708   5.114  19.109  0.00  0.00    +0.000 OA
ATOM      4  N   UNL     1       4.716   5.404  18.011  0.00  0.00    +0.000 N 
ATOM      5  H   UNL     1       5.783   7.406  17.122  0.00  0.00    +0.000 HD
ATOM      6  H   UNL     1       4.372   5.716  17.115  0.00  0.00    +0.000 HD
ENDROOT
BRANCH   4   7
ATOM      7  C   UNL     1       4.090   4.233  18.627  0.00  0.00    +0.000 C 
ATOM      8  C   UNL     1       3.366   4.617  19.927  0.00  0.00    +0.000 C 
ATOM      9  C   UNL     1       1.860   4.860  19.823  0.00  0.00    +0.000 C 
ATOM     10  C   UNL     1       1.038   3.571  19.902  0.00  0.00    +0.000 C 
ATOM     11  C   UNL     1       1.078   2.687  18.661  0.00  0.00    +0.000 C 
ATOM     12  C   UNL     1       2.472   2.295  18.184  0.00  0.00    +0.000 C 
ATOM     13  C   UNL     1       3.248   3.470  17.595  0.00  0.00    +0.000 C 
ENDBRANCH   4   7
BRANCH   1  14
ATOM     14  C   UNL     1       7.746   7.431  17.912  0.00  0.00    +0.000 C 
BRANCH  14  15
ATOM     15  C   UNL     1       7.768   8.949  17.739  0.00  0.00    +0.000 C 
BRANCH  15  16
ATOM     16  C   UNL     1       8.820   9.657  18.594  0.00  0.00    +0.000 C 
BRANCH  16  20
ATOM     17  N   UNL     1      11.557  13.344  17.160  0.00  0.00    +0.000 N 
ATOM     18  C   UNL     1      10.505  12.579  17.465  0.00  0.00    +0.000 A 
ATOM     19  N   UNL     1      10.514  11.345  17.899  0.00  0.00    +0.000 NA
ATOM     20  C   UNL     1       9.190  11.004  18.083  0.00  0.00    +0.000 A 
ATOM     21  C   UNL     1       8.373  12.059  17.735  0.00  0.00    +0.000 A 
ATOM     22  N   UNL     1       9.228  13.054  17.349  0.00  0.00    +0.000 N 
ATOM     23  H   UNL     1      12.451  12.866  17.096  0.00  0.00    +0.000 HD
ATOM     24  H   UNL     1      11.482  14.155  16.559  0.00  0.00    +0.000 HD
ATOM     25  H   UNL     1       8.977  13.984  17.050  0.00  0.00    +0.000 HD
ENDBRANCH  16  20
ENDBRANCH  15  16
ENDBRANCH  14  15
ENDBRANCH   1  14
TORSDOF 5
ENDMDL
MODEL 3
REMARK VINA RESULT:      -7.5      1.607      3.168
REMARK  Name = 
REMARK  5 active torsions:
REMARK  status: ('A' for Active; 'I' for Inactive)
REMARK    1  A    between atoms: C_4  and  C_5
REMARK    2  A    between atoms: C_5  and  C_6
REMARK    3  A    between atoms: C_6  and  C_7
REMARK    4  A    between atoms: C_7  and  N_8
REMARK    5  A    between atoms: N_11  and  C_12
REMARK                            x       y       z     vdW  Elec       q    Type
REMARK                         _______ _______ _______ _____ _____    ______ ____
ROOT
ATOM      1  N   UNL     1       5.368   3.175  16.070  0.00  0.00    +0.000 N 
ATOM      2  C   UNL     1       4.368   3.263  16.995  0.00  0.00    +0.000 C 
ATOM      3  O   UNL     1       3.583   4.199  17.059  0.00  0.00    +0.000 OA
ATOM      4  N   UNL     1       4.318   2.168  17.827  0.00  0.00    +0.000 N 
ATOM      5  H   UNL     1       5.898   2.321  15.979  0.00  0.00    +0.000 HD
ATOM      6  H   UNL     1       5.182   1.662  17.954  0.00  0.00    +0.000 HD
ENDROOT
BRANCH   4   7
ATOM      7  C   UNL     1       3.303   2.085  18.877  0.00  0.00    +0.000 C 
ATOM      8  C   UNL     1       3.778   2.791  20.158  0.00  0.00    +0.000 C 
ATOM      9  C   UNL     1       3.291   4.226  20.365  0.00  0.00    +0.000 C 
ATOM     10  C   UNL     1       1.900   4.301  20.998  0.00  0.00    +0.000 C 
ATOM     11  C   UNL     1       0.738   3.940  20.081  0.00  0.00    +0.000 C 
ATOM     12  C   UNL     1       0.843   2.578  19.402  0.00  0.00    +0.000 C 
ATOM     13  C   UNL     1       1.937   2.530  18.338  0.00  0.00    +0.000 C 
ENDBRANCH   4   7
BRANCH   1  14
ATOM     14  C   UNL     1       5.534   4.182  15.041  0.00  0.00    +0.000 C 
BRANCH  14  15
ATOM     15  C   UNL     1       6.680   5.147  15.341  0.00  0.00    +0.000 C 
BRANCH  15  16
ATOM     16  C   UNL     1       6.275   6.342  16.206  0.00  0.00    +0.000 C 
BRANCH  16  20
ATOM     17  N   UNL     1       8.460   5.285  20.359  0.00  0.00    +0.000 N 
ATOM     18  C   UNL     1       8.043   5.927  19.265  0.00  0.00    +0.000 A 
ATOM     19  N   UNL     1       7.272   5.467  18.313  0.00  0.00    +0.000 NA
ATOM     20  C   UNL     1       7.118   6.507  17.421  0.00  0.00    +0.000 A 
ATOM     21  C   UNL     1       7.827   7.610  17.847  0.00  0.00    +0.000 A 
ATOM     22  N   UNL     1       8.406   7.224  19.024  0.00  0.00    +0.000 N 
ATOM     23  H   UNL     1       8.303   4.281  20.374  0.00  0.00    +0.000 HD
ATOM     24  H   UNL     1       9.273   5.580  20.884  0.00  0.00    +0.000 HD
ATOM     25  H   UNL     1       8.981   7.790  19.629  0.00  0.00    +0.000 HD
ENDBRANCH  16  20
ENDBRANCH  15  16
ENDBRANCH  14  15
ENDBRANCH   1  14
TORSDOF 5
ENDMDL
MODEL 4
REMARK VINA RESULT:      -7.3      4.191      5.280
REMARK  Name = 
REMARK  5 active torsions:
REMARK  status: ('A' for Active; 'I' for Inactive)
REMARK    1  A    between atoms: C_4  and  C_5
REMARK    2  A    between atoms: C_5  and  C_6
REMARK    3  A    between atoms: C_6  and  C_7
REMARK    4  A    between atoms: C_7  and  N_8
REMARK    5  A    between atoms: N_11  and  C_12
REMARK                            x       y       z     vdW  Elec       q    Type
REMARK                         _______ _______ _______ _____ _____    ______ ____
ROOT
ATOM      1  N   UNL     1       7.123   6.942  17.947  0.00  0.00    +0.000 N 
ATOM      2  C   UNL     1       6.031   6.496  17.259  0.00  0.00    +0.000 C 
ATOM      3  O   UNL     1       5.723   6.895  16.144  0.00  0.00    +0.000 OA
ATOM      4  N   UNL     1       5.335   5.524  17.942  0.00  0.00    +0.000 N 
ATOM      5  H   UNL     1       7.403   6.483  18.802  0.00  0.00    +0.000 HD
ATOM      6  H   UNL     1       5.422   5.534  18.947  0.00  0.00    +0.000 HD
ENDROOT
BRANCH   4   7
ATOM      7  C   UNL     1       4.139   4.922  17.352  0.00  0.00    +0.000 C 
ATOM      8  C   UNL     1       4.336   3.414  17.127  0.00  0.00    +0.000 C 
ATOM      9  C   UNL     1       3.776   2.486  18.206  0.00  0.00    +0.000 C 
ATOM     10  C   UNL     1       2.287   2.184  18.022  0.00  0.00    +0.000 C 
ATOM     11  C   UNL     1       1.335   3.321  18.374  0.00  0.00    +0.000 C 
ATOM     12  C   UNL     1       1.610   4.644  17.666  0.00  0.00    +0.000 C 
ATOM     13  C   UNL     1       2.890   5.320  18.151  0.00  0.00    +0.000 C 
ENDBRANCH   4   7
BRANCH   1  14
ATOM     14  C   UNL     1       8.043   7.899  17.366  0.00  0.00    +0.000 C 
BRANCH  14  15
ATOM     15  C   UNL     1       7.893   9.297  17.963  0.00  0.00    +0.000 C 
BRANCH  15  16
ATOM     16  C   UNL     1       9.126   9.781  18.729  0.00  0.00    +0.000 C 
BRANCH  16  20
ATOM     17  N   UNL     1       9.102  14.399  17.385  0.00  0.00    +0.000 N 
ATOM     18  C   UNL     1       9.501  13.162  17.690  0.00  0.00    +0.000 A 
ATOM     19  N   UNL     1       8.766  12.167  18.114  0.00  0.00    +0.000 NA
ATOM     20  C   UNL     1       9.629  11.103  18.269  0.00  0.00    +0.000 A 
ATOM     21  C   UNL     1      10.914  11.481  17.942  0.00  0.00    +0.000 A 
ATOM     22  N   UNL     1      10.813  12.793  17.571  0.00  0.00    +0.000 N 
ATOM     23  H   UNL     1       8.159  14.646  17.672  0.00  0.00    +0.000 HD
ATOM     24  H   UNL     1       9.740  15.184  17.358  0.00  0.00    +0.000 HD
ATOM     25  H   UNL     1      11.559  13.388  17.245  0.00  0.00    +0.000 HD
ENDBRANCH  16  20
ENDBRANCH  15  16
ENDBRANCH  14  15
ENDBRANCH   1  14
TORSDOF 5
ENDMDL
MODEL 5
REMARK VINA RESULT:      -7.2      1.183      1.563
REMARK  Name = 
REMARK  5 active torsions:
REMARK  status: ('A' for Active; 'I' for Inactive)
REMARK    1  A    between atoms: C_4  and  C_5
REMARK    2  A    between atoms: C_5  and  C_6
REMARK    3  A    between atoms: C_6  and  C_7
REMARK    4  A    between atoms: C_7  and  N_8
REMARK    5  A    between atoms: N_11  and  C_12
REMARK                            x       y       z     vdW  Elec       q    Type
REMARK                         _______ _______ _______ _____ _____    ______ ____
ROOT
ATOM      1  N   UNL     1       6.526   4.749  19.055  0.00  0.00    +0.000 N 
ATOM      2  C   UNL     1       5.249   4.288  19.193  0.00  0.00    +0.000 C 
ATOM      3  O   UNL     1       4.259   5.005  19.135  0.00  0.00    +0.000 OA
ATOM      4  N   UNL     1       5.194   2.924  19.370  0.00  0.00    +0.000 N 
ATOM      5  H   UNL     1       7.293   4.097  18.978  0.00  0.00    +0.000 HD
ATOM      6  H   UNL     1       6.013   2.492  19.772  0.00  0.00    +0.000 HD
ENDROOT
BRANCH   4   7
ATOM      7  C   UNL     1       3.904   2.252  19.528  0.00  0.00    +0.000 C 
ATOM      8  C   UNL     1       3.390   2.380  20.971  0.00  0.00    +0.000 C 
ATOM      9  C   UNL     1       2.381   3.498  21.239  0.00  0.00    +0.000 C 
ATOM     10  C   UNL     1       0.942   3.099  20.902  0.00  0.00    +0.000 C 
ATOM     11  C   UNL     1       0.609   3.025  19.417  0.00  0.00    +0.000 C 
ATOM     12  C   UNL     1       1.522   2.129  18.588  0.00  0.00    +0.000 C 
ATOM     13  C   UNL     1       2.929   2.701  18.430  0.00  0.00    +0.000 C 
ENDBRANCH   4   7
BRANCH   1  14
ATOM     14  C   UNL     1       6.798   6.144  18.767  0.00  0.00    +0.000 C 
BRANCH  14  15
ATOM     15  C   UNL     1       6.420   6.535  17.340  0.00  0.00    +0.000 C 
BRANCH  15  16
ATOM     16  C   UNL     1       7.437   6.095  16.285  0.00  0.00    +0.000 C 
BRANCH  16  20
ATOM     17  N   UNL     1       6.538   3.710  12.205  0.00  0.00    +0.000 N 
ATOM     18  C   UNL     1       6.582   4.064  13.492  0.00  0.00    +0.000 A 
ATOM     19  N   UNL     1       7.175   5.107  14.013  0.00  0.00    +0.000 NA
ATOM     20  C   UNL     1       6.921   5.043  15.367  0.00  0.00    +0.000 A 
ATOM     21  C   UNL     1       6.171   3.924  15.659  0.00  0.00    +0.000 A 
ATOM     22  N   UNL     1       5.960   3.315  14.453  0.00  0.00    +0.000 N 
ATOM     23  H   UNL     1       7.171   4.207  11.584  0.00  0.00    +0.000 HD
ATOM     24  H   UNL     1       6.334   2.764  11.909  0.00  0.00    +0.000 HD
ATOM     25  H   UNL     1       5.426   2.477  14.284  0.00  0.00    +0.000 HD
ENDBRANCH  16  20
ENDBRANCH  15  16
ENDBRANCH  14  15
ENDBRANCH   1  14
TORSDOF 5
ENDMDL
MODEL 6
REMARK VINA RESULT:      -7.2      4.012      5.021
REMARK  Name = 
REMARK  5 active torsions:
REMARK  status: ('A' for Active; 'I' for Inactive)
REMARK    1  A    between atoms: C_4  and  C_5
REMARK    2  A    between atoms: C_5  and  C_6
REMARK    3  A    between atoms: C_6  and  C_7
REMARK    4  A    between atoms: C_7  and  N_8
REMARK    5  A    between atoms: N_11  and  C_12
REMARK                            x       y       z     vdW  Elec       q    Type
REMARK                         _______ _______ _______ _____ _____    ______ ____
ROOT
ATOM      1  N   UNL     1       6.467   7.002  17.418  0.00  0.00    +0.000 N 
ATOM      2  C   UNL     1       6.041   5.843  17.999  0.00  0.00    +0.000 C 
ATOM      3  O   UNL     1       6.766   5.106  18.654  0.00  0.00    +0.000 OA
ATOM      4  N   UNL     1       4.699   5.611  17.798  0.00  0.00    +0.000 N 
ATOM      5  H   UNL     1       5.798   7.635  17.005  0.00  0.00    +0.000 HD
ATOM      6  H   UNL     1       4.291   6.031  16.976  0.00  0.00    +0.000 HD
ENDROOT
BRANCH   4   7
ATOM      7  C   UNL     1       4.065   4.417  18.357  0.00  0.00    +0.000 C 
ATOM      8  C   UNL     1       3.570   4.678  19.789  0.00  0.00    +0.000 C 
ATOM      9  C   UNL     1       2.092   5.039  19.945  0.00  0.00    +0.000 C 
ATOM     10  C   UNL     1       1.177   3.813  19.993  0.00  0.00    +0.000 C 
ATOM     11  C   UNL     1       0.960   3.100  18.664  0.00  0.00    +0.000 C 
ATOM     12  C   UNL     1       2.232   2.675  17.937  0.00  0.00    +0.000 C 
ATOM     13  C   UNL     1       3.020   3.859  17.381  0.00  0.00    +0.000 C 
ENDBRANCH   4   7
BRANCH   1  14
ATOM     14  C   UNL     1       7.826   7.477  17.589  0.00  0.00    +0.000 C 
BRANCH  14  15
ATOM     15  C   UNL     1       7.898   8.985  17.823  0.00  0.00    +0.000 C 
BRANCH  15  16
ATOM     16  C   UNL     1       8.990   9.411  18.805  0.00  0.00    +0.000 C 
BRANCH  16  20
ATOM     17  N   UNL     1       9.296  14.032  17.505  0.00  0.00    +0.000 N 
ATOM     18  C   UNL     1       9.261  12.911  18.230  0.00  0.00    +0.000 A 
ATOM     19  N   UNL     1       9.077  11.688  17.802  0.00  0.00    +0.000 NA
ATOM     20  C   UNL     1       9.141  10.886  18.922  0.00  0.00    +0.000 A 
ATOM     21  C   UNL     1       9.354  11.654  20.047  0.00  0.00    +0.000 A 
ATOM     22  N   UNL     1       9.432  12.940  19.587  0.00  0.00    +0.000 N 
ATOM     23  H   UNL     1       8.980  13.950  16.543  0.00  0.00    +0.000 HD
ATOM     24  H   UNL     1       9.140  14.946  17.911  0.00  0.00    +0.000 HD
ATOM     25  H   UNL     1       9.606  13.769  20.134  0.00  0.00    +0.000 HD
ENDBRANCH  16  20
ENDBRANCH  15  16
ENDBRANCH  14  15
ENDBRANCH   1  14
TORSDOF 5
ENDMDL
MODEL 7
REMARK VINA RESULT:      -7.1      5.512      6.854
REMARK  Name = 
REMARK  5 active torsions:
REMARK  status: ('A' for Active; 'I' for Inactive)
REMARK    1  A    between atoms: C_4  and  C_5
REMARK    2  A    between atoms: C_5  and  C_6
REMARK    3  A    between atoms: C_6  and  C_7
REMARK    4  A    between atoms: C_7  and  N_8
REMARK    5  A    between atoms: N_11  and  C_12
REMARK                            x       y       z     vdW  Elec       q    Type
REMARK                         _______ _______ _______ _____ _____    ______ ____
ROOT
ATOM      1  N   UNL     1       7.974   9.089  17.783  0.00  0.00    +0.000 N 
ATOM      2  C   UNL     1       7.775   7.749  17.947  0.00  0.00    +0.000 C 
ATOM      3  O   UNL     1       8.397   7.064  18.748  0.00  0.00    +0.000 OA
ATOM      4  N   UNL     1       6.776   7.258  17.138  0.00  0.00    +0.000 N 
ATOM      5  H   UNL     1       7.343   9.626  17.206  0.00  0.00    +0.000 HD
ATOM      6  H   UNL     1       6.597   7.771  16.287  0.00  0.00    +0.000 HD
ENDROOT
BRANCH   4   7
ATOM      7  C   UNL     1       6.418   5.840  17.184  0.00  0.00    +0.000 C 
ATOM      8  C   UNL     1       5.991   5.428  18.603  0.00  0.00    +0.000 C 
ATOM      9  C   UNL     1       4.488   5.398  18.880  0.00  0.00    +0.000 C 
ATOM     10  C   UNL     1       3.823   4.091  18.443  0.00  0.00    +0.000 C 
ATOM     11  C   UNL     1       3.645   3.912  16.940  0.00  0.00    +0.000 C 
ATOM     12  C   UNL     1       4.916   4.063  16.111  0.00  0.00    +0.000 C 
ATOM     13  C   UNL     1       5.426   5.501  16.064  0.00  0.00    +0.000 C 
ENDBRANCH   4   7
BRANCH   1  14
ATOM     14  C   UNL     1       8.918   9.819  18.607  0.00  0.00    +0.000 C 
BRANCH  14  15
ATOM     15  C   UNL     1       9.111  11.262  18.143  0.00  0.00    +0.000 C 
BRANCH  15  16
ATOM     16  C   UNL     1      10.575  11.662  17.952  0.00  0.00    +0.000 C 
BRANCH  16  20
ATOM     17  N   UNL     1      10.031  16.430  17.624  0.00  0.00    +0.000 N 
ATOM     18  C   UNL     1      10.433  15.175  17.409  0.00  0.00    +0.000 A 
ATOM     19  N   UNL     1      10.087  14.101  18.072  0.00  0.00    +0.000 NA
ATOM     20  C   UNL     1      10.750  13.056  17.463  0.00  0.00    +0.000 A 
ATOM     21  C   UNL     1      11.521  13.524  16.420  0.00  0.00    +0.000 A 
ATOM     22  N   UNL     1      11.303  14.873  16.398  0.00  0.00    +0.000 N 
ATOM     23  H   UNL     1       9.537  16.597  18.496  0.00  0.00    +0.000 HD
ATOM     24  H   UNL     1      10.550  17.231  17.288  0.00  0.00    +0.000 HD
ATOM     25  H   UNL     1      11.690  15.538  15.745  0.00  0.00    +0.000 HD
ENDBRANCH  16  20
ENDBRANCH  15  16
ENDBRANCH  14  15
ENDBRANCH   1  14
TORSDOF 5
ENDMDL
MODEL 8
REMARK VINA RESULT:      -7.1      2.349      5.900
REMARK  Name = 
REMARK  5 active torsions:
REMARK  status: ('A' for Active; 'I' for Inactive)
REMARK    1  A    between atoms: C_4  and  C_5
REMARK    2  A    between atoms: C_5  and  C_6
REMARK    3  A    between atoms: C_6  and  C_7
REMARK    4  A    between atoms: C_7  and  N_8
REMARK    5  A    between atoms: N_11  and  C_12
REMARK                            x       y       z     vdW  Elec       q    Type
REMARK                         _______ _______ _______ _____ _____    ______ ____
ROOT
ATOM      1  N   UNL     1       2.913   5.651  20.121  0.00  0.00    +0.000 N 
ATOM      2  C   UNL     1       3.038   5.607  18.763  0.00  0.00    +0.000 C 
ATOM      3  O   UNL     1       2.093   5.458  18.000  0.00  0.00    +0.000 OA
ATOM      4  N   UNL     1       4.337   5.785  18.344  0.00  0.00    +0.000 N 
ATOM      5  H   UNL     1       3.705   5.910  20.693  0.00  0.00    +0.000 HD
ATOM      6  H   UNL     1       5.058   5.526  19.000  0.00  0.00    +0.000 HD
ENDROOT
BRANCH   4   7
ATOM      7  C   UNL     1       4.659   5.777  16.916  0.00  0.00    +0.000 C 
ATOM      8  C   UNL     1       5.937   6.585  16.637  0.00  0.00    +0.000 C 
ATOM      9  C   UNL     1       7.236   5.787  16.519  0.00  0.00    +0.000 C 
ATOM     10  C   UNL     1       7.458   5.204  15.121  0.00  0.00    +0.000 C 
ATOM     11  C   UNL     1       6.581   4.011  14.758  0.00  0.00    +0.000 C 
ATOM     12  C   UNL     1       5.080   4.234  14.913  0.00  0.00    +0.000 C 
ATOM     13  C   UNL     1       4.645   4.341  16.373  0.00  0.00    +0.000 C 
ENDBRANCH   4   7
BRANCH   1  14
ATOM     14  C   UNL     1       1.616   5.577  20.763  0.00  0.00    +0.000 C 
BRANCH  14  15
ATOM     15  C   UNL     1       0.956   4.209  20.601  0.00  0.00    +0.000 C 
BRANCH  15  16
ATOM     16  C   UNL     1       1.695   3.074  21.313  0.00  0.00    +0.000 C 
BRANCH  16  20
ATOM     17  N   UNL     1       4.063   0.933  17.715  0.00  0.00    +0.000 N 
ATOM     18  C   UNL     1       3.778   1.552  18.863  0.00  0.00    +0.000 A 
ATOM     19  N   UNL     1       2.606   1.957  19.282  0.00  0.00    +0.000 NA
ATOM     20  C   UNL     1       2.826   2.517  20.523  0.00  0.00    +0.000 A 
ATOM     21  C   UNL     1       4.166   2.456  20.843  0.00  0.00    +0.000 A 
ATOM     22  N   UNL     1       4.755   1.834  19.777  0.00  0.00    +0.000 N 
ATOM     23  H   UNL     1       3.325   0.925  17.017  0.00  0.00    +0.000 HD
ATOM     24  H   UNL     1       4.997   0.920  17.323  0.00  0.00    +0.000 HD
ATOM     25  H   UNL     1       5.731   1.599  19.678  0.00  0.00    +0.000 HD
ENDBRANCH  16  20
ENDBRANCH  15  16
ENDBRANCH  14  15
ENDBRANCH   1  14
TORSDOF 5
ENDMDL
MODEL 9
REMARK VINA RESULT:      -7.1      3.674      4.628
REMARK  Name = 
REMARK  5 active torsions:
REMARK  status: ('A' for Active; 'I' for Inactive)
REMARK    1  A    between atoms: C_4  and  C_5
REMARK    2  A    between atoms: C_5  and  C_6
REMARK    3  A    between atoms: C_6  and  C_7
REMARK    4  A    between atoms: C_7  and  N_8
REMARK    5  A    between atoms: N_11  and  C_12
REMARK                            x       y       z     vdW  Elec       q    Type
REMARK                         _______ _______ _______ _____ _____    ______ ____
ROOT
ATOM      1  N   UNL     1       6.674   6.459  18.382  0.00  0.00    +0.000 N 
ATOM      2  C   UNL     1       5.767   5.542  17.935  0.00  0.00    +0.000 C 
ATOM      3  O   UNL     1       5.687   5.179  16.770  0.00  0.00    +0.000 OA
ATOM      4  N   UNL     1       4.975   5.045  18.945  0.00  0.00    +0.000 N 
ATOM      5  H   UNL     1       6.783   6.620  19.373  0.00  0.00    +0.000 HD
ATOM      6  H   UNL     1       4.848   5.641  19.749  0.00  0.00    +0.000 HD
ENDROOT
BRANCH   4   7
ATOM      7  C   UNL     1       3.949   4.043  18.653  0.00  0.00    +0.000 C 
ATOM      8  C   UNL     1       3.987   2.901  19.682  0.00  0.00    +0.000 C 
ATOM      9  C   UNL     1       2.990   2.993  20.838  0.00  0.00    +0.000 C 
ATOM     10  C   UNL     1       1.605   2.447  20.481  0.00  0.00    +0.000 C 
ATOM     11  C   UNL     1       0.766   3.327  19.563  0.00  0.00    +0.000 C 
ATOM     12  C   UNL     1       1.437   3.729  18.253  0.00  0.00    +0.000 C 
ATOM     13  C   UNL     1       2.584   4.716  18.453  0.00  0.00    +0.000 C 
ENDBRANCH   4   7
BRANCH   1  14
ATOM     14  C   UNL     1       7.664   7.035  17.494  0.00  0.00    +0.000 C 
BRANCH  14  15
ATOM     15  C   UNL     1       7.767   8.554  17.633  0.00  0.00    +0.000 C 
BRANCH  15  16
ATOM     16  C   UNL     1       8.721   9.013  18.737  0.00  0.00    +0.000 C 
BRANCH  16  20
ATOM     17  N   UNL     1       8.748  13.589  17.253  0.00  0.00    +0.000 N 
ATOM     18  C   UNL     1       9.053  12.450  17.880  0.00  0.00    +0.000 A 
ATOM     19  N   UNL     1       8.438  11.299  17.789  0.00  0.00    +0.000 NA
ATOM     20  C   UNL     1       9.136  10.436  18.608  0.00  0.00    +0.000 A 
ATOM     21  C   UNL     1      10.185  11.096  19.211  0.00  0.00    +0.000 A 
ATOM     22  N   UNL     1      10.120  12.375  18.733  0.00  0.00    +0.000 N 
ATOM     23  H   UNL     1       7.846  13.613  16.787  0.00  0.00    +0.000 HD
ATOM     24  H   UNL     1       9.062  14.492  17.586  0.00  0.00    +0.000 HD
ATOM     25  H   UNL     1      10.751  13.133  18.945  0.00  0.00    +0.000 HD
ENDBRANCH  16  20
ENDBRANCH  15  16
ENDBRANCH  14  15
ENDBRANCH   1  14
TORSDOF 5
ENDMDL
