MODEL 1
REMARK VINA RESULT:      -8.5      0.000      0.000
REMARK  Name = 
REMARK  10 active torsions:
REMARK  status: ('A' for Active; 'I' for Inactive)
REMARK    1  A    between atoms: C_1  and  C_2
REMARK    2  A    between atoms: C_2  and  C_4
REMARK    3  A    between atoms: C_5  and  C_6
REMARK    4  A    between atoms: C_8  and  C_9
REMARK    5  A    between atoms: C_9  and  O_11
REMARK    6  A    between atoms: O_11  and  C_12
REMARK    7  A    between atoms: C_12  and  C_13
REMARK    8  A    between atoms: C_16  and  C_17
REMARK    9  A    between atoms: C_20  and  N_21
REMARK   10  A    between atoms: C_27  and  C_28
REMARK                            x       y       z     vdW  Elec       q    Type
REMARK                         _______ _______ _______ _____ _____    ______ ____
ROOT
ATOM      1  C   UNL     1       7.720   5.816  18.641  0.00  0.00    +0.000 C 
ENDROOT
BRANCH   1   2
ATOM      2  C   UNL     1       7.786   7.224  18.178  0.00  0.00    +0.000 A 
ATOM      3  N   UNL     1       7.176   7.785  17.155  0.00  0.00    +0.000 NA
ATOM      4  N   UNL     1       7.559   9.106  17.153  0.00  0.00    +0.000 NA
ATOM      5  C   UNL     1       8.386   9.268  18.168  0.00  0.00    +0.000 A 
ATOM      6  O   UNL     1       8.590   8.103  18.867  0.00  0.00    +0.000 OA
BRANCH   5   7
ATOM      7  C   UNL     1       9.096  10.475  18.584  0.00  0.00    +0.000 A 
ATOM      8  C   UNL     1       9.832  10.441  19.783  0.00  0.00    +0.000 A 
ATOM      9  C   UNL     1      10.488  11.577  20.268  0.00  0.00    +0.000 A 
ATOM     10  C   UNL     1      10.412  12.772  19.549  0.00  0.00    +0.000 A 
ATOM     11  C   UNL     1       9.704  12.827  18.340  0.00  0.00    +0.000 A 
ATOM     12  C   UNL     1       9.053  11.678  17.860  0.00  0.00    +0.000 A 
BRANCH  10  13
ATOM     13  N   UNL     1      11.064  13.978  20.078  0.00  0.00    +0.000 N 
ATOM     14  O   UNL     1      12.245  14.181  19.762  0.00  0.00    +0.000 OA
ATOM     15  O   UNL     1      10.395  14.717  20.815  0.00  0.00    +0.000 OA
ENDBRANCH  10  13
ENDBRANCH   5   7
ENDBRANCH   1   2
BRANCH   1  16
ATOM     16  O   UNL     1       7.754   4.939  17.495  0.00  0.00    +0.000 OA
BRANCH  16  17
ATOM     17  C   UNL     1       6.534   4.777  16.905  0.00  0.00    +0.000 C 
ATOM     18  O   UNL     1       6.357   4.878  15.698  0.00  0.00    +0.000 OA
BRANCH  17  23
ATOM     19  C   UNL     1       3.638   4.475  19.233  0.00  0.00    +0.000 A 
ATOM     20  C   UNL     1       4.416   3.361  19.543  0.00  0.00    +0.000 A 
ATOM     21  C   UNL     1       4.273   2.229  20.502  0.00  0.00    +0.000 C 
ATOM     22  N   UNL     1       5.537   3.399  18.739  0.00  0.00    +0.000 N 
ATOM     23  C   UNL     1       5.516   4.481  17.893  0.00  0.00    +0.000 A 
ATOM     24  C   UNL     1       4.351   5.184  18.187  0.00  0.00    +0.000 A 
ATOM     25  C   UNL     1       3.881   6.450  17.539  0.00  0.00    +0.000 C 
ATOM     26  H   UNL     1       6.278   2.711  18.751  0.00  0.00    +0.000 HD
BRANCH  19  28
ATOM     27  C   UNL     1       1.144   3.998  19.772  0.00  0.00    +0.000 C 
ATOM     28  C   UNL     1       2.342   4.904  19.804  0.00  0.00    +0.000 C 
ATOM     29  O   UNL     1       2.211   6.020  20.313  0.00  0.00    +0.000 OA
ENDBRANCH  19  28
ENDBRANCH  17  23
ENDBRANCH  16  17
ENDBRANCH   1  16
TORSDOF 7
ENDMDL
MODEL 2
REMARK VINA RESULT:      -8.3      4.894      7.750
REMARK  Name = 
REMARK  10 active torsions:
REMARK  status: ('A' for Active; 'I' for Inactive)
REMARK    1  A    between atoms: C_1  and  C_2
REMARK    2  A    between atoms: C_2  and  C_4
REMARK    3  A    between atoms: C_5  and  C_6
REMARK    4  A    between atoms: C_8  and  C_9
REMARK    5  A    between atoms: C_9  and  O_11
REMARK    6  A    between atoms: O_11  and  C_12
REMARK    7  A    between atoms: C_12  and  C_13
REMARK    8  A    between atoms: C_16  and  C_17
REMARK    9  A    between atoms: C_20  and  N_21
REMARK   10  A    between atoms: C_27  and  C_28
REMARK                            x       y       z     vdW  Elec       q    Type
REMARK                         _______ _______ _______ _____ _____    ______ ____
ROOT
ATOM      1  C   UNL     1       2.331   4.165  20.784  0.00  0.00    +0.000 C 
ENDROOT
BRANCH   1   2
ATOM      2  C   UNL     1       2.163   5.587  20.396  0.00  0.00    +0.000 A 
ATOM      3  N   UNL     1       2.630   6.213  19.337  0.00  0.00    +0.000 NA
ATOM      4  N   UNL     1       2.195   7.515  19.432  0.00  0.00    +0.000 NA
ATOM      5  C   UNL     1       1.497   7.605  20.548  0.00  0.00    +0.000 A 
ATOM      6  O   UNL     1       1.441   6.412  21.228  0.00  0.00    +0.000 OA
BRANCH   5   7
ATOM      7  C   UNL     1       0.846   8.778  21.125  0.00  0.00    +0.000 A 
ATOM      8  C   UNL     1       0.162   8.634  22.347  0.00  0.00    +0.000 A 
ATOM      9  C   UNL     1      -0.531   9.701  22.926  0.00  0.00    +0.000 A 
ATOM     10  C   UNL     1      -0.546  10.939  22.279  0.00  0.00    +0.000 A 
ATOM     11  C   UNL     1       0.146  11.116  21.073  0.00  0.00    +0.000 A 
ATOM     12  C   UNL     1       0.842  10.037  20.503  0.00  0.00    +0.000 A 
BRANCH  10  13
ATOM     13  N   UNL     1      -1.309  12.051  22.863  0.00  0.00    +0.000 N 
ATOM     14  O   UNL     1      -2.406  11.791  23.378  0.00  0.00    +0.000 OA
ATOM     15  O   UNL     1      -0.813  13.186  22.797  0.00  0.00    +0.000 OA
ENDBRANCH  10  13
ENDBRANCH   5   7
ENDBRANCH   1   2
BRANCH   1  16
ATOM     16  O   UNL     1       2.857   3.427  19.661  0.00  0.00    +0.000 OA
BRANCH  16  17
ATOM     17  C   UNL     1       4.164   3.064  19.820  0.00  0.00    +0.000 C 
ATOM     18  O   UNL     1       4.518   2.144  20.545  0.00  0.00    +0.000 OA
BRANCH  17  23
ATOM     19  C   UNL     1       6.056   5.117  17.349  0.00  0.00    +0.000 A 
ATOM     20  C   UNL     1       6.728   5.356  18.546  0.00  0.00    +0.000 A 
ATOM     21  C   UNL     1       7.896   6.197  18.931  0.00  0.00    +0.000 C 
ATOM     22  N   UNL     1       6.108   4.611  19.528  0.00  0.00    +0.000 N 
ATOM     23  C   UNL     1       5.037   3.910  19.030  0.00  0.00    +0.000 A 
ATOM     24  C   UNL     1       4.986   4.190  17.668  0.00  0.00    +0.000 A 
ATOM     25  C   UNL     1       3.996   3.654  16.679  0.00  0.00    +0.000 C 
ATOM     26  H   UNL     1       6.388   4.590  20.500  0.00  0.00    +0.000 HD
BRANCH  19  28
ATOM     27  C   UNL     1       5.304   6.531  15.306  0.00  0.00    +0.000 C 
ATOM     28  C   UNL     1       6.317   5.665  16.000  0.00  0.00    +0.000 C 
ATOM     29  O   UNL     1       7.370   5.417  15.407  0.00  0.00    +0.000 OA
ENDBRANCH  19  28
ENDBRANCH  17  23
ENDBRANCH  16  17
ENDBRANCH   1  16
TORSDOF 7
ENDMDL
MODEL 3
REMARK VINA RESULT:      -8.3      4.818      7.650
REMARK  Name = 
REMARK  10 active torsions:
REMARK  status: ('A' for Active; 'I' for Inactive)
REMARK    1  A    between atoms: C_1  and  C_2
REMARK    2  A    between atoms: C_2  and  C_4
REMARK    3  A    between atoms: C_5  and  C_6
REMARK    4  A    between atoms: C_8  and  C_9
REMARK    5  A    between atoms: C_9  and  O_11
REMARK    6  A    between atoms: O_11  and  C_12
REMARK    7  A    between atoms: C_12  and  C_13
REMARK    8  A    between atoms: C_16  and  C_17
REMARK    9  A    between atoms: C_20  and  N_21
REMARK   10  A    between atoms: C_27  and  C_28
REMARK                            x       y       z     vdW  Elec       q    Type
REMARK                         _______ _______ _______ _____ _____    ______ ____
ROOT
ATOM      1  C   UNL     1       2.408   4.342  19.889  0.00  0.00    +0.000 C 
ENDROOT
BRANCH   1   2
ATOM      2  C   UNL     1       2.239   5.807  19.714  0.00  0.00    +0.000 A 
ATOM      3  N   UNL     1       2.690   6.579  18.749  0.00  0.00    +0.000 NA
ATOM      4  N   UNL     1       2.263   7.854  19.041  0.00  0.00    +0.000 NA
ATOM      5  C   UNL     1       1.586   7.782  20.170  0.00  0.00    +0.000 A 
ATOM      6  O   UNL     1       1.536   6.503  20.671  0.00  0.00    +0.000 OA
BRANCH   5   7
ATOM      7  C   UNL     1       0.951   8.860  20.924  0.00  0.00    +0.000 A 
ATOM      8  C   UNL     1       0.053   8.521  21.954  0.00  0.00    +0.000 A 
ATOM      9  C   UNL     1      -0.633   9.502  22.676  0.00  0.00    +0.000 A 
ATOM     10  C   UNL     1      -0.423  10.850  22.372  0.00  0.00    +0.000 A 
ATOM     11  C   UNL     1       0.484  11.215  21.367  0.00  0.00    +0.000 A 
ATOM     12  C   UNL     1       1.170  10.220  20.650  0.00  0.00    +0.000 A 
BRANCH  10  13
ATOM     13  N   UNL     1      -1.173  11.882  23.100  0.00  0.00    +0.000 N 
ATOM     14  O   UNL     1      -0.607  12.963  23.315  0.00  0.00    +0.000 OA
ATOM     15  O   UNL     1      -2.327  11.606  23.462  0.00  0.00    +0.000 OA
ENDBRANCH  10  13
ENDBRANCH   5   7
ENDBRANCH   1   2
BRANCH   1  16
ATOM     16  O   UNL     1       3.616   4.092  20.637  0.00  0.00    +0.000 OA
BRANCH  16  17
ATOM     17  C   UNL     1       4.530   3.346  19.950  0.00  0.00    +0.000 C 
ATOM     18  O   UNL     1       4.728   2.159  20.174  0.00  0.00    +0.000 OA
BRANCH  17  23
ATOM     19  C   UNL     1       5.891   5.197  17.013  0.00  0.00    +0.000 A 
ATOM     20  C   UNL     1       6.668   5.659  18.073  0.00  0.00    +0.000 A 
ATOM     21  C   UNL     1       7.776   6.649  18.193  0.00  0.00    +0.000 C 
ATOM     22  N   UNL     1       6.250   5.006  19.214  0.00  0.00    +0.000 N 
ATOM     23  C   UNL     1       5.210   4.149  18.952  0.00  0.00    +0.000 A 
ATOM     24  C   UNL     1       4.971   4.230  17.584  0.00  0.00    +0.000 A 
ATOM     25  C   UNL     1       3.937   3.474  16.808  0.00  0.00    +0.000 C 
ATOM     26  H   UNL     1       6.642   5.146  20.136  0.00  0.00    +0.000 HD
BRANCH  19  28
ATOM     27  C   UNL     1       6.690   4.740  14.586  0.00  0.00    +0.000 C 
ATOM     28  C   UNL     1       5.934   5.572  15.583  0.00  0.00    +0.000 C 
ATOM     29  O   UNL     1       5.356   6.583  15.175  0.00  0.00    +0.000 OA
ENDBRANCH  19  28
ENDBRANCH  17  23
ENDBRANCH  16  17
ENDBRANCH   1  16
TORSDOF 7
ENDMDL
MODEL 4
REMARK VINA RESULT:      -8.2      1.894      2.292
REMARK  Name = 
REMARK  10 active torsions:
REMARK  status: ('A' for Active; 'I' for Inactive)
REMARK    1  A    between atoms: C_1  and  C_2
REMARK    2  A    between atoms: C_2  and  C_4
REMARK    3  A    between atoms: C_5  and  C_6
REMARK    4  A    between atoms: C_8  and  C_9
REMARK    5  A    between atoms: C_9  and  O_11
REMARK    6  A    between atoms: O_11  and  C_12
REMARK    7  A    between atoms: C_12  and  C_13
REMARK    8  A    between atoms: C_16  and  C_17
REMARK    9  A    between atoms: C_20  and  N_21
REMARK   10  A    between atoms: C_27  and  C_28
REMARK                            x       y       z     vdW  Elec       q    Type
REMARK                         _______ _______ _______ _____ _____    ______ ____
ROOT
ATOM      1  C   UNL     1       7.468   8.085  17.431  0.00  0.00    +0.000 C 
ENDROOT
BRANCH   1   2
ATOM      2  C   UNL     1       8.286   9.109  18.128  0.00  0.00    +0.000 A 
ATOM      3  N   UNL     1       8.975   8.994  19.243  0.00  0.00    +0.000 NA
ATOM      4  N   UNL     1       9.560  10.219  19.465  0.00  0.00    +0.000 NA
ATOM      5  C   UNL     1       9.184  11.008  18.478  0.00  0.00    +0.000 A 
ATOM      6  O   UNL     1       8.356  10.371  17.585  0.00  0.00    +0.000 OA
BRANCH   5   7
ATOM      7  C   UNL     1       9.504  12.417  18.262  0.00  0.00    +0.000 A 
ATOM      8  C   UNL     1      10.669  12.738  17.540  0.00  0.00    +0.000 A 
ATOM      9  C   UNL     1      11.064  14.065  17.346  0.00  0.00    +0.000 A 
ATOM     10  C   UNL     1      10.287  15.097  17.879  0.00  0.00    +0.000 A 
ATOM     11  C   UNL     1       9.110  14.805  18.582  0.00  0.00    +0.000 A 
ATOM     12  C   UNL     1       8.721  13.467  18.768  0.00  0.00    +0.000 A 
BRANCH  10  13
ATOM     13  N   UNL     1      10.722  16.490  17.715  0.00  0.00    +0.000 N 
ATOM     14  O   UNL     1      10.489  17.044  16.630  0.00  0.00    +0.000 OA
ATOM     15  O   UNL     1      11.305  17.028  18.669  0.00  0.00    +0.000 OA
ENDBRANCH  10  13
ENDBRANCH   5   7
ENDBRANCH   1   2
BRANCH   1  16
ATOM     16  O   UNL     1       7.591   6.827  18.127  0.00  0.00    +0.000 OA
BRANCH  16  17
ATOM     17  C   UNL     1       7.147   5.762  17.398  0.00  0.00    +0.000 C 
ATOM     18  O   UNL     1       7.692   5.384  16.369  0.00  0.00    +0.000 OA
BRANCH  17  23
ATOM     19  C   UNL     1       3.830   4.679  18.711  0.00  0.00    +0.000 A 
ATOM     20  C   UNL     1       4.691   3.672  19.143  0.00  0.00    +0.000 A 
ATOM     21  C   UNL     1       4.508   2.409  19.913  0.00  0.00    +0.000 C 
ATOM     22  N   UNL     1       5.963   4.001  18.720  0.00  0.00    +0.000 N 
ATOM     23  C   UNL     1       5.970   5.172  18.004  0.00  0.00    +0.000 A 
ATOM     24  C   UNL     1       4.657   5.632  17.994  0.00  0.00    +0.000 A 
ATOM     25  C   UNL     1       4.151   6.884  17.346  0.00  0.00    +0.000 C 
ATOM     26  H   UNL     1       6.790   3.445  18.896  0.00  0.00    +0.000 HD
BRANCH  19  28
ATOM     27  C   UNL     1       1.404   4.090  18.003  0.00  0.00    +0.000 C 
ATOM     28  C   UNL     1       2.369   4.811  18.900  0.00  0.00    +0.000 C 
ATOM     29  O   UNL     1       1.907   5.524  19.795  0.00  0.00    +0.000 OA
ENDBRANCH  19  28
ENDBRANCH  17  23
ENDBRANCH  16  17
ENDBRANCH   1  16
TORSDOF 7
ENDMDL
MODEL 5
REMARK VINA RESULT:      -8.2      1.821      2.332
REMARK  Name = 
REMARK  10 active torsions:
REMARK  status: ('A' for Active; 'I' for Inactive)
REMARK    1  A    between atoms: C_1  and  C_2
REMARK    2  A    between atoms: C_2  and  C_4
REMARK    3  A    between atoms: C_5  and  C_6
REMARK    4  A    between atoms: C_8  and  C_9
REMARK    5  A    between atoms: C_9  and  O_11
REMARK    6  A    between atoms: O_11  and  C_12
REMARK    7  A    between atoms: C_12  and  C_13
REMARK    8  A    between atoms: C_16  and  C_17
REMARK    9  A    between atoms: C_20  and  N_21
REMARK   10  A    between atoms: C_27  and  C_28
REMARK                            x       y       z     vdW  Elec       q    Type
REMARK                         _______ _______ _______ _____ _____    ______ ____
ROOT
ATOM      1  C   UNL     1       6.297   6.316  16.157  0.00  0.00    +0.000 C 
ENDROOT
BRANCH   1   2
ATOM      2  C   UNL     1       7.162   6.959  17.177  0.00  0.00    +0.000 A 
ATOM      3  N   UNL     1       7.753   6.413  18.218  0.00  0.00    +0.000 NA
ATOM      4  N   UNL     1       8.442   7.424  18.847  0.00  0.00    +0.000 NA
ATOM      5  C   UNL     1       8.222   8.526  18.157  0.00  0.00    +0.000 A 
ATOM      6  O   UNL     1       7.400   8.311  17.076  0.00  0.00    +0.000 OA
BRANCH   5   7
ATOM      7  C   UNL     1       8.699   9.880  18.421  0.00  0.00    +0.000 A 
ATOM      8  C   UNL     1       9.443  10.114  19.593  0.00  0.00    +0.000 A 
ATOM      9  C   UNL     1       9.881  11.397  19.936  0.00  0.00    +0.000 A 
ATOM     10  C   UNL     1       9.575  12.472  19.097  0.00  0.00    +0.000 A 
ATOM     11  C   UNL     1       8.857  12.263  17.912  0.00  0.00    +0.000 A 
ATOM     12  C   UNL     1       8.425  10.969  17.577  0.00  0.00    +0.000 A 
BRANCH  10  13
ATOM     13  N   UNL     1       9.997  13.828  19.475  0.00  0.00    +0.000 N 
ATOM     14  O   UNL     1      10.266  14.624  18.564  0.00  0.00    +0.000 OA
ATOM     15  O   UNL     1      10.066  14.092  20.685  0.00  0.00    +0.000 OA
ENDBRANCH  10  13
ENDBRANCH   5   7
ENDBRANCH   1   2
BRANCH   1  16
ATOM     16  O   UNL     1       4.981   6.116  16.711  0.00  0.00    +0.000 OA
BRANCH  16  17
ATOM     17  C   UNL     1       4.706   4.807  16.986  0.00  0.00    +0.000 C 
ATOM     18  O   UNL     1       5.274   3.875  16.433  0.00  0.00    +0.000 OA
BRANCH  17  23
ATOM     19  C   UNL     1       2.041   3.957  19.451  0.00  0.00    +0.000 A 
ATOM     20  C   UNL     1       2.262   5.315  19.673  0.00  0.00    +0.000 A 
ATOM     21  C   UNL     1       1.696   6.318  20.618  0.00  0.00    +0.000 C 
ATOM     22  N   UNL     1       3.227   5.731  18.780  0.00  0.00    +0.000 N 
ATOM     23  C   UNL     1       3.670   4.695  17.995  0.00  0.00    +0.000 A 
ATOM     24  C   UNL     1       2.938   3.576  18.376  0.00  0.00    +0.000 A 
ATOM     25  C   UNL     1       3.048   2.195  17.804  0.00  0.00    +0.000 C 
ATOM     26  H   UNL     1       3.584   6.676  18.715  0.00  0.00    +0.000 HD
BRANCH  19  28
ATOM     27  C   UNL     1       1.362   2.583  21.547  0.00  0.00    +0.000 C 
ATOM     28  C   UNL     1       1.110   3.033  20.135  0.00  0.00    +0.000 C 
ATOM     29  O   UNL     1       0.107   2.601  19.559  0.00  0.00    +0.000 OA
ENDBRANCH  19  28
ENDBRANCH  17  23
ENDBRANCH  16  17
ENDBRANCH   1  16
TORSDOF 7
ENDMDL
MODEL 6
REMARK VINA RESULT:      -8.1      1.433      1.651
REMARK  Name = 
REMARK  10 active torsions:
REMARK  status: ('A' for Active; 'I' for Inactive)
REMARK    1  A    between atoms: C_1  and  C_2
REMARK    2  A    between atoms: C_2  and  C_4
REMARK    3  A    between atoms: C_5  and  C_6
REMARK    4  A    between atoms: C_8  and  C_9
REMARK    5  A    between atoms: C_9  and  O_11
REMARK    6  A    between atoms: O_11  and  C_12
REMARK    7  A    between atoms: C_12  and  C_13
REMARK    8  A    between atoms: C_16  and  C_17
REMARK    9  A    between atoms: C_20  and  N_21
REMARK   10  A    between atoms: C_27  and  C_28
REMARK                            x       y       z     vdW  Elec       q    Type
REMARK                         _______ _______ _______ _____ _____    ______ ____
ROOT
ATOM      1  C   UNL     1       6.527   6.152  16.084  0.00  0.00    +0.000 C 
ENDROOT
BRANCH   1   2
ATOM      2  C   UNL     1       7.294   6.848  17.147  0.00  0.00    +0.000 A 
ATOM      3  N   UNL     1       7.799   6.354  18.258  0.00  0.00    +0.000 NA
ATOM      4  N   UNL     1       8.418   7.400  18.901  0.00  0.00    +0.000 NA
ATOM      5  C   UNL     1       8.246   8.469  18.149  0.00  0.00    +0.000 A 
ATOM      6  O   UNL     1       7.523   8.198  17.012  0.00  0.00    +0.000 OA
BRANCH   5   7
ATOM      7  C   UNL     1       8.682   9.841  18.397  0.00  0.00    +0.000 A 
ATOM      8  C   UNL     1       9.419  10.111  19.565  0.00  0.00    +0.000 A 
ATOM      9  C   UNL     1       9.818  11.410  19.892  0.00  0.00    +0.000 A 
ATOM     10  C   UNL     1       9.480  12.466  19.041  0.00  0.00    +0.000 A 
ATOM     11  C   UNL     1       8.767  12.221  17.859  0.00  0.00    +0.000 A 
ATOM     12  C   UNL     1       8.374  10.910  17.540  0.00  0.00    +0.000 A 
BRANCH  10  13
ATOM     13  N   UNL     1       9.861  13.838  19.403  0.00  0.00    +0.000 N 
ATOM     14  O   UNL     1       8.985  14.713  19.349  0.00  0.00    +0.000 OA
ATOM     15  O   UNL     1      11.039  14.040  19.733  0.00  0.00    +0.000 OA
ENDBRANCH  10  13
ENDBRANCH   5   7
ENDBRANCH   1   2
BRANCH   1  16
ATOM     16  O   UNL     1       5.207   5.844  16.577  0.00  0.00    +0.000 OA
BRANCH  16  17
ATOM     17  C   UNL     1       4.922   4.509  16.554  0.00  0.00    +0.000 C 
ATOM     18  O   UNL     1       5.065   3.812  15.558  0.00  0.00    +0.000 OA
BRANCH  17  23
ATOM     19  C   UNL     1       3.226   3.715  19.778  0.00  0.00    +0.000 A 
ATOM     20  C   UNL     1       4.319   2.851  19.769  0.00  0.00    +0.000 A 
ATOM     21  C   UNL     1       4.821   1.802  20.701  0.00  0.00    +0.000 C 
ATOM     22  N   UNL     1       5.030   3.090  18.611  0.00  0.00    +0.000 N 
ATOM     23  C   UNL     1       4.434   4.061  17.844  0.00  0.00    +0.000 A 
ATOM     24  C   UNL     1       3.314   4.485  18.551  0.00  0.00    +0.000 A 
ATOM     25  C   UNL     1       2.338   5.542  18.134  0.00  0.00    +0.000 C 
ATOM     26  H   UNL     1       5.876   2.604  18.343  0.00  0.00    +0.000 HD
BRANCH  19  28
ATOM     27  C   UNL     1       1.352   2.683  21.248  0.00  0.00    +0.000 C 
ATOM     28  C   UNL     1       2.156   3.866  20.789  0.00  0.00    +0.000 C 
ATOM     29  O   UNL     1       1.893   4.970  21.274  0.00  0.00    +0.000 OA
ENDBRANCH  19  28
ENDBRANCH  17  23
ENDBRANCH  16  17
ENDBRANCH   1  16
TORSDOF 7
ENDMDL
MODEL 7
REMARK VINA RESULT:      -8.0      4.844      7.832
REMARK  Name = 
REMARK  10 active torsions:
REMARK  status: ('A' for Active; 'I' for Inactive)
REMARK    1  A    between atoms: C_1  and  C_2
REMARK    2  A    between atoms: C_2  and  C_4
REMARK    3  A    between atoms: C_5  and  C_6
REMARK    4  A    between atoms: C_8  and  C_9
REMARK    5  A    between atoms: C_9  and  O_11
REMARK    6  A    between atoms: O_11  and  C_12
REMARK    7  A    between atoms: C_12  and  C_13
REMARK    8  A    between atoms: C_16  and  C_17
REMARK    9  A    between atoms: C_20  and  N_21
REMARK   10  A    between atoms: C_27  and  C_28
REMARK                            x       y       z     vdW  Elec       q    Type
REMARK                         _______ _______ _______ _____ _____    ______ ____
ROOT
ATOM      1  C   UNL     1       1.908   4.353  20.406  0.00  0.00    +0.000 C 
ENDROOT
BRANCH   1   2
ATOM      2  C   UNL     1       1.884   5.829  20.245  0.00  0.00    +0.000 A 
ATOM      3  N   UNL     1       2.577   6.578  19.414  0.00  0.00    +0.000 NA
ATOM      4  N   UNL     1       2.193   7.877  19.652  0.00  0.00    +0.000 NA
ATOM      5  C   UNL     1       1.296   7.842  20.618  0.00  0.00    +0.000 A 
ATOM      6  O   UNL     1       1.053   6.563  21.060  0.00  0.00    +0.000 OA
BRANCH   5   7
ATOM      7  C   UNL     1       0.600   8.954  21.260  0.00  0.00    +0.000 A 
ATOM      8  C   UNL     1       0.493  10.172  20.563  0.00  0.00    +0.000 A 
ATOM      9  C   UNL     1      -0.110  11.293  21.142  0.00  0.00    +0.000 A 
ATOM     10  C   UNL     1      -0.619  11.204  22.440  0.00  0.00    +0.000 A 
ATOM     11  C   UNL     1      -0.546   9.996  23.147  0.00  0.00    +0.000 A 
ATOM     12  C   UNL     1       0.059   8.875  22.554  0.00  0.00    +0.000 A 
BRANCH  10  13
ATOM     13  N   UNL     1      -1.215  12.392  23.067  0.00  0.00    +0.000 N 
ATOM     14  O   UNL     1      -0.473  13.360  23.290  0.00  0.00    +0.000 OA
ATOM     15  O   UNL     1      -2.423  12.351  23.343  0.00  0.00    +0.000 OA
ENDBRANCH  10  13
ENDBRANCH   5   7
ENDBRANCH   1   2
BRANCH   1  16
ATOM     16  O   UNL     1       3.268   3.923  20.619  0.00  0.00    +0.000 OA
BRANCH  16  17
ATOM     17  C   UNL     1       3.771   3.194  19.581  0.00  0.00    +0.000 C 
ATOM     18  O   UNL     1       3.327   2.101  19.254  0.00  0.00    +0.000 OA
BRANCH  17  23
ATOM     19  C   UNL     1       6.330   4.889  17.465  0.00  0.00    +0.000 A 
ATOM     20  C   UNL     1       6.815   5.066  18.759  0.00  0.00    +0.000 A 
ATOM     21  C   UNL     1       8.009   5.747  19.336  0.00  0.00    +0.000 C 
ATOM     22  N   UNL     1       5.937   4.444  19.622  0.00  0.00    +0.000 N 
ATOM     23  C   UNL     1       4.878   3.886  18.950  0.00  0.00    +0.000 A 
ATOM     24  C   UNL     1       5.100   4.131  17.598  0.00  0.00    +0.000 A 
ATOM     25  C   UNL     1       4.228   3.709  16.455  0.00  0.00    +0.000 C 
ATOM     26  H   UNL     1       6.042   4.413  20.628  0.00  0.00    +0.000 HD
BRANCH  19  28
ATOM     27  C   UNL     1       6.803   4.508  14.941  0.00  0.00    +0.000 C 
ATOM     28  C   UNL     1       6.893   5.356  16.178  0.00  0.00    +0.000 C 
ATOM     29  O   UNL     1       7.458   6.449  16.092  0.00  0.00    +0.000 OA
ENDBRANCH  19  28
ENDBRANCH  17  23
ENDBRANCH  16  17
ENDBRANCH   1  16
TORSDOF 7
ENDMDL
MODEL 8
REMARK VINA RESULT:      -8.0      1.838      2.288
REMARK  Name = 
REMARK  10 active torsions:
REMARK  status: ('A' for Active; 'I' for Inactive)
REMARK    1  A    between atoms: C_1  and  C_2
REMARK    2  A    between atoms: C_2  and  C_4
REMARK    3  A    between atoms: C_5  and  C_6
REMARK    4  A    between atoms: C_8  and  C_9
REMARK    5  A    between atoms: C_9  and  O_11
REMARK    6  A    between atoms: O_11  and  C_12
REMARK    7  A    between atoms: C_12  and  C_13
REMARK    8  A    between atoms: C_16  and  C_17
REMARK    9  A    between atoms: C_20  and  N_21
REMARK   10  A    between atoms: C_27  and  C_28
REMARK                            x       y       z     vdW  Elec       q    Type
REMARK                         _______ _______ _______ _____ _____    ______ ____
ROOT
ATOM      1  C   UNL     1       7.277   7.683  17.368  0.00  0.00    +0.000 C 
ENDROOT
BRANCH   1   2
ATOM      2  C   UNL     1       8.127   8.694  18.044  0.00  0.00    +0.000 A 
ATOM      3  N   UNL     1       8.868   8.558  19.124  0.00  0.00    +0.000 NA
ATOM      4  N   UNL     1       9.463   9.779  19.342  0.00  0.00    +0.000 NA
ATOM      5  C   UNL     1       9.042  10.587  18.388  0.00  0.00    +0.000 A 
ATOM      6  O   UNL     1       8.173   9.966  17.522  0.00  0.00    +0.000 OA
BRANCH   5   7
ATOM      7  C   UNL     1       9.353  11.999  18.183  0.00  0.00    +0.000 A 
ATOM      8  C   UNL     1       8.288  12.908  18.040  0.00  0.00    +0.000 A 
ATOM      9  C   UNL     1       8.514  14.264  17.784  0.00  0.00    +0.000 A 
ATOM     10  C   UNL     1       9.827  14.729  17.669  0.00  0.00    +0.000 A 
ATOM     11  C   UNL     1      10.906  13.850  17.830  0.00  0.00    +0.000 A 
ATOM     12  C   UNL     1      10.666  12.490  18.090  0.00  0.00    +0.000 A 
BRANCH  10  13
ATOM     13  N   UNL     1      10.068  16.145  17.358  0.00  0.00    +0.000 N 
ATOM     14  O   UNL     1       9.493  16.994  18.054  0.00  0.00    +0.000 OA
ATOM     15  O   UNL     1      10.827  16.405  16.413  0.00  0.00    +0.000 OA
ENDBRANCH  10  13
ENDBRANCH   5   7
ENDBRANCH   1   2
BRANCH   1  16
ATOM     16  O   UNL     1       7.546   6.384  17.935  0.00  0.00    +0.000 OA
BRANCH  16  17
ATOM     17  C   UNL     1       6.955   5.363  17.246  0.00  0.00    +0.000 C 
ATOM     18  O   UNL     1       7.357   4.971  16.159  0.00  0.00    +0.000 OA
BRANCH  17  23
ATOM     19  C   UNL     1       3.733   4.457  18.888  0.00  0.00    +0.000 A 
ATOM     20  C   UNL     1       4.584   3.417  19.255  0.00  0.00    +0.000 A 
ATOM     21  C   UNL     1       4.418   2.175  20.063  0.00  0.00    +0.000 C 
ATOM     22  N   UNL     1       5.823   3.679  18.708  0.00  0.00    +0.000 N 
ATOM     23  C   UNL     1       5.816   4.838  17.973  0.00  0.00    +0.000 A 
ATOM     24  C   UNL     1       4.530   5.359  18.078  0.00  0.00    +0.000 A 
ATOM     25  C   UNL     1       4.022   6.625  17.458  0.00  0.00    +0.000 C 
ATOM     26  H   UNL     1       6.637   3.088  18.814  0.00  0.00    +0.000 HD
BRANCH  19  28
ATOM     27  C   UNL     1       1.889   5.470  20.409  0.00  0.00    +0.000 C 
ATOM     28  C   UNL     1       2.304   4.661  19.213  0.00  0.00    +0.000 C 
ATOM     29  O   UNL     1       1.417   4.164  18.513  0.00  0.00    +0.000 OA
ENDBRANCH  19  28
ENDBRANCH  17  23
ENDBRANCH  16  17
ENDBRANCH   1  16
TORSDOF 7
ENDMDL
MODEL 9
REMARK VINA RESULT:      -7.9      6.248      9.501
REMARK  Name = 
REMARK  10 active torsions:
REMARK  status: ('A' for Active; 'I' for Inactive)
REMARK    1  A    between atoms: C_1  and  C_2
REMARK    2  A    between atoms: C_2  and  C_4
REMARK    3  A    between atoms: C_5  and  C_6
REMARK    4  A    between atoms: C_8  and  C_9
REMARK    5  A    between atoms: C_9  and  O_11
REMARK    6  A    between atoms: O_11  and  C_12
REMARK    7  A    between atoms: C_12  and  C_13
REMARK    8  A    between atoms: C_16  and  C_17
REMARK    9  A    between atoms: C_20  and  N_21
REMARK   10  A    between atoms: C_27  and  C_28
REMARK                            x       y       z     vdW  Elec       q    Type
REMARK                         _______ _______ _______ _____ _____    ______ ____
ROOT
ATOM      1  C   UNL     1       0.697   9.999  20.414  0.00  0.00    +0.000 C 
ENDROOT
BRANCH   1   2
ATOM      2  C   UNL     1       1.328   8.677  20.174  0.00  0.00    +0.000 A 
ATOM      3  N   UNL     1       1.281   7.594  20.919  0.00  0.00    +0.000 NA
ATOM      4  N   UNL     1       2.021   6.639  20.262  0.00  0.00    +0.000 NA
ATOM      5  C   UNL     1       2.481   7.200  19.160  0.00  0.00    +0.000 A 
ATOM      6  O   UNL     1       2.089   8.512  19.039  0.00  0.00    +0.000 OA
BRANCH   5   7
ATOM      7  C   UNL     1       3.343   6.623  18.133  0.00  0.00    +0.000 A 
ATOM      8  C   UNL     1       3.397   5.223  18.008  0.00  0.00    +0.000 A 
ATOM      9  C   UNL     1       4.245   4.604  17.084  0.00  0.00    +0.000 A 
ATOM     10  C   UNL     1       5.057   5.392  16.264  0.00  0.00    +0.000 A 
ATOM     11  C   UNL     1       5.005   6.790  16.351  0.00  0.00    +0.000 A 
ATOM     12  C   UNL     1       4.147   7.401  17.281  0.00  0.00    +0.000 A 
BRANCH  10  13
ATOM     13  N   UNL     1       5.980   4.745  15.322  0.00  0.00    +0.000 N 
ATOM     14  O   UNL     1       5.804   3.543  15.076  0.00  0.00    +0.000 OA
ATOM     15  O   UNL     1       6.885   5.438  14.835  0.00  0.00    +0.000 OA
ENDBRANCH  10  13
ENDBRANCH   5   7
ENDBRANCH   1   2
BRANCH   1  16
ATOM     16  O   UNL     1       0.692  10.752  19.184  0.00  0.00    +0.000 OA
BRANCH  16  17
ATOM     17  C   UNL     1      -0.144  11.831  19.216  0.00  0.00    +0.000 C 
ATOM     18  O   UNL     1       0.118  12.860  19.824  0.00  0.00    +0.000 OA
BRANCH  17  23
ATOM     19  C   UNL     1      -3.517  11.451  17.674  0.00  0.00    +0.000 A 
ATOM     20  C   UNL     1      -2.663  10.908  16.716  0.00  0.00    +0.000 A 
ATOM     21  C   UNL     1      -2.864  10.311  15.365  0.00  0.00    +0.000 C 
ATOM     22  N   UNL     1      -1.378  10.983  17.213  0.00  0.00    +0.000 N 
ATOM     23  C   UNL     1      -1.348  11.577  18.450  0.00  0.00    +0.000 A 
ATOM     24  C   UNL     1      -2.669  11.866  18.776  0.00  0.00    +0.000 A 
ATOM     25  C   UNL     1      -3.161  12.512  20.036  0.00  0.00    +0.000 C 
ATOM     26  H   UNL     1      -0.552  10.659  16.726  0.00  0.00    +0.000 HD
BRANCH  19  28
ATOM     27  C   UNL     1      -5.881  10.728  18.466  0.00  0.00    +0.000 C 
ATOM     28  C   UNL     1      -4.988  11.609  17.640  0.00  0.00    +0.000 C 
ATOM     29  O   UNL     1      -5.517  12.465  16.926  0.00  0.00    +0.000 OA
ENDBRANCH  19  28
ENDBRANCH  17  23
ENDBRANCH  16  17
ENDBRANCH   1  16
TORSDOF 7
ENDMDL
