MODEL 1
REMARK VINA RESULT:      -7.6      0.000      0.000
REMARK  Name = 
REMARK  10 active torsions:
REMARK  status: ('A' for Active; 'I' for Inactive)
REMARK    1  A    between atoms: C_1  and  C_2
REMARK    2  A    between atoms: C_2  and  C_3
REMARK    3  A    between atoms: C_2  and  O_4
REMARK    4  A    between atoms: C_2  and  C_5
REMARK    5  A    between atoms: N_8  and  C_9
REMARK    6  A    between atoms: C_12  and  C_13
REMARK    7  A    between atoms: N_15  and  C_16
REMARK    8  A    between atoms: C_19  and  O_20
REMARK    9  A    between atoms: O_20  and  C_21
REMARK   10  A    between atoms: C_28  and  C_29
REMARK                            x       y       z     vdW  Elec       q    Type
REMARK                         _______ _______ _______ _____ _____    ______ ____
ROOT
ATOM      1  C   UNL     1      -0.555  11.732  20.829  0.00  0.00    +0.000 A 
ATOM      2  N   UNL     1      -0.587  10.387  20.983  0.00  0.00    +0.000 NA
ATOM      3  C   UNL     1       0.202   9.610  20.203  0.00  0.00    +0.000 A 
ATOM      4  C   UNL     1       1.078  10.103  19.254  0.00  0.00    +0.000 A 
ATOM      5  C   UNL     1       1.149  11.488  19.113  0.00  0.00    +0.000 A 
ATOM      6  C   UNL     1       0.335  12.345  19.902  0.00  0.00    +0.000 A 
ENDROOT
BRANCH   6   7
ATOM      7  C   UNL     1       0.457  13.813  19.746  0.00  0.00    +0.000 A 
ATOM      8  C   UNL     1      -0.315  14.552  18.861  0.00  0.00    +0.000 A 
ATOM      9  N   UNL     1      -0.268  15.895  18.719  0.00  0.00    +0.000 NA
ATOM     10  C   UNL     1       0.597  16.532  19.517  0.00  0.00    +0.000 A 
ATOM     11  N   UNL     1       1.417  15.953  20.400  0.00  0.00    +0.000 NA
ATOM     12  C   UNL     1       1.334  14.604  20.481  0.00  0.00    +0.000 A 
ENDBRANCH   6   7
BRANCH   1  16
ATOM     13  C   UNL     1      -3.673  12.857  22.406  0.00  0.00    +0.000 C 
ATOM     14  C   UNL     1      -2.892  12.031  23.434  0.00  0.00    +0.000 C 
ATOM     15  C   UNL     1      -1.425  12.243  23.068  0.00  0.00    +0.000 C 
ATOM     16  N   UNL     1      -1.424  12.487  21.620  0.00  0.00    +0.000 N 
ATOM     17  C   UNL     1      -2.815  12.607  21.147  0.00  0.00    +0.000 C 
BRANCH  13  19
ATOM     18  C   UNL     1      -5.401  14.687  22.804  0.00  0.00    +0.000 C 
ATOM     19  C   UNL     1      -3.900  14.348  22.810  0.00  0.00    +0.000 C 
ATOM     20  C   UNL     1      -3.195  15.328  21.858  0.00  0.00    +0.000 C 
BRANCH  19  21
ATOM     21  O   UNL     1      -3.416  14.591  24.129  0.00  0.00    +0.000 OA
ATOM     22  H   UNL     1      -3.450  13.757  24.630  0.00  0.00    +0.000 HD
ENDBRANCH  19  21
ENDBRANCH  13  19
ENDBRANCH   1  16
BRANCH   4  23
ATOM     23  C   UNL     1       1.797   9.132  18.399  0.00  0.00    +0.000 C 
ATOM     24  O   UNL     1       1.964   9.447  17.225  0.00  0.00    +0.000 OA
ATOM     25  N   UNL     1       2.185   7.931  18.979  0.00  0.00    +0.000 N 
ATOM     26  H   UNL     1       1.791   7.692  19.878  0.00  0.00    +0.000 HD
BRANCH  25  27
ATOM     27  C   UNL     1       2.930   6.915  18.329  0.00  0.00    +0.000 A 
ATOM     28  C   UNL     1       2.439   5.624  18.119  0.00  0.00    +0.000 A 
ATOM     29  C   UNL     1       3.219   4.657  17.480  0.00  0.00    +0.000 A 
ATOM     30  C   UNL     1       4.502   4.959  17.028  0.00  0.00    +0.000 A 
ATOM     31  C   UNL     1       5.010   6.235  17.253  0.00  0.00    +0.000 A 
ATOM     32  C   UNL     1       4.216   7.219  17.876  0.00  0.00    +0.000 A 
BRANCH  30  33
ATOM     33  O   UNL     1       5.175   3.913  16.480  0.00  0.00    +0.000 OA
BRANCH  33  34
ATOM     34  C   UNL     1       6.002   4.127  15.345  0.00  0.00    +0.000 C 
ATOM     35  F   UNL     1       5.576   5.101  14.516  0.00  0.00    +0.000 F 
ATOM     36  F   UNL     1       7.249   4.436  15.764  0.00  0.00    +0.000 F 
ATOM     37  F   UNL     1       6.071   2.978  14.636  0.00  0.00    +0.000 F 
ENDBRANCH  33  34
ENDBRANCH  30  33
ENDBRANCH  25  27
ENDBRANCH   4  23
TORSDOF 8
ENDMDL
MODEL 2
REMARK VINA RESULT:      -7.5      0.516      1.105
REMARK  Name = 
REMARK  10 active torsions:
REMARK  status: ('A' for Active; 'I' for Inactive)
REMARK    1  A    between atoms: C_1  and  C_2
REMARK    2  A    between atoms: C_2  and  C_3
REMARK    3  A    between atoms: C_2  and  O_4
REMARK    4  A    between atoms: C_2  and  C_5
REMARK    5  A    between atoms: N_8  and  C_9
REMARK    6  A    between atoms: C_12  and  C_13
REMARK    7  A    between atoms: N_15  and  C_16
REMARK    8  A    between atoms: C_19  and  O_20
REMARK    9  A    between atoms: O_20  and  C_21
REMARK   10  A    between atoms: C_28  and  C_29
REMARK                            x       y       z     vdW  Elec       q    Type
REMARK                         _______ _______ _______ _____ _____    ______ ____
ROOT
ATOM      1  C   UNL     1      -0.447  11.636  20.789  0.00  0.00    +0.000 A 
ATOM      2  N   UNL     1      -0.480  10.295  20.963  0.00  0.00    +0.000 NA
ATOM      3  C   UNL     1       0.298   9.504  20.186  0.00  0.00    +0.000 A 
ATOM      4  C   UNL     1       1.165   9.981  19.221  0.00  0.00    +0.000 A 
ATOM      5  C   UNL     1       1.237  11.362  19.057  0.00  0.00    +0.000 A 
ATOM      6  C   UNL     1       0.434  12.234  19.843  0.00  0.00    +0.000 A 
ENDROOT
BRANCH   6   7
ATOM      7  C   UNL     1       0.557  13.699  19.663  0.00  0.00    +0.000 A 
ATOM      8  C   UNL     1      -0.242  14.430  18.796  0.00  0.00    +0.000 A 
ATOM      9  N   UNL     1      -0.194  15.771  18.635  0.00  0.00    +0.000 NA
ATOM     10  C   UNL     1       0.702  16.414  19.394  0.00  0.00    +0.000 A 
ATOM     11  N   UNL     1       1.551  15.841  20.254  0.00  0.00    +0.000 NA
ATOM     12  C   UNL     1       1.463  14.494  20.356  0.00  0.00    +0.000 A 
ENDBRANCH   6   7
BRANCH   1  16
ATOM     13  C   UNL     1      -3.551  12.816  22.353  0.00  0.00    +0.000 C 
ATOM     14  C   UNL     1      -2.792  11.971  23.382  0.00  0.00    +0.000 C 
ATOM     15  C   UNL     1      -1.320  12.155  23.025  0.00  0.00    +0.000 C 
ATOM     16  N   UNL     1      -1.305  12.405  21.578  0.00  0.00    +0.000 N 
ATOM     17  C   UNL     1      -2.691  12.555  21.098  0.00  0.00    +0.000 C 
BRANCH  13  19
ATOM     18  C   UNL     1      -2.923  15.235  21.851  0.00  0.00    +0.000 C 
ATOM     19  C   UNL     1      -3.750  14.311  22.762  0.00  0.00    +0.000 C 
ATOM     20  C   UNL     1      -3.328  14.584  24.214  0.00  0.00    +0.000 C 
BRANCH  19  21
ATOM     21  O   UNL     1      -5.118  14.691  22.622  0.00  0.00    +0.000 OA
ATOM     22  H   UNL     1      -5.655  13.886  22.529  0.00  0.00    +0.000 HD
ENDBRANCH  19  21
ENDBRANCH  13  19
ENDBRANCH   1  16
BRANCH   4  23
ATOM     23  C   UNL     1       1.871   8.994  18.372  0.00  0.00    +0.000 C 
ATOM     24  O   UNL     1       2.002   9.280  17.186  0.00  0.00    +0.000 OA
ATOM     25  N   UNL     1       2.290   7.815  18.973  0.00  0.00    +0.000 N 
ATOM     26  H   UNL     1       1.924   7.595  19.889  0.00  0.00    +0.000 HD
BRANCH  25  27
ATOM     27  C   UNL     1       3.029   6.790  18.329  0.00  0.00    +0.000 A 
ATOM     28  C   UNL     1       4.348   6.955  17.900  0.00  0.00    +0.000 A 
ATOM     29  C   UNL     1       5.029   5.914  17.262  0.00  0.00    +0.000 A 
ATOM     30  C   UNL     1       4.410   4.684  17.046  0.00  0.00    +0.000 A 
ATOM     31  C   UNL     1       3.088   4.517  17.447  0.00  0.00    +0.000 A 
ATOM     32  C   UNL     1       2.409   5.558  18.112  0.00  0.00    +0.000 A 
BRANCH  30  33
ATOM     33  O   UNL     1       5.161   3.781  16.360  0.00  0.00    +0.000 OA
BRANCH  33  34
ATOM     34  C   UNL     1       5.917   4.206  15.236  0.00  0.00    +0.000 C 
ATOM     35  F   UNL     1       5.400   5.264  14.579  0.00  0.00    +0.000 F 
ATOM     36  F   UNL     1       7.166   4.524  15.644  0.00  0.00    +0.000 F 
ATOM     37  F   UNL     1       6.011   3.179  14.363  0.00  0.00    +0.000 F 
ENDBRANCH  33  34
ENDBRANCH  30  33
ENDBRANCH  25  27
ENDBRANCH   4  23
TORSDOF 8
ENDMDL
MODEL 3
REMARK VINA RESULT:      -7.5      2.258      3.234
REMARK  Name = 
REMARK  10 active torsions:
REMARK  status: ('A' for Active; 'I' for Inactive)
REMARK    1  A    between atoms: C_1  and  C_2
REMARK    2  A    between atoms: C_2  and  C_3
REMARK    3  A    between atoms: C_2  and  O_4
REMARK    4  A    between atoms: C_2  and  C_5
REMARK    5  A    between atoms: N_8  and  C_9
REMARK    6  A    between atoms: C_12  and  C_13
REMARK    7  A    between atoms: N_15  and  C_16
REMARK    8  A    between atoms: C_19  and  O_20
REMARK    9  A    between atoms: O_20  and  C_21
REMARK   10  A    between atoms: C_28  and  C_29
REMARK                            x       y       z     vdW  Elec       q    Type
REMARK                         _______ _______ _______ _____ _____    ______ ____
ROOT
ATOM      1  C   UNL     1      -1.243  11.508  20.395  0.00  0.00    +0.000 A 
ATOM      2  N   UNL     1      -0.020  11.289  20.931  0.00  0.00    +0.000 NA
ATOM      3  C   UNL     1       0.897  10.582  20.227  0.00  0.00    +0.000 A 
ATOM      4  C   UNL     1       0.678  10.076  18.959  0.00  0.00    +0.000 A 
ATOM      5  C   UNL     1      -0.565  10.327  18.382  0.00  0.00    +0.000 A 
ATOM      6  C   UNL     1      -1.563  11.056  19.083  0.00  0.00    +0.000 A 
ENDROOT
BRANCH   6   7
ATOM      7  C   UNL     1      -2.863  11.329  18.426  0.00  0.00    +0.000 A 
ATOM      8  C   UNL     1      -3.975  11.805  19.106  0.00  0.00    +0.000 A 
ATOM      9  N   UNL     1      -5.164  12.110  18.539  0.00  0.00    +0.000 NA
ATOM     10  C   UNL     1      -5.235  11.935  17.214  0.00  0.00    +0.000 A 
ATOM     11  N   UNL     1      -4.255  11.466  16.434  0.00  0.00    +0.000 NA
ATOM     12  C   UNL     1      -3.097  11.163  17.066  0.00  0.00    +0.000 A 
ENDBRANCH   6   7
BRANCH   1  16
ATOM     13  C   UNL     1      -2.809  12.996  23.362  0.00  0.00    +0.000 C 
ATOM     14  C   UNL     1      -2.110  14.114  22.583  0.00  0.00    +0.000 C 
ATOM     15  C   UNL     1      -2.163  13.664  21.126  0.00  0.00    +0.000 C 
ATOM     16  N   UNL     1      -2.171  12.196  21.179  0.00  0.00    +0.000 N 
ATOM     17  C   UNL     1      -2.305  11.763  22.582  0.00  0.00    +0.000 C 
BRANCH  13  19
ATOM     18  C   UNL     1      -4.745  14.648  23.488  0.00  0.00    +0.000 C 
ATOM     19  C   UNL     1      -4.358  13.159  23.481  0.00  0.00    +0.000 C 
ATOM     20  C   UNL     1      -4.919  12.523  24.763  0.00  0.00    +0.000 C 
BRANCH  19  21
ATOM     21  O   UNL     1      -5.014  12.555  22.368  0.00  0.00    +0.000 OA
ATOM     22  H   UNL     1      -4.364  12.019  21.880  0.00  0.00    +0.000 HD
ENDBRANCH  19  21
ENDBRANCH  13  19
ENDBRANCH   1  16
BRANCH   4  23
ATOM     23  C   UNL     1       1.732   9.229  18.356  0.00  0.00    +0.000 C 
ATOM     24  O   UNL     1       2.239   9.637  17.316  0.00  0.00    +0.000 OA
ATOM     25  N   UNL     1       2.030   8.030  18.988  0.00  0.00    +0.000 N 
ATOM     26  H   UNL     1       1.392   7.697  19.697  0.00  0.00    +0.000 HD
BRANCH  25  27
ATOM     27  C   UNL     1       3.047   7.127  18.585  0.00  0.00    +0.000 A 
ATOM     28  C   UNL     1       3.693   7.208  17.349  0.00  0.00    +0.000 A 
ATOM     29  C   UNL     1       4.683   6.287  16.997  0.00  0.00    +0.000 A 
ATOM     30  C   UNL     1       5.056   5.270  17.874  0.00  0.00    +0.000 A 
ATOM     31  C   UNL     1       4.401   5.165  19.098  0.00  0.00    +0.000 A 
ATOM     32  C   UNL     1       3.420   6.108  19.464  0.00  0.00    +0.000 A 
BRANCH  30  33
ATOM     33  O   UNL     1       5.985   4.406  17.385  0.00  0.00    +0.000 OA
BRANCH  33  34
ATOM     34  C   UNL     1       7.286   4.879  17.069  0.00  0.00    +0.000 C 
ATOM     35  F   UNL     1       7.552   6.127  17.506  0.00  0.00    +0.000 F 
ATOM     36  F   UNL     1       8.199   4.036  17.601  0.00  0.00    +0.000 F 
ATOM     37  F   UNL     1       7.438   4.867  15.726  0.00  0.00    +0.000 F 
ENDBRANCH  33  34
ENDBRANCH  30  33
ENDBRANCH  25  27
ENDBRANCH   4  23
TORSDOF 8
ENDMDL
MODEL 4
REMARK VINA RESULT:      -7.5      0.136      1.029
REMARK  Name = 
REMARK  10 active torsions:
REMARK  status: ('A' for Active; 'I' for Inactive)
REMARK    1  A    between atoms: C_1  and  C_2
REMARK    2  A    between atoms: C_2  and  C_3
REMARK    3  A    between atoms: C_2  and  O_4
REMARK    4  A    between atoms: C_2  and  C_5
REMARK    5  A    between atoms: N_8  and  C_9
REMARK    6  A    between atoms: C_12  and  C_13
REMARK    7  A    between atoms: N_15  and  C_16
REMARK    8  A    between atoms: C_19  and  O_20
REMARK    9  A    between atoms: O_20  and  C_21
REMARK   10  A    between atoms: C_28  and  C_29
REMARK                            x       y       z     vdW  Elec       q    Type
REMARK                         _______ _______ _______ _____ _____    ______ ____
ROOT
ATOM      1  C   UNL     1      -0.546  11.716  20.868  0.00  0.00    +0.000 A 
ATOM      2  N   UNL     1      -0.577  10.372  21.024  0.00  0.00    +0.000 NA
ATOM      3  C   UNL     1       0.197   9.593  20.232  0.00  0.00    +0.000 A 
ATOM      4  C   UNL     1       1.058  10.083  19.268  0.00  0.00    +0.000 A 
ATOM      5  C   UNL     1       1.128  11.467  19.123  0.00  0.00    +0.000 A 
ATOM      6  C   UNL     1       0.329  12.327  19.925  0.00  0.00    +0.000 A 
ENDROOT
BRANCH   6   7
ATOM      7  C   UNL     1       0.451  13.795  19.764  0.00  0.00    +0.000 A 
ATOM      8  C   UNL     1       1.387  14.561  20.444  0.00  0.00    +0.000 A 
ATOM      9  N   UNL     1       1.563  15.892  20.293  0.00  0.00    +0.000 NA
ATOM     10  C   UNL     1       0.758  16.485  19.403  0.00  0.00    +0.000 A 
ATOM     11  N   UNL     1      -0.200  15.881  18.692  0.00  0.00    +0.000 NA
ATOM     12  C   UNL     1      -0.336  14.550  18.902  0.00  0.00    +0.000 A 
ENDBRANCH   6   7
BRANCH   1  16
ATOM     13  C   UNL     1      -3.650  12.915  22.417  0.00  0.00    +0.000 C 
ATOM     14  C   UNL     1      -2.938  12.003  23.422  0.00  0.00    +0.000 C 
ATOM     15  C   UNL     1      -1.454  12.160  23.106  0.00  0.00    +0.000 C 
ATOM     16  N   UNL     1      -1.400  12.474  21.671  0.00  0.00    +0.000 N 
ATOM     17  C   UNL     1      -2.770  12.685  21.169  0.00  0.00    +0.000 C 
BRANCH  13  19
ATOM     18  C   UNL     1      -5.289  14.692  23.222  0.00  0.00    +0.000 C 
ATOM     19  C   UNL     1      -3.817  14.394  22.888  0.00  0.00    +0.000 C 
ATOM     20  C   UNL     1      -3.366  15.405  21.821  0.00  0.00    +0.000 C 
BRANCH  19  21
ATOM     21  O   UNL     1      -3.057  14.634  24.071  0.00  0.00    +0.000 OA
ATOM     22  H   UNL     1      -2.838  13.777  24.476  0.00  0.00    +0.000 HD
ENDBRANCH  19  21
ENDBRANCH  13  19
ENDBRANCH   1  16
BRANCH   4  23
ATOM     23  C   UNL     1       1.760   9.109  18.402  0.00  0.00    +0.000 C 
ATOM     24  O   UNL     1       1.846   9.390  17.211  0.00  0.00    +0.000 OA
ATOM     25  N   UNL     1       2.226   7.943  18.995  0.00  0.00    +0.000 N 
ATOM     26  H   UNL     1       1.895   7.720  19.923  0.00  0.00    +0.000 HD
BRANCH  25  27
ATOM     27  C   UNL     1       2.968   6.932  18.333  0.00  0.00    +0.000 A 
ATOM     28  C   UNL     1       2.468   5.649  18.096  0.00  0.00    +0.000 A 
ATOM     29  C   UNL     1       3.246   4.687  17.446  0.00  0.00    +0.000 A 
ATOM     30  C   UNL     1       4.536   4.987  17.011  0.00  0.00    +0.000 A 
ATOM     31  C   UNL     1       5.053   6.254  17.265  0.00  0.00    +0.000 A 
ATOM     32  C   UNL     1       4.261   7.233  17.898  0.00  0.00    +0.000 A 
BRANCH  30  33
ATOM     33  O   UNL     1       5.206   3.944  16.451  0.00  0.00    +0.000 OA
BRANCH  33  34
ATOM     34  C   UNL     1       5.969   4.153  15.272  0.00  0.00    +0.000 C 
ATOM     35  F   UNL     1       6.087   3.068  14.480  0.00  0.00    +0.000 F 
ATOM     36  F   UNL     1       5.400   5.147  14.553  0.00  0.00    +0.000 F 
ATOM     37  F   UNL     1       7.212   4.550  15.624  0.00  0.00    +0.000 F 
ENDBRANCH  33  34
ENDBRANCH  30  33
ENDBRANCH  25  27
ENDBRANCH   4  23
TORSDOF 8
ENDMDL
MODEL 5
REMARK VINA RESULT:      -7.5      1.905      3.012
REMARK  Name = 
REMARK  10 active torsions:
REMARK  status: ('A' for Active; 'I' for Inactive)
REMARK    1  A    between atoms: C_1  and  C_2
REMARK    2  A    between atoms: C_2  and  C_3
REMARK    3  A    between atoms: C_2  and  O_4
REMARK    4  A    between atoms: C_2  and  C_5
REMARK    5  A    between atoms: N_8  and  C_9
REMARK    6  A    between atoms: C_12  and  C_13
REMARK    7  A    between atoms: N_15  and  C_16
REMARK    8  A    between atoms: C_19  and  O_20
REMARK    9  A    between atoms: O_20  and  C_21
REMARK   10  A    between atoms: C_28  and  C_29
REMARK                            x       y       z     vdW  Elec       q    Type
REMARK                         _______ _______ _______ _____ _____    ______ ____
ROOT
ATOM      1  C   UNL     1      -0.862  11.560  20.515  0.00  0.00    +0.000 A 
ATOM      2  N   UNL     1       0.389  11.239  20.917  0.00  0.00    +0.000 NA
ATOM      3  C   UNL     1       1.163  10.460  20.124  0.00  0.00    +0.000 A 
ATOM      4  C   UNL     1       0.767   9.976  18.892  0.00  0.00    +0.000 A 
ATOM      5  C   UNL     1      -0.506  10.330  18.449  0.00  0.00    +0.000 A 
ATOM      6  C   UNL     1      -1.359  11.139  19.249  0.00  0.00    +0.000 A 
ENDROOT
BRANCH   6   7
ATOM      7  C   UNL     1      -2.695  11.520  18.734  0.00  0.00    +0.000 A 
ATOM      8  C   UNL     1      -3.078  11.350  17.411  0.00  0.00    +0.000 A 
ATOM      9  N   UNL     1      -4.300  11.641  16.910  0.00  0.00    +0.000 NA
ATOM     10  C   UNL     1      -5.187  12.122  17.789  0.00  0.00    +0.000 A 
ATOM     11  N   UNL     1      -4.953  12.357  19.085  0.00  0.00    +0.000 NA
ATOM     12  C   UNL     1      -3.706  12.061  19.520  0.00  0.00    +0.000 A 
ENDBRANCH   6   7
BRANCH   1  16
ATOM     13  C   UNL     1      -2.120  12.972  23.661  0.00  0.00    +0.000 C 
ATOM     14  C   UNL     1      -1.208  14.013  23.004  0.00  0.00    +0.000 C 
ATOM     15  C   UNL     1      -1.340  13.755  21.506  0.00  0.00    +0.000 C 
ATOM     16  N   UNL     1      -1.640  12.322  21.390  0.00  0.00    +0.000 N 
ATOM     17  C   UNL     1      -1.866  11.763  22.735  0.00  0.00    +0.000 C 
BRANCH  13  19
ATOM     18  C   UNL     1      -3.678  14.843  24.414  0.00  0.00    +0.000 C 
ATOM     19  C   UNL     1      -3.606  13.423  23.825  0.00  0.00    +0.000 C 
ATOM     20  C   UNL     1      -4.404  12.491  24.751  0.00  0.00    +0.000 C 
BRANCH  19  21
ATOM     21  O   UNL     1      -4.264  13.455  22.560  0.00  0.00    +0.000 OA
ATOM     22  H   UNL     1      -5.135  13.873  22.675  0.00  0.00    +0.000 HD
ENDBRANCH  19  21
ENDBRANCH  13  19
ENDBRANCH   1  16
BRANCH   4  23
ATOM     23  C   UNL     1       1.676   9.045  18.185  0.00  0.00    +0.000 C 
ATOM     24  O   UNL     1       2.036   9.374  17.059  0.00  0.00    +0.000 OA
ATOM     25  N   UNL     1       2.012   7.863  18.831  0.00  0.00    +0.000 N 
ATOM     26  H   UNL     1       1.476   7.600  19.645  0.00  0.00    +0.000 HD
BRANCH  25  27
ATOM     27  C   UNL     1       2.912   6.889  18.330  0.00  0.00    +0.000 A 
ATOM     28  C   UNL     1       4.266   7.147  18.098  0.00  0.00    +0.000 A 
ATOM     29  C   UNL     1       5.108   6.153  17.594  0.00  0.00    +0.000 A 
ATOM     30  C   UNL     1       4.621   4.876  17.319  0.00  0.00    +0.000 A 
ATOM     31  C   UNL     1       3.269   4.615  17.523  0.00  0.00    +0.000 A 
ATOM     32  C   UNL     1       2.423   5.610  18.054  0.00  0.00    +0.000 A 
BRANCH  30  33
ATOM     33  O   UNL     1       5.530   4.023  16.775  0.00  0.00    +0.000 OA
BRANCH  33  34
ATOM     34  C   UNL     1       6.077   4.304  15.495  0.00  0.00    +0.000 C 
ATOM     35  F   UNL     1       7.296   4.880  15.520  0.00  0.00    +0.000 F 
ATOM     36  F   UNL     1       6.162   3.151  14.794  0.00  0.00    +0.000 F 
ATOM     37  F   UNL     1       5.237   5.133  14.837  0.00  0.00    +0.000 F 
ENDBRANCH  33  34
ENDBRANCH  30  33
ENDBRANCH  25  27
ENDBRANCH   4  23
TORSDOF 8
ENDMDL
MODEL 6
REMARK VINA RESULT:      -7.4      2.259      3.186
REMARK  Name = 
REMARK  10 active torsions:
REMARK  status: ('A' for Active; 'I' for Inactive)
REMARK    1  A    between atoms: C_1  and  C_2
REMARK    2  A    between atoms: C_2  and  C_3
REMARK    3  A    between atoms: C_2  and  O_4
REMARK    4  A    between atoms: C_2  and  C_5
REMARK    5  A    between atoms: N_8  and  C_9
REMARK    6  A    between atoms: C_12  and  C_13
REMARK    7  A    between atoms: N_15  and  C_16
REMARK    8  A    between atoms: C_19  and  O_20
REMARK    9  A    between atoms: O_20  and  C_21
REMARK   10  A    between atoms: C_28  and  C_29
REMARK                            x       y       z     vdW  Elec       q    Type
REMARK                         _______ _______ _______ _____ _____    ______ ____
ROOT
ATOM      1  C   UNL     1      -1.232  11.749  20.325  0.00  0.00    +0.000 A 
ATOM      2  N   UNL     1      -0.161  11.538  21.125  0.00  0.00    +0.000 NA
ATOM      3  C   UNL     1       0.712  10.548  20.819  0.00  0.00    +0.000 A 
ATOM      4  C   UNL     1       0.599   9.732  19.709  0.00  0.00    +0.000 A 
ATOM      5  C   UNL     1      -0.479   9.964  18.857  0.00  0.00    +0.000 A 
ATOM      6  C   UNL     1      -1.426  10.986  19.139  0.00  0.00    +0.000 A 
ENDROOT
BRANCH   6   7
ATOM      7  C   UNL     1      -2.543  11.224  18.196  0.00  0.00    +0.000 A 
ATOM      8  C   UNL     1      -2.419  11.098  16.820  0.00  0.00    +0.000 A 
ATOM      9  N   UNL     1      -3.421  11.261  15.928  0.00  0.00    +0.000 NA
ATOM     10  C   UNL     1      -4.617  11.558  16.449  0.00  0.00    +0.000 A 
ATOM     11  N   UNL     1      -4.882  11.731  17.748  0.00  0.00    +0.000 NA
ATOM     12  C   UNL     1      -3.831  11.571  18.588  0.00  0.00    +0.000 A 
ENDBRANCH   6   7
BRANCH   1  16
ATOM     13  C   UNL     1      -3.124  14.025  22.496  0.00  0.00    +0.000 C 
ATOM     14  C   UNL     1      -1.969  14.815  21.871  0.00  0.00    +0.000 C 
ATOM     15  C   UNL     1      -1.727  14.146  20.521  0.00  0.00    +0.000 C 
ATOM     16  N   UNL     1      -2.130  12.746  20.710  0.00  0.00    +0.000 N 
ATOM     17  C   UNL     1      -2.760  12.598  22.035  0.00  0.00    +0.000 C 
BRANCH  13  19
ATOM     18  C   UNL     1      -5.296  15.047  23.353  0.00  0.00    +0.000 C 
ATOM     19  C   UNL     1      -4.547  14.540  22.108  0.00  0.00    +0.000 C 
ATOM     20  C   UNL     1      -5.409  13.448  21.456  0.00  0.00    +0.000 C 
BRANCH  19  21
ATOM     21  O   UNL     1      -4.454  15.632  21.195  0.00  0.00    +0.000 OA
ATOM     22  H   UNL     1      -5.180  15.559  20.552  0.00  0.00    +0.000 HD
ENDBRANCH  19  21
ENDBRANCH  13  19
ENDBRANCH   1  16
BRANCH   4  23
ATOM     23  C   UNL     1       1.565   8.621  19.561  0.00  0.00    +0.000 C 
ATOM     24  O   UNL     1       1.895   8.035  20.588  0.00  0.00    +0.000 OA
ATOM     25  N   UNL     1       2.050   8.357  18.287  0.00  0.00    +0.000 N 
ATOM     26  H   UNL     1       1.885   9.047  17.567  0.00  0.00    +0.000 HD
BRANCH  25  27
ATOM     27  C   UNL     1       2.932   7.298  17.953  0.00  0.00    +0.000 A 
ATOM     28  C   UNL     1       4.254   7.504  17.553  0.00  0.00    +0.000 A 
ATOM     29  C   UNL     1       5.079   6.424  17.226  0.00  0.00    +0.000 A 
ATOM     30  C   UNL     1       4.605   5.115  17.300  0.00  0.00    +0.000 A 
ATOM     31  C   UNL     1       3.281   4.901  17.674  0.00  0.00    +0.000 A 
ATOM     32  C   UNL     1       2.455   5.987  18.027  0.00  0.00    +0.000 A 
BRANCH  30  33
ATOM     33  O   UNL     1       5.488   4.164  16.896  0.00  0.00    +0.000 OA
BRANCH  33  34
ATOM     34  C   UNL     1       5.994   4.195  15.569  0.00  0.00    +0.000 C 
ATOM     35  F   UNL     1       7.162   4.854  15.429  0.00  0.00    +0.000 F 
ATOM     36  F   UNL     1       6.165   2.925  15.137  0.00  0.00    +0.000 F 
ATOM     37  F   UNL     1       5.080   4.789  14.770  0.00  0.00    +0.000 F 
ENDBRANCH  33  34
ENDBRANCH  30  33
ENDBRANCH  25  27
ENDBRANCH   4  23
TORSDOF 8
ENDMDL
MODEL 7
REMARK VINA RESULT:      -7.3      2.202      3.096
REMARK  Name = 
REMARK  10 active torsions:
REMARK  status: ('A' for Active; 'I' for Inactive)
REMARK    1  A    between atoms: C_1  and  C_2
REMARK    2  A    between atoms: C_2  and  C_3
REMARK    3  A    between atoms: C_2  and  O_4
REMARK    4  A    between atoms: C_2  and  C_5
REMARK    5  A    between atoms: N_8  and  C_9
REMARK    6  A    between atoms: C_12  and  C_13
REMARK    7  A    between atoms: N_15  and  C_16
REMARK    8  A    between atoms: C_19  and  O_20
REMARK    9  A    between atoms: O_20  and  C_21
REMARK   10  A    between atoms: C_28  and  C_29
REMARK                            x       y       z     vdW  Elec       q    Type
REMARK                         _______ _______ _______ _____ _____    ______ ____
ROOT
ATOM      1  C   UNL     1      -1.388  11.915  20.559  0.00  0.00    +0.000 A 
ATOM      2  N   UNL     1      -0.294  11.692  21.323  0.00  0.00    +0.000 NA
ATOM      3  C   UNL     1       0.565  10.702  20.982  0.00  0.00    +0.000 A 
ATOM      4  C   UNL     1       0.415   9.898  19.868  0.00  0.00    +0.000 A 
ATOM      5  C   UNL     1      -0.687  10.141  19.052  0.00  0.00    +0.000 A 
ATOM      6  C   UNL     1      -1.622  11.163  19.372  0.00  0.00    +0.000 A 
ENDROOT
BRANCH   6   7
ATOM      7  C   UNL     1      -2.767  11.414  18.466  0.00  0.00    +0.000 A 
ATOM      8  C   UNL     1      -2.708  11.222  17.093  0.00  0.00    +0.000 A 
ATOM      9  N   UNL     1      -3.740  11.393  16.237  0.00  0.00    +0.000 NA
ATOM     10  C   UNL     1      -4.897  11.771  16.793  0.00  0.00    +0.000 A 
ATOM     11  N   UNL     1      -5.096  12.013  18.093  0.00  0.00    +0.000 NA
ATOM     12  C   UNL     1      -4.019  11.840  18.894  0.00  0.00    +0.000 A 
ENDBRANCH   6   7
BRANCH   1  16
ATOM     13  C   UNL     1      -3.220  14.162  22.810  0.00  0.00    +0.000 C 
ATOM     14  C   UNL     1      -2.071  14.955  22.178  0.00  0.00    +0.000 C 
ATOM     15  C   UNL     1      -1.861  14.311  20.811  0.00  0.00    +0.000 C 
ATOM     16  N   UNL     1      -2.271  12.911  20.980  0.00  0.00    +0.000 N 
ATOM     17  C   UNL     1      -2.876  12.741  22.314  0.00  0.00    +0.000 C 
BRANCH  13  19
ATOM     18  C   UNL     1      -5.358  15.204  23.725  0.00  0.00    +0.000 C 
ATOM     19  C   UNL     1      -4.645  14.696  22.460  0.00  0.00    +0.000 C 
ATOM     20  C   UNL     1      -5.536  13.618  21.822  0.00  0.00    +0.000 C 
BRANCH  19  21
ATOM     21  O   UNL     1      -4.563  15.792  21.551  0.00  0.00    +0.000 OA
ATOM     22  H   UNL     1      -5.446  15.948  21.173  0.00  0.00    +0.000 HD
ENDBRANCH  19  21
ENDBRANCH  13  19
ENDBRANCH   1  16
BRANCH   4  23
ATOM     23  C   UNL     1       1.373   8.784  19.680  0.00  0.00    +0.000 C 
ATOM     24  O   UNL     1       1.764   8.215  20.694  0.00  0.00    +0.000 OA
ATOM     25  N   UNL     1       1.781   8.501  18.384  0.00  0.00    +0.000 N 
ATOM     26  H   UNL     1       1.573   9.179  17.664  0.00  0.00    +0.000 HD
BRANCH  25  27
ATOM     27  C   UNL     1       2.643   7.437  18.015  0.00  0.00    +0.000 A 
ATOM     28  C   UNL     1       2.289   6.091  18.137  0.00  0.00    +0.000 A 
ATOM     29  C   UNL     1       3.181   5.081  17.767  0.00  0.00    +0.000 A 
ATOM     30  C   UNL     1       4.441   5.392  17.259  0.00  0.00    +0.000 A 
ATOM     31  C   UNL     1       4.813   6.729  17.156  0.00  0.00    +0.000 A 
ATOM     32  C   UNL     1       3.906   7.749  17.506  0.00  0.00    +0.000 A 
BRANCH  30  33
ATOM     33  O   UNL     1       5.232   4.317  16.997  0.00  0.00    +0.000 OA
BRANCH  33  34
ATOM     34  C   UNL     1       5.899   4.224  15.746  0.00  0.00    +0.000 C 
ATOM     35  F   UNL     1       6.101   2.965  15.310  0.00  0.00    +0.000 F 
ATOM     36  F   UNL     1       5.177   4.889  14.816  0.00  0.00    +0.000 F 
ATOM     37  F   UNL     1       7.103   4.829  15.851  0.00  0.00    +0.000 F 
ENDBRANCH  33  34
ENDBRANCH  30  33
ENDBRANCH  25  27
ENDBRANCH   4  23
TORSDOF 8
ENDMDL
MODEL 8
REMARK VINA RESULT:      -7.3      2.285      3.247
REMARK  Name = 
REMARK  10 active torsions:
REMARK  status: ('A' for Active; 'I' for Inactive)
REMARK    1  A    between atoms: C_1  and  C_2
REMARK    2  A    between atoms: C_2  and  C_3
REMARK    3  A    between atoms: C_2  and  O_4
REMARK    4  A    between atoms: C_2  and  C_5
REMARK    5  A    between atoms: N_8  and  C_9
REMARK    6  A    between atoms: C_12  and  C_13
REMARK    7  A    between atoms: N_15  and  C_16
REMARK    8  A    between atoms: C_19  and  O_20
REMARK    9  A    between atoms: O_20  and  C_21
REMARK   10  A    between atoms: C_28  and  C_29
REMARK                            x       y       z     vdW  Elec       q    Type
REMARK                         _______ _______ _______ _____ _____    ______ ____
ROOT
ATOM      1  C   UNL     1      -1.292  11.891  20.246  0.00  0.00    +0.000 A 
ATOM      2  N   UNL     1      -0.050  11.743  20.764  0.00  0.00    +0.000 NA
ATOM      3  C   UNL     1       0.851  10.965  20.117  0.00  0.00    +0.000 A 
ATOM      4  C   UNL     1       0.597  10.315  18.924  0.00  0.00    +0.000 A 
ATOM      5  C   UNL     1      -0.666  10.489  18.362  0.00  0.00    +0.000 A 
ATOM      6  C   UNL     1      -1.649  11.290  19.006  0.00  0.00    +0.000 A 
ENDROOT
BRANCH   6   7
ATOM      7  C   UNL     1      -2.971  11.477  18.364  0.00  0.00    +0.000 A 
ATOM      8  C   UNL     1      -4.102  11.885  19.055  0.00  0.00    +0.000 A 
ATOM      9  N   UNL     1      -5.314  12.113  18.502  0.00  0.00    +0.000 NA
ATOM     10  C   UNL     1      -5.391  11.927  17.179  0.00  0.00    +0.000 A 
ATOM     11  N   UNL     1      -4.393  11.516  16.389  0.00  0.00    +0.000 NA
ATOM     12  C   UNL     1      -3.210  11.290  17.007  0.00  0.00    +0.000 A 
ENDBRANCH   6   7
BRANCH   1  16
ATOM     13  C   UNL     1      -2.897  13.519  23.118  0.00  0.00    +0.000 C 
ATOM     14  C   UNL     1      -2.057  14.570  22.385  0.00  0.00    +0.000 C 
ATOM     15  C   UNL     1      -2.062  14.122  20.926  0.00  0.00    +0.000 C 
ATOM     16  N   UNL     1      -2.201  12.660  20.975  0.00  0.00    +0.000 N 
ATOM     17  C   UNL     1      -2.457  12.244  22.366  0.00  0.00    +0.000 C 
BRANCH  13  19
ATOM     18  C   UNL     1      -5.192  12.808  22.266  0.00  0.00    +0.000 C 
ATOM     19  C   UNL     1      -4.430  13.817  23.144  0.00  0.00    +0.000 C 
ATOM     20  C   UNL     1      -4.763  15.227  22.633  0.00  0.00    +0.000 C 
BRANCH  19  21
ATOM     21  O   UNL     1      -4.943  13.696  24.470  0.00  0.00    +0.000 OA
ATOM     22  H   UNL     1      -4.216  13.854  25.098  0.00  0.00    +0.000 HD
ENDBRANCH  19  21
ENDBRANCH  13  19
ENDBRANCH   1  16
BRANCH   4  23
ATOM     23  C   UNL     1       1.639   9.410  18.389  0.00  0.00    +0.000 C 
ATOM     24  O   UNL     1       2.199   9.763  17.356  0.00  0.00    +0.000 OA
ATOM     25  N   UNL     1       1.870   8.223  19.072  0.00  0.00    +0.000 N 
ATOM     26  H   UNL     1       1.194   7.938  19.766  0.00  0.00    +0.000 HD
BRANCH  25  27
ATOM     27  C   UNL     1       2.866   7.271  18.737  0.00  0.00    +0.000 A 
ATOM     28  C   UNL     1       3.271   6.253  19.603  0.00  0.00    +0.000 A 
ATOM     29  C   UNL     1       4.264   5.345  19.226  0.00  0.00    +0.000 A 
ATOM     30  C   UNL     1       4.869   5.429  17.974  0.00  0.00    +0.000 A 
ATOM     31  C   UNL     1       4.491   6.454  17.112  0.00  0.00    +0.000 A 
ATOM     32  C   UNL     1       3.472   7.355  17.481  0.00  0.00    +0.000 A 
BRANCH  30  33
ATOM     33  O   UNL     1       5.863   4.525  17.758  0.00  0.00    +0.000 OA
BRANCH  33  34
ATOM     34  C   UNL     1       7.186   4.981  17.521  0.00  0.00    +0.000 C 
ATOM     35  F   UNL     1       8.150   4.082  17.805  0.00  0.00    +0.000 F 
ATOM     36  F   UNL     1       7.301   5.334  16.221  0.00  0.00    +0.000 F 
ATOM     37  F   UNL     1       7.408   6.082  18.274  0.00  0.00    +0.000 F 
ENDBRANCH  33  34
ENDBRANCH  30  33
ENDBRANCH  25  27
ENDBRANCH   4  23
TORSDOF 8
ENDMDL
MODEL 9
REMARK VINA RESULT:      -7.3      5.463     11.598
REMARK  Name = 
REMARK  10 active torsions:
REMARK  status: ('A' for Active; 'I' for Inactive)
REMARK    1  A    between atoms: C_1  and  C_2
REMARK    2  A    between atoms: C_2  and  C_3
REMARK    3  A    between atoms: C_2  and  O_4
REMARK    4  A    between atoms: C_2  and  C_5
REMARK    5  A    between atoms: N_8  and  C_9
REMARK    6  A    between atoms: C_12  and  C_13
REMARK    7  A    between atoms: N_15  and  C_16
REMARK    8  A    between atoms: C_19  and  O_20
REMARK    9  A    between atoms: O_20  and  C_21
REMARK   10  A    between atoms: C_28  and  C_29
REMARK                            x       y       z     vdW  Elec       q    Type
REMARK                         _______ _______ _______ _____ _____    ______ ____
ROOT
ATOM      1  C   UNL     1       2.715   6.707  19.341  0.00  0.00    +0.000 A 
ATOM      2  N   UNL     1       2.707   8.045  19.139  0.00  0.00    +0.000 NA
ATOM      3  C   UNL     1       1.822   8.815  19.818  0.00  0.00    +0.000 A 
ATOM      4  C   UNL     1       0.920   8.324  20.743  0.00  0.00    +0.000 A 
ATOM      5  C   UNL     1       0.944   6.953  20.988  0.00  0.00    +0.000 A 
ATOM      6  C   UNL     1       1.848   6.102  20.295  0.00  0.00    +0.000 A 
ENDROOT
BRANCH   6   7
ATOM      7  C   UNL     1       1.866   4.653  20.602  0.00  0.00    +0.000 A 
ATOM      8  C   UNL     1       2.489   4.118  21.720  0.00  0.00    +0.000 A 
ATOM      9  N   UNL     1       2.490   2.810  22.062  0.00  0.00    +0.000 NA
ATOM     10  C   UNL     1       1.820   1.996  21.238  0.00  0.00    +0.000 A 
ATOM     11  N   UNL     1       1.191   2.365  20.117  0.00  0.00    +0.000 NA
ATOM     12  C   UNL     1       1.242   3.685  19.822  0.00  0.00    +0.000 A 
ENDBRANCH   6   7
BRANCH   1  16
ATOM     13  C   UNL     1       5.261   5.894  16.826  0.00  0.00    +0.000 C 
ATOM     14  C   UNL     1       5.954   5.990  18.189  0.00  0.00    +0.000 C 
ATOM     15  C   UNL     1       4.887   5.572  19.197  0.00  0.00    +0.000 C 
ATOM     16  N   UNL     1       3.609   5.951  18.581  0.00  0.00    +0.000 N 
ATOM     17  C   UNL     1       3.852   6.403  17.199  0.00  0.00    +0.000 C 
BRANCH  13  19
ATOM     18  C   UNL     1       5.498   4.617  14.633  0.00  0.00    +0.000 C 
ATOM     19  C   UNL     1       5.337   4.484  16.158  0.00  0.00    +0.000 C 
ATOM     20  C   UNL     1       4.081   3.639  16.423  0.00  0.00    +0.000 C 
BRANCH  19  21
ATOM     21  O   UNL     1       6.466   3.759  16.642  0.00  0.00    +0.000 OA
ATOM     22  H   UNL     1       6.631   4.023  17.564  0.00  0.00    +0.000 HD
ENDBRANCH  19  21
ENDBRANCH  13  19
ENDBRANCH   1  16
BRANCH   4  23
ATOM     23  C   UNL     1      -0.061   9.267  21.327  0.00  0.00    +0.000 C 
ATOM     24  O   UNL     1      -0.792   8.828  22.209  0.00  0.00    +0.000 OA
ATOM     25  N   UNL     1      -0.104  10.552  20.804  0.00  0.00    +0.000 N 
ATOM     26  H   UNL     1       0.380  10.725  19.934  0.00  0.00    +0.000 HD
BRANCH  25  27
ATOM     27  C   UNL     1      -0.936  11.598  21.279  0.00  0.00    +0.000 A 
ATOM     28  C   UNL     1      -0.788  12.178  22.541  0.00  0.00    +0.000 A 
ATOM     29  C   UNL     1      -1.641  13.200  22.963  0.00  0.00    +0.000 A 
ATOM     30  C   UNL     1      -2.656  13.671  22.133  0.00  0.00    +0.000 A 
ATOM     31  C   UNL     1      -2.829  13.083  20.883  0.00  0.00    +0.000 A 
ATOM     32  C   UNL     1      -1.953  12.069  20.446  0.00  0.00    +0.000 A 
BRANCH  30  33
ATOM     33  O   UNL     1      -3.453  14.623  22.689  0.00  0.00    +0.000 OA
BRANCH  33  34
ATOM     34  C   UNL     1      -4.324  14.274  23.754  0.00  0.00    +0.000 C 
ATOM     35  F   UNL     1      -3.761  14.319  24.978  0.00  0.00    +0.000 F 
ATOM     36  F   UNL     1      -5.388  15.108  23.741  0.00  0.00    +0.000 F 
ATOM     37  F   UNL     1      -4.777  13.016  23.550  0.00  0.00    +0.000 F 
ENDBRANCH  33  34
ENDBRANCH  30  33
ENDBRANCH  25  27
ENDBRANCH   4  23
TORSDOF 8
ENDMDL
