MODEL 1
REMARK VINA RESULT:      -7.6      0.000      0.000
REMARK  Name = 
REMARK  6 active torsions:
REMARK  status: ('A' for Active; 'I' for Inactive)
REMARK    1  A    between atoms: O_1  and  C_2
REMARK    2  A    between atoms: C_2  and  C_3
REMARK    3  A    between atoms: C_2  and  C_10
REMARK    4  A    between atoms: C_2  and  C_16
REMARK    5  A    between atoms: C_3  and  N_4
REMARK    6  A    between atoms: C_10  and  N_11
REMARK                            x       y       z     vdW  Elec       q    Type
REMARK                         _______ _______ _______ _____ _____    ______ ____
ROOT
ATOM      1  C   UNL     1       3.178   5.982  18.850  0.00  0.00    +0.000 C 
ENDROOT
BRANCH   1   2
ATOM      2  C   UNL     1       2.459   7.334  18.897  0.00  0.00    +0.000 A 
ATOM      3  C   UNL     1       2.537   8.212  17.795  0.00  0.00    +0.000 A 
ATOM      4  C   UNL     1       1.902   9.454  17.807  0.00  0.00    +0.000 A 
ATOM      5  C   UNL     1       1.187   9.846  18.927  0.00  0.00    +0.000 A 
ATOM      6  F   UNL     1       0.590  11.044  18.941  0.00  0.00    +0.000 F 
ATOM      7  C   UNL     1       1.087   9.013  20.030  0.00  0.00    +0.000 A 
ATOM      8  C   UNL     1       1.706   7.765  20.001  0.00  0.00    +0.000 A 
ATOM      9  F   UNL     1       1.577   6.983  21.080  0.00  0.00    +0.000 F 
ENDBRANCH   1   2
BRANCH   1  10
ATOM     10  O   UNL     1       3.950   5.843  20.067  0.00  0.00    +0.000 OA
ATOM     11  H   UNL     1       4.892   5.921  19.842  0.00  0.00    +0.000 HD
ENDBRANCH   1  10
BRANCH   1  12
ATOM     12  C   UNL     1       4.171   5.903  17.604  0.00  0.00    +0.000 C 
BRANCH  12  13
ATOM     13  N   UNL     1       4.793   4.595  17.304  0.00  0.00    +0.000 NA
ATOM     14  C   UNL     1       5.039   4.317  15.875  0.00  0.00    +0.000 C 
ATOM     15  C   UNL     1       6.275   5.008  15.256  0.00  0.00    +0.000 C 
ATOM     16  N   UNL     1       7.511   4.830  16.021  0.00  0.00    +0.000 NA
ATOM     17  C   UNL     1       7.310   5.062  17.454  0.00  0.00    +0.000 C 
ATOM     18  C   UNL     1       6.058   4.367  18.038  0.00  0.00    +0.000 C 
ATOM     19  H   UNL     1       8.233   5.455  15.665  0.00  0.00    +0.000 HD
ENDBRANCH  12  13
ENDBRANCH   1  12
BRANCH   1  20
ATOM     20  C   UNL     1       2.244   4.733  18.794  0.00  0.00    +0.000 C 
BRANCH  20  21
ATOM     21  N   UNL     1       2.179   3.857  19.950  0.00  0.00    +0.000 N 
ATOM     22  C   UNL     1       1.207   3.659  20.875  0.00  0.00    +0.000 A 
ATOM     23  N   UNL     1       1.602   2.774  21.763  0.00  0.00    +0.000 NA
ATOM     24  C   UNL     1       2.861   2.462  21.343  0.00  0.00    +0.000 A 
ATOM     25  N   UNL     1       3.265   3.106  20.247  0.00  0.00    +0.000 NA
ENDBRANCH  20  21
ENDBRANCH   1  20
TORSDOF 6
ENDMDL
MODEL 2
REMARK VINA RESULT:      -7.4      0.843      1.015
REMARK  Name = 
REMARK  6 active torsions:
REMARK  status: ('A' for Active; 'I' for Inactive)
REMARK    1  A    between atoms: O_1  and  C_2
REMARK    2  A    between atoms: C_2  and  C_3
REMARK    3  A    between atoms: C_2  and  C_10
REMARK    4  A    between atoms: C_2  and  C_16
REMARK    5  A    between atoms: C_3  and  N_4
REMARK    6  A    between atoms: C_10  and  N_11
REMARK                            x       y       z     vdW  Elec       q    Type
REMARK                         _______ _______ _______ _____ _____    ______ ____
ROOT
ATOM      1  C   UNL     1       2.926   6.282  18.737  0.00  0.00    +0.000 C 
ENDROOT
BRANCH   1   2
ATOM      2  C   UNL     1       2.259   7.653  18.887  0.00  0.00    +0.000 A 
ATOM      3  C   UNL     1       2.326   8.589  17.833  0.00  0.00    +0.000 A 
ATOM      4  C   UNL     1       1.738   9.850  17.938  0.00  0.00    +0.000 A 
ATOM      5  C   UNL     1       1.082  10.202  19.107  0.00  0.00    +0.000 A 
ATOM      6  F   UNL     1       0.529  11.417  19.210  0.00  0.00    +0.000 F 
ATOM      7  C   UNL     1       0.993   9.312  20.165  0.00  0.00    +0.000 A 
ATOM      8  C   UNL     1       1.565   8.047  20.042  0.00  0.00    +0.000 A 
ATOM      9  F   UNL     1       1.449   7.210  21.081  0.00  0.00    +0.000 F 
ENDBRANCH   1   2
BRANCH   1  10
ATOM     10  O   UNL     1       3.509   5.926  20.013  0.00  0.00    +0.000 OA
ATOM     11  H   UNL     1       3.121   5.084  20.302  0.00  0.00    +0.000 HD
ENDBRANCH   1  10
BRANCH   1  12
ATOM     12  C   UNL     1       4.084   6.325  17.641  0.00  0.00    +0.000 C 
BRANCH  12  13
ATOM     13  N   UNL     1       5.003   5.167  17.567  0.00  0.00    +0.000 NA
ATOM     14  C   UNL     1       5.104   4.515  16.248  0.00  0.00    +0.000 C 
ATOM     15  C   UNL     1       5.986   5.236  15.203  0.00  0.00    +0.000 C 
ATOM     16  N   UNL     1       7.319   5.597  15.687  0.00  0.00    +0.000 NA
ATOM     17  C   UNL     1       7.274   6.219  17.014  0.00  0.00    +0.000 C 
ATOM     18  C   UNL     1       6.374   5.479  18.030  0.00  0.00    +0.000 C 
ATOM     19  H   UNL     1       7.772   6.224  15.024  0.00  0.00    +0.000 HD
ENDBRANCH  12  13
ENDBRANCH   1  12
BRANCH   1  20
ATOM     20  C   UNL     1       1.963   5.111  18.367  0.00  0.00    +0.000 C 
BRANCH  20  21
ATOM     21  N   UNL     1       1.837   3.994  19.286  0.00  0.00    +0.000 N 
ATOM     22  C   UNL     1       2.294   2.718  19.218  0.00  0.00    +0.000 A 
ATOM     23  N   UNL     1       1.916   2.047  20.283  0.00  0.00    +0.000 NA
ATOM     24  C   UNL     1       1.197   2.967  20.986  0.00  0.00    +0.000 A 
ATOM     25  N   UNL     1       1.109   4.169  20.413  0.00  0.00    +0.000 NA
ENDBRANCH  20  21
ENDBRANCH   1  20
TORSDOF 6
ENDMDL
MODEL 3
REMARK VINA RESULT:      -7.3      3.193      6.198
REMARK  Name = 
REMARK  6 active torsions:
REMARK  status: ('A' for Active; 'I' for Inactive)
REMARK    1  A    between atoms: O_1  and  C_2
REMARK    2  A    between atoms: C_2  and  C_3
REMARK    3  A    between atoms: C_2  and  C_10
REMARK    4  A    between atoms: C_2  and  C_16
REMARK    5  A    between atoms: C_3  and  N_4
REMARK    6  A    between atoms: C_10  and  N_11
REMARK                            x       y       z     vdW  Elec       q    Type
REMARK                         _______ _______ _______ _____ _____    ______ ____
ROOT
ATOM      1  C   UNL     1       4.960   4.270  18.233  0.00  0.00    +0.000 C 
ENDROOT
BRANCH   1   2
ATOM      2  C   UNL     1       5.619   4.448  16.861  0.00  0.00    +0.000 A 
ATOM      3  C   UNL     1       4.881   4.187  15.687  0.00  0.00    +0.000 A 
ATOM      4  C   UNL     1       5.451   4.331  14.421  0.00  0.00    +0.000 A 
ATOM      5  C   UNL     1       6.774   4.724  14.308  0.00  0.00    +0.000 A 
ATOM      6  F   UNL     1       7.323   4.848  13.092  0.00  0.00    +0.000 F 
ATOM      7  C   UNL     1       7.534   4.989  15.437  0.00  0.00    +0.000 A 
ATOM      8  C   UNL     1       6.949   4.865  16.696  0.00  0.00    +0.000 A 
ATOM      9  F   UNL     1       7.710   5.141  17.763  0.00  0.00    +0.000 F 
ENDBRANCH   1   2
BRANCH   1  10
ATOM     10  O   UNL     1       5.793   3.383  19.018  0.00  0.00    +0.000 OA
ATOM     11  H   UNL     1       5.403   3.302  19.903  0.00  0.00    +0.000 HD
ENDBRANCH   1  10
BRANCH   1  12
ATOM     12  C   UNL     1       3.511   3.619  18.094  0.00  0.00    +0.000 C 
BRANCH  12  13
ATOM     13  N   UNL     1       3.123   2.589  19.082  0.00  0.00    +0.000 NA
ATOM     14  C   UNL     1       2.908   3.073  20.459  0.00  0.00    +0.000 C 
ATOM     15  C   UNL     1       1.560   3.782  20.723  0.00  0.00    +0.000 C 
ATOM     16  N   UNL     1       0.387   3.035  20.265  0.00  0.00    +0.000 NA
ATOM     17  C   UNL     1       0.567   2.503  18.911  0.00  0.00    +0.000 C 
ATOM     18  C   UNL     1       1.930   1.811  18.678  0.00  0.00    +0.000 C 
ATOM     19  H   UNL     1      -0.439   3.631  20.298  0.00  0.00    +0.000 HD
ENDBRANCH  12  13
ENDBRANCH   1  12
BRANCH   1  20
ATOM     20  C   UNL     1       4.818   5.576  19.076  0.00  0.00    +0.000 C 
BRANCH  20  21
ATOM     21  N   UNL     1       3.835   6.565  18.670  0.00  0.00    +0.000 N 
ATOM     22  C   UNL     1       3.749   7.345  17.564  0.00  0.00    +0.000 A 
ATOM     23  N   UNL     1       2.686   8.115  17.637  0.00  0.00    +0.000 NA
ATOM     24  C   UNL     1       2.147   7.779  18.843  0.00  0.00    +0.000 A 
ATOM     25  N   UNL     1       2.819   6.845  19.518  0.00  0.00    +0.000 NA
ENDBRANCH  20  21
ENDBRANCH   1  20
TORSDOF 6
ENDMDL
MODEL 4
REMARK VINA RESULT:      -7.3      1.146      1.454
REMARK  Name = 
REMARK  6 active torsions:
REMARK  status: ('A' for Active; 'I' for Inactive)
REMARK    1  A    between atoms: O_1  and  C_2
REMARK    2  A    between atoms: C_2  and  C_3
REMARK    3  A    between atoms: C_2  and  C_10
REMARK    4  A    between atoms: C_2  and  C_16
REMARK    5  A    between atoms: C_3  and  N_4
REMARK    6  A    between atoms: C_10  and  N_11
REMARK                            x       y       z     vdW  Elec       q    Type
REMARK                         _______ _______ _______ _____ _____    ______ ____
ROOT
ATOM      1  C   UNL     1       3.057   6.113  18.815  0.00  0.00    +0.000 C 
ENDROOT
BRANCH   1   2
ATOM      2  C   UNL     1       2.358   7.473  18.914  0.00  0.00    +0.000 A 
ATOM      3  C   UNL     1       2.434   8.383  17.839  0.00  0.00    +0.000 A 
ATOM      4  C   UNL     1       1.817   9.633  17.897  0.00  0.00    +0.000 A 
ATOM      5  C   UNL     1       1.125  10.001  19.039  0.00  0.00    +0.000 A 
ATOM      6  F   UNL     1       0.545  11.207  19.097  0.00  0.00    +0.000 F 
ATOM      7  C   UNL     1       1.027   9.136  20.118  0.00  0.00    +0.000 A 
ATOM      8  C   UNL     1       1.628   7.880  20.041  0.00  0.00    +0.000 A 
ATOM      9  F   UNL     1       1.502   7.068  21.098  0.00  0.00    +0.000 F 
ENDBRANCH   1   2
BRANCH   1  10
ATOM     10  O   UNL     1       3.755   5.877  20.062  0.00  0.00    +0.000 OA
ATOM     11  H   UNL     1       3.619   6.646  20.639  0.00  0.00    +0.000 HD
ENDBRANCH   1  10
BRANCH   1  12
ATOM     12  C   UNL     1       4.119   6.098  17.625  0.00  0.00    +0.000 C 
BRANCH  12  13
ATOM     13  N   UNL     1       5.308   5.230  17.777  0.00  0.00    +0.000 NA
ATOM     14  C   UNL     1       5.644   4.399  16.605  0.00  0.00    +0.000 C 
ATOM     15  C   UNL     1       6.365   5.125  15.446  0.00  0.00    +0.000 C 
ATOM     16  N   UNL     1       7.533   5.906  15.859  0.00  0.00    +0.000 NA
ATOM     17  C   UNL     1       7.257   6.725  17.043  0.00  0.00    +0.000 C 
ATOM     18  C   UNL     1       6.524   5.971  18.178  0.00  0.00    +0.000 C 
ATOM     19  H   UNL     1       7.843   6.499  15.091  0.00  0.00    +0.000 HD
ENDBRANCH  12  13
ENDBRANCH   1  12
BRANCH   1  20
ATOM     20  C   UNL     1       2.107   4.890  18.622  0.00  0.00    +0.000 C 
BRANCH  20  21
ATOM     21  N   UNL     1       2.681   3.557  18.591  0.00  0.00    +0.000 N 
ATOM     22  C   UNL     1       2.631   2.578  17.653  0.00  0.00    +0.000 A 
ATOM     23  N   UNL     1       3.289   1.520  18.071  0.00  0.00    +0.000 NA
ATOM     24  C   UNL     1       3.721   1.896  19.308  0.00  0.00    +0.000 A 
ATOM     25  N   UNL     1       3.365   3.128  19.677  0.00  0.00    +0.000 NA
ENDBRANCH  20  21
ENDBRANCH   1  20
TORSDOF 6
ENDMDL
MODEL 5
REMARK VINA RESULT:      -7.1      1.503      1.926
REMARK  Name = 
REMARK  6 active torsions:
REMARK  status: ('A' for Active; 'I' for Inactive)
REMARK    1  A    between atoms: O_1  and  C_2
REMARK    2  A    between atoms: C_2  and  C_3
REMARK    3  A    between atoms: C_2  and  C_10
REMARK    4  A    between atoms: C_2  and  C_16
REMARK    5  A    between atoms: C_3  and  N_4
REMARK    6  A    between atoms: C_10  and  N_11
REMARK                            x       y       z     vdW  Elec       q    Type
REMARK                         _______ _______ _______ _____ _____    ______ ____
ROOT
ATOM      1  C   UNL     1       2.885   6.288  18.913  0.00  0.00    +0.000 C 
ENDROOT
BRANCH   1   2
ATOM      2  C   UNL     1       2.176   7.609  19.227  0.00  0.00    +0.000 A 
ATOM      3  C   UNL     1       1.669   7.847  20.522  0.00  0.00    +0.000 A 
ATOM      4  C   UNL     1       1.011   9.035  20.842  0.00  0.00    +0.000 A 
ATOM      5  C   UNL     1       0.835  10.002  19.866  0.00  0.00    +0.000 A 
ATOM      6  F   UNL     1       0.191  11.136  20.171  0.00  0.00    +0.000 F 
ATOM      7  C   UNL     1       1.317   9.808  18.581  0.00  0.00    +0.000 A 
ATOM      8  C   UNL     1       1.993   8.627  18.278  0.00  0.00    +0.000 A 
ATOM      9  F   UNL     1       2.455   8.481  17.029  0.00  0.00    +0.000 F 
ENDBRANCH   1   2
BRANCH   1  10
ATOM     10  O   UNL     1       3.254   5.670  20.169  0.00  0.00    +0.000 OA
ATOM     11  H   UNL     1       2.602   5.927  20.840  0.00  0.00    +0.000 HD
ENDBRANCH   1  10
BRANCH   1  12
ATOM     12  C   UNL     1       4.207   6.535  18.057  0.00  0.00    +0.000 C 
BRANCH  12  13
ATOM     13  N   UNL     1       5.203   5.442  18.000  0.00  0.00    +0.000 NA
ATOM     14  C   UNL     1       5.281   4.715  16.719  0.00  0.00    +0.000 C 
ATOM     15  C   UNL     1       6.051   5.428  15.584  0.00  0.00    +0.000 C 
ATOM     16  N   UNL     1       7.379   5.910  15.968  0.00  0.00    +0.000 NA
ATOM     17  C   UNL     1       7.359   6.612  17.255  0.00  0.00    +0.000 C 
ATOM     18  C   UNL     1       6.570   5.878  18.364  0.00  0.00    +0.000 C 
ATOM     19  H   UNL     1       7.749   6.525  15.243  0.00  0.00    +0.000 HD
ENDBRANCH  12  13
ENDBRANCH   1  12
BRANCH   1  20
ATOM     20  C   UNL     1       2.018   5.232  18.158  0.00  0.00    +0.000 C 
BRANCH  20  21
ATOM     21  N   UNL     1       1.804   3.935  18.774  0.00  0.00    +0.000 N 
ATOM     22  C   UNL     1       2.181   2.687  18.398  0.00  0.00    +0.000 A 
ATOM     23  N   UNL     1       1.741   1.803  19.264  0.00  0.00    +0.000 NA
ATOM     24  C   UNL     1       1.066   2.569  20.167  0.00  0.00    +0.000 A 
ATOM     25  N   UNL     1       1.065   3.877  19.906  0.00  0.00    +0.000 NA
ENDBRANCH  20  21
ENDBRANCH   1  20
TORSDOF 6
ENDMDL
MODEL 6
REMARK VINA RESULT:      -6.9      0.998      1.432
REMARK  Name = 
REMARK  6 active torsions:
REMARK  status: ('A' for Active; 'I' for Inactive)
REMARK    1  A    between atoms: O_1  and  C_2
REMARK    2  A    between atoms: C_2  and  C_3
REMARK    3  A    between atoms: C_2  and  C_10
REMARK    4  A    between atoms: C_2  and  C_16
REMARK    5  A    between atoms: C_3  and  N_4
REMARK    6  A    between atoms: C_10  and  N_11
REMARK                            x       y       z     vdW  Elec       q    Type
REMARK                         _______ _______ _______ _____ _____    ______ ____
ROOT
ATOM      1  C   UNL     1       3.280   5.931  18.814  0.00  0.00    +0.000 C 
ENDROOT
BRANCH   1   2
ATOM      2  C   UNL     1       2.548   7.276  18.877  0.00  0.00    +0.000 A 
ATOM      3  C   UNL     1       1.864   7.651  20.053  0.00  0.00    +0.000 A 
ATOM      4  C   UNL     1       1.180   8.863  20.144  0.00  0.00    +0.000 A 
ATOM      5  C   UNL     1       1.156   9.717  19.053  0.00  0.00    +0.000 A 
ATOM      6  F   UNL     1       0.487  10.874  19.138  0.00  0.00    +0.000 F 
ATOM      7  C   UNL     1       1.814   9.386  17.880  0.00  0.00    +0.000 A 
ATOM      8  C   UNL     1       2.514   8.182  17.807  0.00  0.00    +0.000 A 
ATOM      9  F   UNL     1       3.147   7.903  16.660  0.00  0.00    +0.000 F 
ENDBRANCH   1   2
BRANCH   1  10
ATOM     10  O   UNL     1       3.971   5.739  20.071  0.00  0.00    +0.000 OA
ATOM     11  H   UNL     1       3.627   6.383  20.711  0.00  0.00    +0.000 HD
ENDBRANCH   1  10
BRANCH   1  12
ATOM     12  C   UNL     1       4.353   5.918  17.634  0.00  0.00    +0.000 C 
BRANCH  12  13
ATOM     13  N   UNL     1       4.867   4.603  17.189  0.00  0.00    +0.000 NA
ATOM     14  C   UNL     1       5.233   4.511  15.762  0.00  0.00    +0.000 C 
ATOM     15  C   UNL     1       6.592   5.135  15.372  0.00  0.00    +0.000 C 
ATOM     16  N   UNL     1       7.715   4.703  16.207  0.00  0.00    +0.000 NA
ATOM     17  C   UNL     1       7.388   4.745  17.635  0.00  0.00    +0.000 C 
ATOM     18  C   UNL     1       6.017   4.124  17.989  0.00  0.00    +0.000 C 
ATOM     19  H   UNL     1       8.531   5.285  16.020  0.00  0.00    +0.000 HD
ENDBRANCH  12  13
ENDBRANCH   1  12
BRANCH   1  20
ATOM     20  C   UNL     1       2.361   4.682  18.637  0.00  0.00    +0.000 C 
BRANCH  20  21
ATOM     21  N   UNL     1       2.115   3.828  19.786  0.00  0.00    +0.000 N 
ATOM     22  C   UNL     1       1.024   3.679  20.577  0.00  0.00    +0.000 A 
ATOM     23  N   UNL     1       1.268   2.797  21.520  0.00  0.00    +0.000 NA
ATOM     24  C   UNL     1       2.559   2.435  21.274  0.00  0.00    +0.000 A 
ATOM     25  N   UNL     1       3.125   3.046  20.232  0.00  0.00    +0.000 NA
ENDBRANCH  20  21
ENDBRANCH   1  20
TORSDOF 6
ENDMDL
MODEL 7
REMARK VINA RESULT:      -6.9      1.496      4.921
REMARK  Name = 
REMARK  6 active torsions:
REMARK  status: ('A' for Active; 'I' for Inactive)
REMARK    1  A    between atoms: O_1  and  C_2
REMARK    2  A    between atoms: C_2  and  C_3
REMARK    3  A    between atoms: C_2  and  C_10
REMARK    4  A    between atoms: C_2  and  C_16
REMARK    5  A    between atoms: C_3  and  N_4
REMARK    6  A    between atoms: C_10  and  N_11
REMARK                            x       y       z     vdW  Elec       q    Type
REMARK                         _______ _______ _______ _____ _____    ______ ____
ROOT
ATOM      1  C   UNL     1       3.934   5.931  18.470  0.00  0.00    +0.000 C 
ENDROOT
BRANCH   1   2
ATOM      2  C   UNL     1       2.973   7.098  18.715  0.00  0.00    +0.000 A 
ATOM      3  C   UNL     1       2.300   7.209  19.950  0.00  0.00    +0.000 A 
ATOM      4  C   UNL     1       1.411   8.254  20.206  0.00  0.00    +0.000 A 
ATOM      5  C   UNL     1       1.170   9.201  19.223  0.00  0.00    +0.000 A 
ATOM      6  F   UNL     1       0.306  10.195  19.466  0.00  0.00    +0.000 F 
ATOM      7  C   UNL     1       1.810   9.128  17.997  0.00  0.00    +0.000 A 
ATOM      8  C   UNL     1       2.713   8.093  17.759  0.00  0.00    +0.000 A 
ATOM      9  F   UNL     1       3.322   8.062  16.567  0.00  0.00    +0.000 F 
ENDBRANCH   1   2
BRANCH   1  10
ATOM     10  O   UNL     1       3.552   5.289  17.230  0.00  0.00    +0.000 OA
ATOM     11  H   UNL     1       3.466   4.336  17.392  0.00  0.00    +0.000 HD
ENDBRANCH   1  10
BRANCH   1  12
ATOM     12  C   UNL     1       3.847   4.859  19.647  0.00  0.00    +0.000 C 
BRANCH  12  13
ATOM     13  N   UNL     1       3.201   3.562  19.348  0.00  0.00    +0.000 NA
ATOM     14  C   UNL     1       3.364   2.515  20.376  0.00  0.00    +0.000 C 
ATOM     15  C   UNL     1       2.453   2.642  21.619  0.00  0.00    +0.000 C 
ATOM     16  N   UNL     1       1.033   2.825  21.308  0.00  0.00    +0.000 NA
ATOM     17  C   UNL     1       0.823   3.833  20.265  0.00  0.00    +0.000 C 
ATOM     18  C   UNL     1       1.758   3.684  19.043  0.00  0.00    +0.000 C 
ATOM     19  H   UNL     1       0.524   3.086  22.152  0.00  0.00    +0.000 HD
ENDBRANCH  12  13
ENDBRANCH   1  12
BRANCH   1  20
ATOM     20  C   UNL     1       5.434   6.329  18.297  0.00  0.00    +0.000 C 
BRANCH  20  21
ATOM     21  N   UNL     1       6.230   5.636  17.301  0.00  0.00    +0.000 N 
ATOM     22  C   UNL     1       7.188   4.683  17.420  0.00  0.00    +0.000 A 
ATOM     23  N   UNL     1       7.655   4.363  16.234  0.00  0.00    +0.000 NA
ATOM     24  C   UNL     1       6.951   5.177  15.397  0.00  0.00    +0.000 A 
ATOM     25  N   UNL     1       6.076   5.983  16.002  0.00  0.00    +0.000 NA
ENDBRANCH  20  21
ENDBRANCH   1  20
TORSDOF 6
ENDMDL
MODEL 8
REMARK VINA RESULT:      -6.9      3.627      6.473
REMARK  Name = 
REMARK  6 active torsions:
REMARK  status: ('A' for Active; 'I' for Inactive)
REMARK    1  A    between atoms: O_1  and  C_2
REMARK    2  A    between atoms: C_2  and  C_3
REMARK    3  A    between atoms: C_2  and  C_10
REMARK    4  A    between atoms: C_2  and  C_16
REMARK    5  A    between atoms: C_3  and  N_4
REMARK    6  A    between atoms: C_10  and  N_11
REMARK                            x       y       z     vdW  Elec       q    Type
REMARK                         _______ _______ _______ _____ _____    ______ ____
ROOT
ATOM      1  C   UNL     1       5.400   5.673  16.421  0.00  0.00    +0.000 C 
ENDROOT
BRANCH   1   2
ATOM      2  C   UNL     1       6.449   6.446  17.227  0.00  0.00    +0.000 A 
ATOM      3  C   UNL     1       6.665   7.817  16.970  0.00  0.00    +0.000 A 
ATOM      4  C   UNL     1       7.618   8.550  17.678  0.00  0.00    +0.000 A 
ATOM      5  C   UNL     1       8.382   7.921  18.647  0.00  0.00    +0.000 A 
ATOM      6  F   UNL     1       9.305   8.625  19.316  0.00  0.00    +0.000 F 
ATOM      7  C   UNL     1       8.202   6.577  18.929  0.00  0.00    +0.000 A 
ATOM      8  C   UNL     1       7.232   5.858  18.232  0.00  0.00    +0.000 A 
ATOM      9  F   UNL     1       7.079   4.564  18.541  0.00  0.00    +0.000 F 
ENDBRANCH   1   2
BRANCH   1  10
ATOM     10  O   UNL     1       4.962   6.518  15.330  0.00  0.00    +0.000 OA
ATOM     11  H   UNL     1       4.563   7.319  15.706  0.00  0.00    +0.000 HD
ENDBRANCH   1  10
BRANCH   1  12
ATOM     12  C   UNL     1       4.137   5.309  17.324  0.00  0.00    +0.000 C 
BRANCH  12  13
ATOM     13  N   UNL     1       3.946   3.890  17.697  0.00  0.00    +0.000 NA
ATOM     14  C   UNL     1       4.181   3.565  19.117  0.00  0.00    +0.000 C 
ATOM     15  C   UNL     1       3.041   3.938  20.093  0.00  0.00    +0.000 C 
ATOM     16  N   UNL     1       1.718   3.464  19.682  0.00  0.00    +0.000 NA
ATOM     17  C   UNL     1       1.451   3.734  18.266  0.00  0.00    +0.000 C 
ATOM     18  C   UNL     1       2.615   3.361  17.320  0.00  0.00    +0.000 C 
ATOM     19  H   UNL     1       0.999   3.898  20.260  0.00  0.00    +0.000 HD
ENDBRANCH  12  13
ENDBRANCH   1  12
BRANCH   1  20
ATOM     20  C   UNL     1       5.909   4.354  15.760  0.00  0.00    +0.000 C 
BRANCH  20  21
ATOM     21  N   UNL     1       6.471   4.415  14.422  0.00  0.00    +0.000 N 
ATOM     22  C   UNL     1       6.165   3.740  13.286  0.00  0.00    +0.000 A 
ATOM     23  N   UNL     1       6.961   4.113  12.311  0.00  0.00    +0.000 NA
ATOM     24  C   UNL     1       7.773   5.029  12.911  0.00  0.00    +0.000 A 
ATOM     25  N   UNL     1       7.521   5.240  14.204  0.00  0.00    +0.000 NA
ENDBRANCH  20  21
ENDBRANCH   1  20
TORSDOF 6
ENDMDL
MODEL 9
REMARK VINA RESULT:      -6.9      2.989      5.009
REMARK  Name = 
REMARK  6 active torsions:
REMARK  status: ('A' for Active; 'I' for Inactive)
REMARK    1  A    between atoms: O_1  and  C_2
REMARK    2  A    between atoms: C_2  and  C_3
REMARK    3  A    between atoms: C_2  and  C_10
REMARK    4  A    between atoms: C_2  and  C_16
REMARK    5  A    between atoms: C_3  and  N_4
REMARK    6  A    between atoms: C_10  and  N_11
REMARK                            x       y       z     vdW  Elec       q    Type
REMARK                         _______ _______ _______ _____ _____    ______ ____
ROOT
ATOM      1  C   UNL     1       2.801   5.608  18.279  0.00  0.00    +0.000 C 
ENDROOT
BRANCH   1   2
ATOM      2  C   UNL     1       2.386   4.565  19.321  0.00  0.00    +0.000 A 
ATOM      3  C   UNL     1       2.535   4.845  20.696  0.00  0.00    +0.000 A 
ATOM      4  C   UNL     1       2.175   3.916  21.673  0.00  0.00    +0.000 A 
ATOM      5  C   UNL     1       1.672   2.683  21.291  0.00  0.00    +0.000 A 
ATOM      6  F   UNL     1       1.341   1.788  22.231  0.00  0.00    +0.000 F 
ATOM      7  C   UNL     1       1.511   2.368  19.951  0.00  0.00    +0.000 A 
ATOM      8  C   UNL     1       1.852   3.312  18.983  0.00  0.00    +0.000 A 
ATOM      9  F   UNL     1       1.670   2.976  17.700  0.00  0.00    +0.000 F 
ENDBRANCH   1   2
BRANCH   1  10
ATOM     10  O   UNL     1       1.657   5.874  17.432  0.00  0.00    +0.000 OA
ATOM     11  H   UNL     1       1.979   6.187  16.572  0.00  0.00    +0.000 HD
ENDBRANCH   1  10
BRANCH   1  12
ATOM     12  C   UNL     1       3.994   5.067  17.369  0.00  0.00    +0.000 C 
BRANCH  12  13
ATOM     13  N   UNL     1       5.084   6.010  17.035  0.00  0.00    +0.000 NA
ATOM     14  C   UNL     1       6.385   5.735  17.675  0.00  0.00    +0.000 C 
ATOM     15  C   UNL     1       7.222   4.599  17.044  0.00  0.00    +0.000 C 
ATOM     16  N   UNL     1       7.390   4.710  15.593  0.00  0.00    +0.000 NA
ATOM     17  C   UNL     1       6.128   5.017  14.914  0.00  0.00    +0.000 C 
ATOM     18  C   UNL     1       5.310   6.149  15.579  0.00  0.00    +0.000 C 
ATOM     19  H   UNL     1       7.783   3.846  15.222  0.00  0.00    +0.000 HD
ENDBRANCH  12  13
ENDBRANCH   1  12
BRANCH   1  20
ATOM     20  C   UNL     1       3.232   6.991  18.858  0.00  0.00    +0.000 C 
BRANCH  20  21
ATOM     21  N   UNL     1       2.296   8.100  18.789  0.00  0.00    +0.000 N 
ATOM     22  C   UNL     1       1.459   8.629  19.716  0.00  0.00    +0.000 A 
ATOM     23  N   UNL     1       0.777   9.623  19.192  0.00  0.00    +0.000 NA
ATOM     24  C   UNL     1       1.226   9.657  17.905  0.00  0.00    +0.000 A 
ATOM     25  N   UNL     1       2.146   8.739  17.606  0.00  0.00    +0.000 NA
ENDBRANCH  20  21
ENDBRANCH   1  20
TORSDOF 6
ENDMDL
