MODEL 1
REMARK VINA RESULT:      -8.7      0.000      0.000
REMARK  Name = 
REMARK  9 active torsions:
REMARK  status: ('A' for Active; 'I' for Inactive)
REMARK    1  A    between atoms: C_1  and  C_2
REMARK    2  A    between atoms: C_2  and  C_3
REMARK    3  A    between atoms: C_2  and  C_4
REMARK    4  A    between atoms: C_2  and  C_5
REMARK    5  A    between atoms: C_9  and  C_10
REMARK    6  A    between atoms: C_10  and  C_11
REMARK    7  A    between atoms: C_10  and  C_12
REMARK    8  A    between atoms: C_10  and  C_13
REMARK    9  A    between atoms: C_15  and  C_16
REMARK                            x       y       z     vdW  Elec       q    Type
REMARK                         _______ _______ _______ _____ _____    ______ ____
ROOT
ATOM      1  C   UNL     1       2.364   4.234  17.996  0.00  0.00    +0.000 C 
ATOM      2  O   UNL     1       1.271   4.503  17.484  0.00  0.00    +0.000 OA
ATOM      3  N   UNL     1       3.383   5.175  18.021  0.00  0.00    +0.000 N 
ATOM      4  N   UNL     1       4.670   4.837  18.301  0.00  0.00    +0.000 NA
ATOM      5  C   UNL     1       5.430   5.824  17.949  0.00  0.00    +0.000 C 
ATOM      6  C   UNL     1       4.703   7.031  17.425  0.00  0.00    +0.000 C 
ATOM      7  C   UNL     1       3.256   6.535  17.490  0.00  0.00    +0.000 C 
ENDROOT
BRANCH   7   8
ATOM      8  C   UNL     1       2.423   7.466  18.357  0.00  0.00    +0.000 A 
ATOM      9  C   UNL     1       1.874   8.637  17.802  0.00  0.00    +0.000 A 
ATOM     10  C   UNL     1       1.172   9.543  18.601  0.00  0.00    +0.000 A 
ATOM     11  C   UNL     1       1.009   9.288  19.962  0.00  0.00    +0.000 A 
ATOM     12 CL   UNL     1       0.172  10.417  20.953  0.00  0.00    +0.000 Cl
ATOM     13  C   UNL     1       1.532   8.129  20.527  0.00  0.00    +0.000 A 
ATOM     14  C   UNL     1       2.239   7.227  19.730  0.00  0.00    +0.000 A 
ENDBRANCH   7   8
BRANCH   1  16
ATOM     15  C   UNL     1       1.237   2.158  18.870  0.00  0.00    +0.000 C 
ATOM     16  C   UNL     1       2.595   2.876  18.732  0.00  0.00    +0.000 C 
ATOM     17  C   UNL     1       3.138   3.178  20.138  0.00  0.00    +0.000 C 
ATOM     18  C   UNL     1       3.538   1.895  18.013  0.00  0.00    +0.000 C 
ENDBRANCH   1  16
BRANCH   5  19
ATOM     19  C   UNL     1       6.949   5.743  18.050  0.00  0.00    +0.000 C 
ATOM     20  C   UNL     1       7.584   7.043  17.518  0.00  0.00    +0.000 C 
ATOM     21  C   UNL     1       7.359   5.570  19.518  0.00  0.00    +0.000 C 
ATOM     22  C   UNL     1       7.458   4.567  17.213  0.00  0.00    +0.000 C 
ENDBRANCH   5  19
TORSDOF 3
ENDMDL
MODEL 2
REMARK VINA RESULT:      -8.6      0.066      1.297
REMARK  Name = 
REMARK  9 active torsions:
REMARK  status: ('A' for Active; 'I' for Inactive)
REMARK    1  A    between atoms: C_1  and  C_2
REMARK    2  A    between atoms: C_2  and  C_3
REMARK    3  A    between atoms: C_2  and  C_4
REMARK    4  A    between atoms: C_2  and  C_5
REMARK    5  A    between atoms: C_9  and  C_10
REMARK    6  A    between atoms: C_10  and  C_11
REMARK    7  A    between atoms: C_10  and  C_12
REMARK    8  A    between atoms: C_10  and  C_13
REMARK    9  A    between atoms: C_15  and  C_16
REMARK                            x       y       z     vdW  Elec       q    Type
REMARK                         _______ _______ _______ _____ _____    ______ ____
ROOT
ATOM      1  C   UNL     1       2.369   4.234  18.003  0.00  0.00    +0.000 C 
ATOM      2  O   UNL     1       1.276   4.499  17.489  0.00  0.00    +0.000 OA
ATOM      3  N   UNL     1       3.385   5.178  18.026  0.00  0.00    +0.000 N 
ATOM      4  N   UNL     1       4.673   4.844  18.309  0.00  0.00    +0.000 NA
ATOM      5  C   UNL     1       5.430   5.832  17.955  0.00  0.00    +0.000 C 
ATOM      6  C   UNL     1       4.702   7.035  17.426  0.00  0.00    +0.000 C 
ATOM      7  C   UNL     1       3.256   6.536  17.490  0.00  0.00    +0.000 C 
ENDROOT
BRANCH   7   8
ATOM      8  C   UNL     1       2.419   7.467  18.353  0.00  0.00    +0.000 A 
ATOM      9  C   UNL     1       1.866   8.634  17.793  0.00  0.00    +0.000 A 
ATOM     10  C   UNL     1       1.161   9.541  18.588  0.00  0.00    +0.000 A 
ATOM     11  C   UNL     1       0.998   9.291  19.950  0.00  0.00    +0.000 A 
ATOM     12 CL   UNL     1       0.157  10.421  20.936  0.00  0.00    +0.000 Cl
ATOM     13  C   UNL     1       1.525   8.137  20.519  0.00  0.00    +0.000 A 
ATOM     14  C   UNL     1       2.236   7.234  19.727  0.00  0.00    +0.000 A 
ENDBRANCH   7   8
BRANCH   1  16
ATOM     15  C   UNL     1       3.515   1.995  17.870  0.00  0.00    +0.000 C 
ATOM     16  C   UNL     1       2.602   2.879  18.744  0.00  0.00    +0.000 C 
ATOM     17  C   UNL     1       1.243   2.178  18.903  0.00  0.00    +0.000 C 
ATOM     18  C   UNL     1       3.288   2.995  20.117  0.00  0.00    +0.000 C 
ENDBRANCH   1  16
BRANCH   5  19
ATOM     19  C   UNL     1       6.950   5.755  18.059  0.00  0.00    +0.000 C 
ATOM     20  C   UNL     1       7.474   4.552  17.249  0.00  0.00    +0.000 C 
ATOM     21  C   UNL     1       7.572   7.033  17.484  0.00  0.00    +0.000 C 
ATOM     22  C   UNL     1       7.356   5.576  19.523  0.00  0.00    +0.000 C 
ENDBRANCH   5  19
TORSDOF 3
ENDMDL
MODEL 3
REMARK VINA RESULT:      -8.6      0.122      1.037
REMARK  Name = 
REMARK  9 active torsions:
REMARK  status: ('A' for Active; 'I' for Inactive)
REMARK    1  A    between atoms: C_1  and  C_2
REMARK    2  A    between atoms: C_2  and  C_3
REMARK    3  A    between atoms: C_2  and  C_4
REMARK    4  A    between atoms: C_2  and  C_5
REMARK    5  A    between atoms: C_9  and  C_10
REMARK    6  A    between atoms: C_10  and  C_11
REMARK    7  A    between atoms: C_10  and  C_12
REMARK    8  A    between atoms: C_10  and  C_13
REMARK    9  A    between atoms: C_15  and  C_16
REMARK                            x       y       z     vdW  Elec       q    Type
REMARK                         _______ _______ _______ _____ _____    ______ ____
ROOT
ATOM      1  C   UNL     1       2.356   4.333  18.047  0.00  0.00    +0.000 C 
ATOM      2  O   UNL     1       1.262   4.621  17.548  0.00  0.00    +0.000 OA
ATOM      3  N   UNL     1       3.394   5.253  18.052  0.00  0.00    +0.000 N 
ATOM      4  N   UNL     1       4.678   4.891  18.317  0.00  0.00    +0.000 NA
ATOM      5  C   UNL     1       5.453   5.859  17.948  0.00  0.00    +0.000 C 
ATOM      6  C   UNL     1       4.744   7.078  17.427  0.00  0.00    +0.000 C 
ATOM      7  C   UNL     1       3.288   6.612  17.514  0.00  0.00    +0.000 C 
ENDROOT
BRANCH   7   8
ATOM      8  C   UNL     1       2.485   7.565  18.386  0.00  0.00    +0.000 A 
ATOM      9  C   UNL     1       2.297   7.276  19.750  0.00  0.00    +0.000 A 
ATOM     10  C   UNL     1       1.497   8.098  20.549  0.00  0.00    +0.000 A 
ATOM     11  C   UNL     1       0.879   9.217  19.993  0.00  0.00    +0.000 A 
ATOM     12 CL   UNL     1      -0.130  10.213  20.967  0.00  0.00    +0.000 Cl
ATOM     13  C   UNL     1       1.065   9.528  18.650  0.00  0.00    +0.000 A 
ATOM     14  C   UNL     1       1.858   8.704  17.850  0.00  0.00    +0.000 A 
ENDBRANCH   7   8
BRANCH   1  16
ATOM     15  C   UNL     1       1.212   2.247  18.875  0.00  0.00    +0.000 C 
ATOM     16  C   UNL     1       2.569   2.975  18.789  0.00  0.00    +0.000 C 
ATOM     17  C   UNL     1       3.056   3.278  20.215  0.00  0.00    +0.000 C 
ATOM     18  C   UNL     1       3.546   2.002  18.104  0.00  0.00    +0.000 C 
ENDBRANCH   1  16
BRANCH   5  19
ATOM     19  C   UNL     1       6.972   5.748  18.030  0.00  0.00    +0.000 C 
ATOM     20  C   UNL     1       7.625   7.036  17.493  0.00  0.00    +0.000 C 
ATOM     21  C   UNL     1       7.397   5.562  19.492  0.00  0.00    +0.000 C 
ATOM     22  C   UNL     1       7.445   4.565  17.183  0.00  0.00    +0.000 C 
ENDBRANCH   5  19
TORSDOF 3
ENDMDL
MODEL 4
REMARK VINA RESULT:      -8.5      0.136      1.659
REMARK  Name = 
REMARK  9 active torsions:
REMARK  status: ('A' for Active; 'I' for Inactive)
REMARK    1  A    between atoms: C_1  and  C_2
REMARK    2  A    between atoms: C_2  and  C_3
REMARK    3  A    between atoms: C_2  and  C_4
REMARK    4  A    between atoms: C_2  and  C_5
REMARK    5  A    between atoms: C_9  and  C_10
REMARK    6  A    between atoms: C_10  and  C_11
REMARK    7  A    between atoms: C_10  and  C_12
REMARK    8  A    between atoms: C_10  and  C_13
REMARK    9  A    between atoms: C_15  and  C_16
REMARK                            x       y       z     vdW  Elec       q    Type
REMARK                         _______ _______ _______ _____ _____    ______ ____
ROOT
ATOM      1  C   UNL     1       2.366   4.349  18.060  0.00  0.00    +0.000 C 
ATOM      2  O   UNL     1       1.274   4.633  17.555  0.00  0.00    +0.000 OA
ATOM      3  N   UNL     1       3.403   5.270  18.065  0.00  0.00    +0.000 N 
ATOM      4  N   UNL     1       4.685   4.911  18.338  0.00  0.00    +0.000 NA
ATOM      5  C   UNL     1       5.461   5.878  17.967  0.00  0.00    +0.000 C 
ATOM      6  C   UNL     1       4.754   7.093  17.435  0.00  0.00    +0.000 C 
ATOM      7  C   UNL     1       3.298   6.626  17.518  0.00  0.00    +0.000 C 
ENDROOT
BRANCH   7   8
ATOM      8  C   UNL     1       2.491   7.584  18.380  0.00  0.00    +0.000 A 
ATOM      9  C   UNL     1       2.293   7.301  19.744  0.00  0.00    +0.000 A 
ATOM     10  C   UNL     1       1.488   8.127  20.534  0.00  0.00    +0.000 A 
ATOM     11  C   UNL     1       0.875   9.245  19.969  0.00  0.00    +0.000 A 
ATOM     12 CL   UNL     1      -0.140  10.245  20.931  0.00  0.00    +0.000 Cl
ATOM     13  C   UNL     1       1.070   9.548  18.626  0.00  0.00    +0.000 A 
ATOM     14  C   UNL     1       1.867   8.720  17.835  0.00  0.00    +0.000 A 
ENDBRANCH   7   8
BRANCH   1  16
ATOM     15  C   UNL     1       3.478   2.092  17.947  0.00  0.00    +0.000 C 
ATOM     16  C   UNL     1       2.576   2.996  18.812  0.00  0.00    +0.000 C 
ATOM     17  C   UNL     1       1.207   2.318  18.972  0.00  0.00    +0.000 C 
ATOM     18  C   UNL     1       3.261   3.111  20.186  0.00  0.00    +0.000 C 
ENDBRANCH   1  16
BRANCH   5  19
ATOM     19  C   UNL     1       6.980   5.768  18.057  0.00  0.00    +0.000 C 
ATOM     20  C   UNL     1       7.471   4.559  17.237  0.00  0.00    +0.000 C 
ATOM     21  C   UNL     1       7.624   7.036  17.482  0.00  0.00    +0.000 C 
ATOM     22  C   UNL     1       7.395   5.575  19.517  0.00  0.00    +0.000 C 
ENDBRANCH   5  19
TORSDOF 3
ENDMDL
MODEL 5
REMARK VINA RESULT:      -8.4      0.081      1.316
REMARK  Name = 
REMARK  9 active torsions:
REMARK  status: ('A' for Active; 'I' for Inactive)
REMARK    1  A    between atoms: C_1  and  C_2
REMARK    2  A    between atoms: C_2  and  C_3
REMARK    3  A    between atoms: C_2  and  C_4
REMARK    4  A    between atoms: C_2  and  C_5
REMARK    5  A    between atoms: C_9  and  C_10
REMARK    6  A    between atoms: C_10  and  C_11
REMARK    7  A    between atoms: C_10  and  C_12
REMARK    8  A    between atoms: C_10  and  C_13
REMARK    9  A    between atoms: C_15  and  C_16
REMARK                            x       y       z     vdW  Elec       q    Type
REMARK                         _______ _______ _______ _____ _____    ______ ____
ROOT
ATOM      1  C   UNL     1       2.385   4.234  18.011  0.00  0.00    +0.000 C 
ATOM      2  O   UNL     1       1.288   4.494  17.502  0.00  0.00    +0.000 OA
ATOM      3  N   UNL     1       3.398   5.182  18.028  0.00  0.00    +0.000 N 
ATOM      4  N   UNL     1       4.688   4.854  18.305  0.00  0.00    +0.000 NA
ATOM      5  C   UNL     1       5.440   5.843  17.946  0.00  0.00    +0.000 C 
ATOM      6  C   UNL     1       4.705   7.043  17.419  0.00  0.00    +0.000 C 
ATOM      7  C   UNL     1       3.261   6.539  17.491  0.00  0.00    +0.000 C 
ENDROOT
BRANCH   7   8
ATOM      8  C   UNL     1       2.424   7.469  18.356  0.00  0.00    +0.000 A 
ATOM      9  C   UNL     1       1.871   8.636  17.799  0.00  0.00    +0.000 A 
ATOM     10  C   UNL     1       1.167   9.542  18.597  0.00  0.00    +0.000 A 
ATOM     11  C   UNL     1       1.006   9.289  19.958  0.00  0.00    +0.000 A 
ATOM     12 CL   UNL     1       0.165  10.417  20.947  0.00  0.00    +0.000 Cl
ATOM     13  C   UNL     1       1.533   8.133  20.525  0.00  0.00    +0.000 A 
ATOM     14  C   UNL     1       2.243   7.232  19.730  0.00  0.00    +0.000 A 
ENDBRANCH   7   8
BRANCH   1  16
ATOM     15  C   UNL     1       3.326   3.179  20.095  0.00  0.00    +0.000 C 
ATOM     16  C   UNL     1       2.626   2.882  18.753  0.00  0.00    +0.000 C 
ATOM     17  C   UNL     1       3.562   2.021  17.890  0.00  0.00    +0.000 C 
ATOM     18  C   UNL     1       1.354   2.084  19.089  0.00  0.00    +0.000 C 
ENDBRANCH   1  16
BRANCH   5  19
ATOM     19  C   UNL     1       6.961   5.772  18.043  0.00  0.00    +0.000 C 
ATOM     20  C   UNL     1       7.388   5.596  19.513  0.00  0.00    +0.000 C 
ATOM     21  C   UNL     1       7.472   4.568  17.242  0.00  0.00    +0.000 C 
ATOM     22  C   UNL     1       7.571   7.068  17.504  0.00  0.00    +0.000 C 
ENDBRANCH   5  19
TORSDOF 3
ENDMDL
MODEL 6
REMARK VINA RESULT:      -8.3      0.140      1.669
REMARK  Name = 
REMARK  9 active torsions:
REMARK  status: ('A' for Active; 'I' for Inactive)
REMARK    1  A    between atoms: C_1  and  C_2
REMARK    2  A    between atoms: C_2  and  C_3
REMARK    3  A    between atoms: C_2  and  C_4
REMARK    4  A    between atoms: C_2  and  C_5
REMARK    5  A    between atoms: C_9  and  C_10
REMARK    6  A    between atoms: C_10  and  C_11
REMARK    7  A    between atoms: C_10  and  C_12
REMARK    8  A    between atoms: C_10  and  C_13
REMARK    9  A    between atoms: C_15  and  C_16
REMARK                            x       y       z     vdW  Elec       q    Type
REMARK                         _______ _______ _______ _____ _____    ______ ____
ROOT
ATOM      1  C   UNL     1       2.372   4.358  18.032  0.00  0.00    +0.000 C 
ATOM      2  O   UNL     1       1.279   4.646  17.531  0.00  0.00    +0.000 OA
ATOM      3  N   UNL     1       3.409   5.279  18.041  0.00  0.00    +0.000 N 
ATOM      4  N   UNL     1       4.692   4.918  18.309  0.00  0.00    +0.000 NA
ATOM      5  C   UNL     1       5.467   5.888  17.943  0.00  0.00    +0.000 C 
ATOM      6  C   UNL     1       4.759   7.106  17.420  0.00  0.00    +0.000 C 
ATOM      7  C   UNL     1       3.303   6.639  17.503  0.00  0.00    +0.000 C 
ENDROOT
BRANCH   7   8
ATOM      8  C   UNL     1       2.497   7.591  18.373  0.00  0.00    +0.000 A 
ATOM      9  C   UNL     1       2.298   7.296  19.735  0.00  0.00    +0.000 A 
ATOM     10  C   UNL     1       1.495   8.117  20.531  0.00  0.00    +0.000 A 
ATOM     11  C   UNL     1       0.885   9.241  19.976  0.00  0.00    +0.000 A 
ATOM     12 CL   UNL     1      -0.128  10.236  20.947  0.00  0.00    +0.000 Cl
ATOM     13  C   UNL     1       1.081   9.557  18.636  0.00  0.00    +0.000 A 
ATOM     14  C   UNL     1       1.877   8.733  17.838  0.00  0.00    +0.000 A 
ENDBRANCH   7   8
BRANCH   1  16
ATOM     15  C   UNL     1       3.215   3.289  20.151  0.00  0.00    +0.000 C 
ATOM     16  C   UNL     1       2.584   3.001  18.774  0.00  0.00    +0.000 C 
ATOM     17  C   UNL     1       3.565   2.151  17.951  0.00  0.00    +0.000 C 
ATOM     18  C   UNL     1       1.300   2.194  19.041  0.00  0.00    +0.000 C 
ENDBRANCH   1  16
BRANCH   5  19
ATOM     19  C   UNL     1       6.986   5.777  18.029  0.00  0.00    +0.000 C 
ATOM     20  C   UNL     1       7.419   5.595  19.497  0.00  0.00    +0.000 C 
ATOM     21  C   UNL     1       7.460   4.558  17.228  0.00  0.00    +0.000 C 
ATOM     22  C   UNL     1       7.625   7.055  17.482  0.00  0.00    +0.000 C 
ENDBRANCH   5  19
TORSDOF 3
ENDMDL
MODEL 7
REMARK VINA RESULT:      -7.0      1.722      4.303
REMARK  Name = 
REMARK  9 active torsions:
REMARK  status: ('A' for Active; 'I' for Inactive)
REMARK    1  A    between atoms: C_1  and  C_2
REMARK    2  A    between atoms: C_2  and  C_3
REMARK    3  A    between atoms: C_2  and  C_4
REMARK    4  A    between atoms: C_2  and  C_5
REMARK    5  A    between atoms: C_9  and  C_10
REMARK    6  A    between atoms: C_10  and  C_11
REMARK    7  A    between atoms: C_10  and  C_12
REMARK    8  A    between atoms: C_10  and  C_13
REMARK    9  A    between atoms: C_15  and  C_16
REMARK                            x       y       z     vdW  Elec       q    Type
REMARK                         _______ _______ _______ _____ _____    ______ ____
ROOT
ATOM      1  C   UNL     1       4.959   5.998  17.831  0.00  0.00    +0.000 C 
ATOM      2  O   UNL     1       5.521   7.043  18.180  0.00  0.00    +0.000 OA
ATOM      3  N   UNL     1       3.864   5.517  18.535  0.00  0.00    +0.000 N 
ATOM      4  N   UNL     1       3.404   4.248  18.374  0.00  0.00    +0.000 NA
ATOM      5  C   UNL     1       2.605   3.983  19.357  0.00  0.00    +0.000 C 
ATOM      6  C   UNL     1       2.367   5.121  20.309  0.00  0.00    +0.000 C 
ATOM      7  C   UNL     1       3.275   6.191  19.697  0.00  0.00    +0.000 C 
ENDROOT
BRANCH   7   8
ATOM      8  C   UNL     1       2.465   7.430  19.351  0.00  0.00    +0.000 A 
ATOM      9  C   UNL     1       1.757   8.109  20.361  0.00  0.00    +0.000 A 
ATOM     10  C   UNL     1       0.944   9.202  20.050  0.00  0.00    +0.000 A 
ATOM     11  C   UNL     1       0.832   9.630  18.728  0.00  0.00    +0.000 A 
ATOM     12 CL   UNL     1      -0.192  10.956  18.339  0.00  0.00    +0.000 Cl
ATOM     13  C   UNL     1       1.534   8.981  17.718  0.00  0.00    +0.000 A 
ATOM     14  C   UNL     1       2.341   7.885  18.027  0.00  0.00    +0.000 A 
ENDBRANCH   7   8
BRANCH   1  16
ATOM     15  C   UNL     1       6.862   4.837  16.660  0.00  0.00    +0.000 C 
ATOM     16  C   UNL     1       5.383   5.253  16.527  0.00  0.00    +0.000 C 
ATOM     17  C   UNL     1       5.251   6.232  15.349  0.00  0.00    +0.000 C 
ATOM     18  C   UNL     1       4.593   3.967  16.221  0.00  0.00    +0.000 C 
ENDBRANCH   1  16
BRANCH   5  19
ATOM     19  C   UNL     1       1.973   2.605  19.528  0.00  0.00    +0.000 C 
ATOM     20  C   UNL     1       0.635   2.541  18.765  0.00  0.00    +0.000 C 
ATOM     21  C   UNL     1       2.909   1.534  18.954  0.00  0.00    +0.000 C 
ATOM     22  C   UNL     1       1.708   2.343  21.011  0.00  0.00    +0.000 C 
ENDBRANCH   5  19
TORSDOF 3
ENDMDL
MODEL 8
REMARK VINA RESULT:      -6.9      1.697      4.207
REMARK  Name = 
REMARK  9 active torsions:
REMARK  status: ('A' for Active; 'I' for Inactive)
REMARK    1  A    between atoms: C_1  and  C_2
REMARK    2  A    between atoms: C_2  and  C_3
REMARK    3  A    between atoms: C_2  and  C_4
REMARK    4  A    between atoms: C_2  and  C_5
REMARK    5  A    between atoms: C_9  and  C_10
REMARK    6  A    between atoms: C_10  and  C_11
REMARK    7  A    between atoms: C_10  and  C_12
REMARK    8  A    between atoms: C_10  and  C_13
REMARK    9  A    between atoms: C_15  and  C_16
REMARK                            x       y       z     vdW  Elec       q    Type
REMARK                         _______ _______ _______ _____ _____    ______ ____
ROOT
ATOM      1  C   UNL     1       4.969   6.030  17.815  0.00  0.00    +0.000 C 
ATOM      2  O   UNL     1       5.496   7.091  18.170  0.00  0.00    +0.000 OA
ATOM      3  N   UNL     1       3.897   5.503  18.521  0.00  0.00    +0.000 N 
ATOM      4  N   UNL     1       3.482   4.220  18.350  0.00  0.00    +0.000 NA
ATOM      5  C   UNL     1       2.699   3.917  19.335  0.00  0.00    +0.000 C 
ATOM      6  C   UNL     1       2.427   5.036  20.300  0.00  0.00    +0.000 C 
ATOM      7  C   UNL     1       3.292   6.144  19.693  0.00  0.00    +0.000 C 
ENDROOT
BRANCH   7   8
ATOM      8  C   UNL     1       2.435   7.357  19.364  0.00  0.00    +0.000 A 
ATOM      9  C   UNL     1       2.395   7.851  18.047  0.00  0.00    +0.000 A 
ATOM     10  C   UNL     1       1.677   9.010  17.742  0.00  0.00    +0.000 A 
ATOM     11  C   UNL     1       0.990   9.686  18.749  0.00  0.00    +0.000 A 
ATOM     12 CL   UNL     1       0.130  11.129  18.382  0.00  0.00    +0.000 Cl
ATOM     13  C   UNL     1       1.005   9.205  20.055  0.00  0.00    +0.000 A 
ATOM     14  C   UNL     1       1.728   8.052  20.361  0.00  0.00    +0.000 A 
ENDBRANCH   7   8
BRANCH   1  16
ATOM     15  C   UNL     1       6.912   4.972  16.611  0.00  0.00    +0.000 C 
ATOM     16  C   UNL     1       5.412   5.313  16.501  0.00  0.00    +0.000 C 
ATOM     17  C   UNL     1       5.213   6.289  15.331  0.00  0.00    +0.000 C 
ATOM     18  C   UNL     1       4.683   3.990  16.200  0.00  0.00    +0.000 C 
ENDBRANCH   1  16
BRANCH   5  19
ATOM     19  C   UNL     1       2.119   2.516  19.497  0.00  0.00    +0.000 C 
ATOM     20  C   UNL     1       0.757   2.423  18.779  0.00  0.00    +0.000 C 
ATOM     21  C   UNL     1       3.068   1.488  18.868  0.00  0.00    +0.000 C 
ATOM     22  C   UNL     1       1.914   2.213  20.983  0.00  0.00    +0.000 C 
ENDBRANCH   5  19
TORSDOF 3
ENDMDL
MODEL 9
REMARK VINA RESULT:      -6.5      1.732      4.169
REMARK  Name = 
REMARK  9 active torsions:
REMARK  status: ('A' for Active; 'I' for Inactive)
REMARK    1  A    between atoms: C_1  and  C_2
REMARK    2  A    between atoms: C_2  and  C_3
REMARK    3  A    between atoms: C_2  and  C_4
REMARK    4  A    between atoms: C_2  and  C_5
REMARK    5  A    between atoms: C_9  and  C_10
REMARK    6  A    between atoms: C_10  and  C_11
REMARK    7  A    between atoms: C_10  and  C_12
REMARK    8  A    between atoms: C_10  and  C_13
REMARK    9  A    between atoms: C_15  and  C_16
REMARK                            x       y       z     vdW  Elec       q    Type
REMARK                         _______ _______ _______ _____ _____    ______ ____
ROOT
ATOM      1  C   UNL     1       4.919   5.973  17.816  0.00  0.00    +0.000 C 
ATOM      2  O   UNL     1       5.464   7.031  18.149  0.00  0.00    +0.000 OA
ATOM      3  N   UNL     1       3.850   5.470  18.543  0.00  0.00    +0.000 N 
ATOM      4  N   UNL     1       3.416   4.190  18.395  0.00  0.00    +0.000 NA
ATOM      5  C   UNL     1       2.643   3.910  19.395  0.00  0.00    +0.000 C 
ATOM      6  C   UNL     1       2.397   5.046  20.347  0.00  0.00    +0.000 C 
ATOM      7  C   UNL     1       3.268   6.134  19.713  0.00  0.00    +0.000 C 
ENDROOT
BRANCH   7   8
ATOM      8  C   UNL     1       2.423   7.353  19.379  0.00  0.00    +0.000 A 
ATOM      9  C   UNL     1       2.409   7.858  18.066  0.00  0.00    +0.000 A 
ATOM     10  C   UNL     1       1.701   9.023  17.757  0.00  0.00    +0.000 A 
ATOM     11  C   UNL     1       0.998   9.693  18.757  0.00  0.00    +0.000 A 
ATOM     12 CL   UNL     1       0.151  11.144  18.386  0.00  0.00    +0.000 Cl
ATOM     13  C   UNL     1       0.988   9.202  20.058  0.00  0.00    +0.000 A 
ATOM     14  C   UNL     1       1.700   8.043  20.368  0.00  0.00    +0.000 A 
ENDBRANCH   7   8
BRANCH   1  16
ATOM     15  C   UNL     1       5.274   6.235  15.336  0.00  0.00    +0.000 C 
ATOM     16  C   UNL     1       5.334   5.232  16.506  0.00  0.00    +0.000 C 
ATOM     17  C   UNL     1       4.317   4.110  16.245  0.00  0.00    +0.000 C 
ATOM     18  C   UNL     1       6.759   4.647  16.509  0.00  0.00    +0.000 C 
ENDBRANCH   1  16
BRANCH   5  19
ATOM     19  C   UNL     1       2.046   2.519  19.583  0.00  0.00    +0.000 C 
ATOM     20  C   UNL     1       1.795   2.251  21.081  0.00  0.00    +0.000 C 
ATOM     21  C   UNL     1       0.706   2.428  18.844  0.00  0.00    +0.000 C 
ATOM     22  C   UNL     1       3.021   1.466  19.051  0.00  0.00    +0.000 C 
ENDBRANCH   5  19
TORSDOF 3
ENDMDL
