MODEL 1
REMARK VINA RESULT:      -7.0      0.000      0.000
REMARK  Name = 
REMARK  5 active torsions:
REMARK  status: ('A' for Active; 'I' for Inactive)
REMARK    1  A    between atoms: N_1  and  C_2
REMARK    2  A    between atoms: N_5  and  C_6
REMARK    3  A    between atoms: C_6  and  C_7
REMARK    4  A    between atoms: C_7  and  O_8
REMARK    5  A    between atoms: C_18  and  N_19
REMARK                            x       y       z     vdW  Elec       q    Type
REMARK                         _______ _______ _______ _____ _____    ______ ____
ROOT
ATOM      1  C   UNL     1       2.220   4.204  20.675  0.00  0.00    +0.000 A 
ATOM      2  N   UNL     1       1.754   5.445  20.843  0.00  0.00    +0.000 NA
ATOM      3  C   UNL     1       2.193   6.382  20.000  0.00  0.00    +0.000 A 
ATOM      4  N   UNL     1       1.891   7.715  20.209  0.00  0.00    +0.000 N 
ATOM      5  N   UNL     1       3.039   6.135  19.001  0.00  0.00    +0.000 NA
ATOM      6  C   UNL     1       3.600   4.909  18.857  0.00  0.00    +0.000 A 
ATOM      7  N   UNL     1       4.583   4.834  17.876  0.00  0.00    +0.000 N 
ATOM      8  C   UNL     1       5.382   6.054  17.689  0.00  0.00    +0.000 C 
ATOM      9  C   UNL     1       4.987   6.774  16.403  0.00  0.00    +0.000 C 
ATOM     10  C   UNL     1       5.604   6.166  15.147  0.00  0.00    +0.000 C 
ATOM     11  C   UNL     1       5.259   4.698  14.912  0.00  0.00    +0.000 C 
ATOM     12  C   UNL     1       5.850   3.770  15.965  0.00  0.00    +0.000 C 
ATOM     13  C   UNL     1       4.988   3.597  17.217  0.00  0.00    +0.000 C 
ATOM     14  C   UNL     1       3.162   3.907  19.704  0.00  0.00    +0.000 A 
ATOM     15  H   UNL     1       1.376   8.072  19.416  0.00  0.00    +0.000 HD
ENDROOT
BRANCH   1  16
ATOM     16  N   UNL     1       1.769   3.289  21.631  0.00  0.00    +0.000 N 
ATOM     17  H   UNL     1       2.348   2.454  21.587  0.00  0.00    +0.000 HD
ATOM     18  H   UNL     1       1.711   3.670  22.573  0.00  0.00    +0.000 HD
ENDBRANCH   1  16
BRANCH  14  19
ATOM     19  N   UNL     1       3.684   2.579  19.694  0.00  0.00    +0.000 N 
ATOM     20  O   UNL     1       3.023   1.725  19.074  0.00  0.00    +0.000 OA
ATOM     21  O   UNL     1       4.724   2.355  20.324  0.00  0.00    +0.000 OA
ENDBRANCH  14  19
BRANCH   4  22
ATOM     22  C   UNL     1       1.401   8.086  21.532  0.00  0.00    +0.000 C 
BRANCH  22  23
ATOM     23  C   UNL     1      -0.021   8.664  21.413  0.00  0.00    +0.000 C 
BRANCH  23  24
ATOM     24  O   UNL     1      -0.742   8.451  22.628  0.00  0.00    +0.000 OA
ATOM     25  H   UNL     1      -0.796   7.478  22.722  0.00  0.00    +0.000 HD
ENDBRANCH  23  24
ENDBRANCH  22  23
ENDBRANCH   4  22
TORSDOF 5
ENDMDL
MODEL 2
REMARK VINA RESULT:      -6.5      2.845      4.812
REMARK  Name = 
REMARK  5 active torsions:
REMARK  status: ('A' for Active; 'I' for Inactive)
REMARK    1  A    between atoms: N_1  and  C_2
REMARK    2  A    between atoms: N_5  and  C_6
REMARK    3  A    between atoms: C_6  and  C_7
REMARK    4  A    between atoms: C_7  and  O_8
REMARK    5  A    between atoms: C_18  and  N_19
REMARK                            x       y       z     vdW  Elec       q    Type
REMARK                         _______ _______ _______ _____ _____    ______ ____
ROOT
ATOM      1  C   UNL     1       4.588   6.843  17.079  0.00  0.00    +0.000 A 
ATOM      2  N   UNL     1       3.788   7.861  17.412  0.00  0.00    +0.000 NA
ATOM      3  C   UNL     1       2.805   7.608  18.278  0.00  0.00    +0.000 A 
ATOM      4  N   UNL     1       1.837   8.559  18.543  0.00  0.00    +0.000 N 
ATOM      5  N   UNL     1       2.604   6.414  18.836  0.00  0.00    +0.000 NA
ATOM      6  C   UNL     1       3.339   5.340  18.454  0.00  0.00    +0.000 A 
ATOM      7  N   UNL     1       2.920   4.130  18.995  0.00  0.00    +0.000 N 
ATOM      8  C   UNL     1       1.473   4.009  19.223  0.00  0.00    +0.000 C 
ATOM      9  C   UNL     1       1.143   4.112  20.710  0.00  0.00    +0.000 C 
ATOM     10  C   UNL     1       1.383   2.817  21.480  0.00  0.00    +0.000 C 
ATOM     11  C   UNL     1       2.814   2.291  21.417  0.00  0.00    +0.000 C 
ATOM     12  C   UNL     1       3.224   1.841  20.022  0.00  0.00    +0.000 C 
ATOM     13  C   UNL     1       3.774   2.955  19.128  0.00  0.00    +0.000 C 
ATOM     14  C   UNL     1       4.377   5.564  17.567  0.00  0.00    +0.000 A 
ATOM     15  H   UNL     1       1.854   8.791  19.527  0.00  0.00    +0.000 HD
ENDROOT
BRANCH   1  16
ATOM     16  N   UNL     1       5.553   7.164  16.121  0.00  0.00    +0.000 N 
ATOM     17  H   UNL     1       5.358   8.093  15.755  0.00  0.00    +0.000 HD
ATOM     18  H   UNL     1       6.511   7.072  16.450  0.00  0.00    +0.000 HD
ENDBRANCH   1  16
BRANCH  14  19
ATOM     19  N   UNL     1       5.211   4.529  17.049  0.00  0.00    +0.000 N 
ATOM     20  O   UNL     1       6.310   4.366  17.612  0.00  0.00    +0.000 OA
ATOM     21  O   UNL     1       4.814   3.894  16.066  0.00  0.00    +0.000 OA
ENDBRANCH  14  19
BRANCH   4  22
ATOM     22  C   UNL     1       1.726   9.672  17.607  0.00  0.00    +0.000 C 
BRANCH  22  23
ATOM     23  C   UNL     1       1.872  11.003  18.367  0.00  0.00    +0.000 C 
BRANCH  23  24
ATOM     24  O   UNL     1       2.532  11.969  17.545  0.00  0.00    +0.000 OA
ATOM     25  H   UNL     1       1.839  12.299  16.938  0.00  0.00    +0.000 HD
ENDBRANCH  23  24
ENDBRANCH  22  23
ENDBRANCH   4  22
TORSDOF 5
ENDMDL
MODEL 3
REMARK VINA RESULT:      -6.5      2.227      5.701
REMARK  Name = 
REMARK  5 active torsions:
REMARK  status: ('A' for Active; 'I' for Inactive)
REMARK    1  A    between atoms: N_1  and  C_2
REMARK    2  A    between atoms: N_5  and  C_6
REMARK    3  A    between atoms: C_6  and  C_7
REMARK    4  A    between atoms: C_7  and  O_8
REMARK    5  A    between atoms: C_18  and  N_19
REMARK                            x       y       z     vdW  Elec       q    Type
REMARK                         _______ _______ _______ _____ _____    ______ ____
ROOT
ATOM      1  C   UNL     1       4.703   3.157  19.643  0.00  0.00    +0.000 A 
ATOM      2  N   UNL     1       5.630   3.635  18.807  0.00  0.00    +0.000 NA
ATOM      3  C   UNL     1       5.449   4.870  18.335  0.00  0.00    +0.000 A 
ATOM      4  N   UNL     1       6.270   5.372  17.341  0.00  0.00    +0.000 N 
ATOM      5  N   UNL     1       4.419   5.644  18.673  0.00  0.00    +0.000 NA
ATOM      6  C   UNL     1       3.415   5.160  19.446  0.00  0.00    +0.000 A 
ATOM      7  N   UNL     1       2.330   6.017  19.588  0.00  0.00    +0.000 N 
ATOM      8  C   UNL     1       2.040   6.867  18.424  0.00  0.00    +0.000 C 
ATOM      9  C   UNL     1       2.460   8.310  18.684  0.00  0.00    +0.000 C 
ATOM     10  C   UNL     1       1.456   9.098  19.521  0.00  0.00    +0.000 C 
ATOM     11  C   UNL     1       1.167   8.506  20.897  0.00  0.00    +0.000 C 
ATOM     12  C   UNL     1       0.451   7.164  20.831  0.00  0.00    +0.000 C 
ATOM     13  C   UNL     1       1.378   5.954  20.692  0.00  0.00    +0.000 C 
ATOM     14  C   UNL     1       3.571   3.887  19.965  0.00  0.00    +0.000 A 
ATOM     15  H   UNL     1       6.741   6.199  17.680  0.00  0.00    +0.000 HD
ENDROOT
BRANCH   1  16
ATOM     16  N   UNL     1       4.922   1.837  20.045  0.00  0.00    +0.000 N 
ATOM     17  H   UNL     1       5.796   1.510  19.640  0.00  0.00    +0.000 HD
ATOM     18  H   UNL     1       4.888   1.700  21.053  0.00  0.00    +0.000 HD
ENDBRANCH   1  16
BRANCH  14  19
ATOM     19  N   UNL     1       2.586   3.233  20.764  0.00  0.00    +0.000 N 
ATOM     20  O   UNL     1       2.750   3.279  21.998  0.00  0.00    +0.000 OA
ATOM     21  O   UNL     1       1.667   2.639  20.190  0.00  0.00    +0.000 OA
ENDBRANCH  14  19
BRANCH   4  22
ATOM     22  C   UNL     1       7.079   4.411  16.599  0.00  0.00    +0.000 C 
BRANCH  22  23
ATOM     23  C   UNL     1       6.784   4.541  15.094  0.00  0.00    +0.000 C 
BRANCH  23  24
ATOM     24  O   UNL     1       7.699   5.457  14.490  0.00  0.00    +0.000 OA
ATOM     25  H   UNL     1       7.490   6.325  14.892  0.00  0.00    +0.000 HD
ENDBRANCH  23  24
ENDBRANCH  22  23
ENDBRANCH   4  22
TORSDOF 5
ENDMDL
MODEL 4
REMARK VINA RESULT:      -6.4      3.427      6.995
REMARK  Name = 
REMARK  5 active torsions:
REMARK  status: ('A' for Active; 'I' for Inactive)
REMARK    1  A    between atoms: N_1  and  C_2
REMARK    2  A    between atoms: N_5  and  C_6
REMARK    3  A    between atoms: C_6  and  C_7
REMARK    4  A    between atoms: C_7  and  O_8
REMARK    5  A    between atoms: C_18  and  N_19
REMARK                            x       y       z     vdW  Elec       q    Type
REMARK                         _______ _______ _______ _____ _____    ______ ____
ROOT
ATOM      1  C   UNL     1       6.657   5.535  16.705  0.00  0.00    +0.000 A 
ATOM      2  N   UNL     1       6.417   5.163  15.444  0.00  0.00    +0.000 NA
ATOM      3  C   UNL     1       5.397   4.330  15.235  0.00  0.00    +0.000 A 
ATOM      4  N   UNL     1       5.188   3.769  13.989  0.00  0.00    +0.000 N 
ATOM      5  N   UNL     1       4.603   3.881  16.207  0.00  0.00    +0.000 NA
ATOM      6  C   UNL     1       4.871   4.165  17.506  0.00  0.00    +0.000 A 
ATOM      7  N   UNL     1       4.062   3.503  18.422  0.00  0.00    +0.000 N 
ATOM      8  C   UNL     1       3.624   2.158  18.021  0.00  0.00    +0.000 C 
ATOM      9  C   UNL     1       2.153   2.160  17.616  0.00  0.00    +0.000 C 
ATOM     10  C   UNL     1       1.192   2.130  18.801  0.00  0.00    +0.000 C 
ATOM     11  C   UNL     1       1.345   3.292  19.778  0.00  0.00    +0.000 C 
ATOM     12  C   UNL     1       2.674   3.275  20.522  0.00  0.00    +0.000 C 
ATOM     13  C   UNL     1       3.825   3.964  19.786  0.00  0.00    +0.000 C 
ATOM     14  C   UNL     1       5.914   5.036  17.762  0.00  0.00    +0.000 A 
ATOM     15  H   UNL     1       4.276   4.039  13.646  0.00  0.00    +0.000 HD
ENDROOT
BRANCH   1  16
ATOM     16  N   UNL     1       7.779   6.356  16.856  0.00  0.00    +0.000 N 
ATOM     17  H   UNL     1       8.612   5.773  16.874  0.00  0.00    +0.000 HD
ATOM     18  H   UNL     1       7.842   7.101  16.166  0.00  0.00    +0.000 HD
ENDBRANCH   1  16
BRANCH  14  19
ATOM     19  N   UNL     1       6.335   5.401  19.076  0.00  0.00    +0.000 N 
ATOM     20  O   UNL     1       5.578   6.157  19.714  0.00  0.00    +0.000 OA
ATOM     21  O   UNL     1       7.425   4.980  19.479  0.00  0.00    +0.000 OA
ENDBRANCH  14  19
BRANCH   4  22
ATOM     22  C   UNL     1       6.293   3.832  13.039  0.00  0.00    +0.000 C 
BRANCH  22  23
ATOM     23  C   UNL     1       5.987   2.929  11.830  0.00  0.00    +0.000 C 
BRANCH  23  24
ATOM     24  O   UNL     1       7.086   2.049  11.582  0.00  0.00    +0.000 OA
ATOM     25  H   UNL     1       7.803   2.372  12.165  0.00  0.00    +0.000 HD
ENDBRANCH  23  24
ENDBRANCH  22  23
ENDBRANCH   4  22
TORSDOF 5
ENDMDL
MODEL 5
REMARK VINA RESULT:      -6.0      3.451      5.206
REMARK  Name = 
REMARK  5 active torsions:
REMARK  status: ('A' for Active; 'I' for Inactive)
REMARK    1  A    between atoms: N_1  and  C_2
REMARK    2  A    between atoms: N_5  and  C_6
REMARK    3  A    between atoms: C_6  and  C_7
REMARK    4  A    between atoms: C_7  and  O_8
REMARK    5  A    between atoms: C_18  and  N_19
REMARK                            x       y       z     vdW  Elec       q    Type
REMARK                         _______ _______ _______ _____ _____    ______ ____
ROOT
ATOM      1  C   UNL     1       2.633   2.337  19.337  0.00  0.00    +0.000 A 
ATOM      2  N   UNL     1       3.415   1.780  20.266  0.00  0.00    +0.000 NA
ATOM      3  C   UNL     1       4.666   2.232  20.364  0.00  0.00    +0.000 A 
ATOM      4  N   UNL     1       5.584   1.597  21.181  0.00  0.00    +0.000 N 
ATOM      5  N   UNL     1       5.155   3.215  19.609  0.00  0.00    +0.000 NA
ATOM      6  C   UNL     1       4.420   3.740  18.597  0.00  0.00    +0.000 A 
ATOM      7  N   UNL     1       5.106   4.641  17.791  0.00  0.00    +0.000 N 
ATOM      8  C   UNL     1       6.539   4.365  17.614  0.00  0.00    +0.000 C 
ATOM      9  C   UNL     1       7.388   5.346  18.417  0.00  0.00    +0.000 C 
ATOM     10  C   UNL     1       7.556   6.704  17.741  0.00  0.00    +0.000 C 
ATOM     11  C   UNL     1       6.251   7.440  17.449  0.00  0.00    +0.000 C 
ATOM     12  C   UNL     1       5.390   6.738  16.408  0.00  0.00    +0.000 C 
ATOM     13  C   UNL     1       4.460   5.661  16.972  0.00  0.00    +0.000 C 
ATOM     14  C   UNL     1       3.112   3.306  18.471  0.00  0.00    +0.000 A 
ATOM     15  H   UNL     1       5.915   2.245  21.883  0.00  0.00    +0.000 HD
ENDROOT
BRANCH   1  16
ATOM     16  N   UNL     1       1.358   1.771  19.247  0.00  0.00    +0.000 N 
ATOM     17  H   UNL     1       0.903   2.115  18.405  0.00  0.00    +0.000 HD
ATOM     18  H   UNL     1       1.352   0.755  19.302  0.00  0.00    +0.000 HD
ENDBRANCH   1  16
BRANCH  14  19
ATOM     19  N   UNL     1       2.231   3.742  17.437  0.00  0.00    +0.000 N 
ATOM     20  O   UNL     1       2.342   3.173  16.334  0.00  0.00    +0.000 OA
ATOM     21  O   UNL     1       1.451   4.667  17.684  0.00  0.00    +0.000 OA
ENDBRANCH  14  19
BRANCH   4  22
ATOM     22  C   UNL     1       5.250   0.252  21.635  0.00  0.00    +0.000 C 
BRANCH  22  23
ATOM     23  C   UNL     1       6.506  -0.426  22.212  0.00  0.00    +0.000 C 
BRANCH  23  24
ATOM     24  O   UNL     1       6.132  -1.503  23.074  0.00  0.00    +0.000 OA
ATOM     25  H   UNL     1       5.157  -1.444  23.142  0.00  0.00    +0.000 HD
ENDBRANCH  23  24
ENDBRANCH  22  23
ENDBRANCH   4  22
TORSDOF 5
ENDMDL
MODEL 6
REMARK VINA RESULT:      -6.0      2.569      5.126
REMARK  Name = 
REMARK  5 active torsions:
REMARK  status: ('A' for Active; 'I' for Inactive)
REMARK    1  A    between atoms: N_1  and  C_2
REMARK    2  A    between atoms: N_5  and  C_6
REMARK    3  A    between atoms: C_6  and  C_7
REMARK    4  A    between atoms: C_7  and  O_8
REMARK    5  A    between atoms: C_18  and  N_19
REMARK                            x       y       z     vdW  Elec       q    Type
REMARK                         _______ _______ _______ _____ _____    ______ ____
ROOT
ATOM      1  C   UNL     1       2.767   2.806  21.288  0.00  0.00    +0.000 A 
ATOM      2  N   UNL     1       3.743   1.904  21.430  0.00  0.00    +0.000 NA
ATOM      3  C   UNL     1       4.778   1.985  20.592  0.00  0.00    +0.000 A 
ATOM      4  N   UNL     1       5.742   0.994  20.564  0.00  0.00    +0.000 N 
ATOM      5  N   UNL     1       4.894   2.925  19.654  0.00  0.00    +0.000 NA
ATOM      6  C   UNL     1       3.882   3.799  19.423  0.00  0.00    +0.000 A 
ATOM      7  N   UNL     1       4.067   4.618  18.315  0.00  0.00    +0.000 N 
ATOM      8  C   UNL     1       4.807   4.011  17.198  0.00  0.00    +0.000 C 
ATOM      9  C   UNL     1       6.223   4.573  17.112  0.00  0.00    +0.000 C 
ATOM     10  C   UNL     1       6.299   5.938  16.432  0.00  0.00    +0.000 C 
ATOM     11  C   UNL     1       5.468   7.031  17.100  0.00  0.00    +0.000 C 
ATOM     12  C   UNL     1       3.969   6.780  17.010  0.00  0.00    +0.000 C 
ATOM     13  C   UNL     1       3.402   5.902  18.128  0.00  0.00    +0.000 C 
ATOM     14  C   UNL     1       2.797   3.754  20.279  0.00  0.00    +0.000 A 
ATOM     15  H   UNL     1       6.643   1.395  20.789  0.00  0.00    +0.000 HD
ENDROOT
BRANCH   1  16
ATOM     16  N   UNL     1       1.686   2.620  22.155  0.00  0.00    +0.000 N 
ATOM     17  H   UNL     1       1.662   3.389  22.820  0.00  0.00    +0.000 HD
ATOM     18  H   UNL     1       0.795   2.489  21.683  0.00  0.00    +0.000 HD
ENDBRANCH   1  16
BRANCH  14  19
ATOM     19  N   UNL     1       1.646   4.585  20.140  0.00  0.00    +0.000 N 
ATOM     20  O   UNL     1       1.642   5.646  20.793  0.00  0.00    +0.000 OA
ATOM     21  O   UNL     1       0.722   4.190  19.420  0.00  0.00    +0.000 OA
ENDBRANCH  14  19
BRANCH   4  22
ATOM     22  C   UNL     1       5.410  -0.275  21.201  0.00  0.00    +0.000 C 
BRANCH  22  23
ATOM     23  C   UNL     1       6.391  -0.546  22.355  0.00  0.00    +0.000 C 
BRANCH  23  24
ATOM     24  O   UNL     1       6.981   0.679  22.798  0.00  0.00    +0.000 OA
ATOM     25  H   UNL     1       7.702   0.856  22.160  0.00  0.00    +0.000 HD
ENDBRANCH  23  24
ENDBRANCH  22  23
ENDBRANCH   4  22
TORSDOF 5
ENDMDL
MODEL 7
REMARK VINA RESULT:      -6.0      4.093      7.702
REMARK  Name = 
REMARK  5 active torsions:
REMARK  status: ('A' for Active; 'I' for Inactive)
REMARK    1  A    between atoms: N_1  and  C_2
REMARK    2  A    between atoms: N_5  and  C_6
REMARK    3  A    between atoms: C_6  and  C_7
REMARK    4  A    between atoms: C_7  and  O_8
REMARK    5  A    between atoms: C_18  and  N_19
REMARK                            x       y       z     vdW  Elec       q    Type
REMARK                         _______ _______ _______ _____ _____    ______ ____
ROOT
ATOM      1  C   UNL     1       7.093   5.014  14.198  0.00  0.00    +0.000 A 
ATOM      2  N   UNL     1       6.383   4.522  13.178  0.00  0.00    +0.000 NA
ATOM      3  C   UNL     1       5.186   4.005  13.458  0.00  0.00    +0.000 A 
ATOM      4  N   UNL     1       4.467   3.329  12.490  0.00  0.00    +0.000 N 
ATOM      5  N   UNL     1       4.663   3.980  14.683  0.00  0.00    +0.000 NA
ATOM      6  C   UNL     1       5.390   4.388  15.753  0.00  0.00    +0.000 A 
ATOM      7  N   UNL     1       4.786   4.159  16.984  0.00  0.00    +0.000 N 
ATOM      8  C   UNL     1       3.945   2.955  17.060  0.00  0.00    +0.000 C 
ATOM      9  C   UNL     1       2.464   3.323  17.066  0.00  0.00    +0.000 C 
ATOM     10  C   UNL     1       1.952   3.778  18.430  0.00  0.00    +0.000 C 
ATOM     11  C   UNL     1       2.674   4.991  19.012  0.00  0.00    +0.000 C 
ATOM     12  C   UNL     1       4.129   4.708  19.362  0.00  0.00    +0.000 C 
ATOM     13  C   UNL     1       5.111   4.891  18.203  0.00  0.00    +0.000 C 
ATOM     14  C   UNL     1       6.633   4.942  15.503  0.00  0.00    +0.000 A 
ATOM     15  H   UNL     1       3.582   3.795  12.341  0.00  0.00    +0.000 HD
ENDROOT
BRANCH   1  16
ATOM     16  N   UNL     1       8.361   5.480  13.842  0.00  0.00    +0.000 N 
ATOM     17  H   UNL     1       8.931   5.559  14.680  0.00  0.00    +0.000 HD
ATOM     18  H   UNL     1       8.816   4.929  13.116  0.00  0.00    +0.000 HD
ENDBRANCH   1  16
BRANCH  14  19
ATOM     19  N   UNL     1       7.523   5.382  16.527  0.00  0.00    +0.000 N 
ATOM     20  O   UNL     1       7.621   6.613  16.690  0.00  0.00    +0.000 OA
ATOM     21  O   UNL     1       8.160   4.529  17.154  0.00  0.00    +0.000 OA
ENDBRANCH  14  19
BRANCH   4  22
ATOM     22  C   UNL     1       5.193   2.902  11.299  0.00  0.00    +0.000 C 
BRANCH  22  23
ATOM     23  C   UNL     1       5.899   1.563  11.577  0.00  0.00    +0.000 C 
BRANCH  23  24
ATOM     24  O   UNL     1       7.315   1.719  11.456  0.00  0.00    +0.000 OA
ATOM     25  H   UNL     1       7.592   2.163  12.283  0.00  0.00    +0.000 HD
ENDBRANCH  23  24
ENDBRANCH  22  23
ENDBRANCH   4  22
TORSDOF 5
ENDMDL
MODEL 8
REMARK VINA RESULT:      -5.9      3.782      7.497
REMARK  Name = 
REMARK  5 active torsions:
REMARK  status: ('A' for Active; 'I' for Inactive)
REMARK    1  A    between atoms: N_1  and  C_2
REMARK    2  A    between atoms: N_5  and  C_6
REMARK    3  A    between atoms: C_6  and  C_7
REMARK    4  A    between atoms: C_7  and  O_8
REMARK    5  A    between atoms: C_18  and  N_19
REMARK                            x       y       z     vdW  Elec       q    Type
REMARK                         _______ _______ _______ _____ _____    ______ ____
ROOT
ATOM      1  C   UNL     1       7.167   5.219  15.094  0.00  0.00    +0.000 A 
ATOM      2  N   UNL     1       6.623   4.754  13.964  0.00  0.00    +0.000 NA
ATOM      3  C   UNL     1       5.434   4.156  14.059  0.00  0.00    +0.000 A 
ATOM      4  N   UNL     1       4.885   3.505  12.970  0.00  0.00    +0.000 N 
ATOM      5  N   UNL     1       4.764   4.026  15.204  0.00  0.00    +0.000 NA
ATOM      6  C   UNL     1       5.325   4.404  16.379  0.00  0.00    +0.000 A 
ATOM      7  N   UNL     1       4.587   4.066  17.508  0.00  0.00    +0.000 N 
ATOM      8  C   UNL     1       3.819   2.816  17.408  0.00  0.00    +0.000 C 
ATOM      9  C   UNL     1       2.329   3.103  17.243  0.00  0.00    +0.000 C 
ATOM     10  C   UNL     1       1.623   3.442  18.554  0.00  0.00    +0.000 C 
ATOM     11  C   UNL     1       2.191   4.653  19.290  0.00  0.00    +0.000 C 
ATOM     12  C   UNL     1       3.604   4.428  19.808  0.00  0.00    +0.000 C 
ATOM     13  C   UNL     1       4.711   4.737  18.797  0.00  0.00    +0.000 C 
ATOM     14  C   UNL     1       6.553   5.040  16.322  0.00  0.00    +0.000 A 
ATOM     15  H   UNL     1       3.998   3.931  12.735  0.00  0.00    +0.000 HD
ENDROOT
BRANCH   1  16
ATOM     16  N   UNL     1       8.439   5.774  14.930  0.00  0.00    +0.000 N 
ATOM     17  H   UNL     1       8.375   6.562  14.291  0.00  0.00    +0.000 HD
ATOM     18  H   UNL     1       8.899   6.020  15.803  0.00  0.00    +0.000 HD
ENDBRANCH   1  16
BRANCH  14  19
ATOM     19  N   UNL     1       7.279   5.462  17.475  0.00  0.00    +0.000 N 
ATOM     20  O   UNL     1       7.911   4.581  18.088  0.00  0.00    +0.000 OA
ATOM     21  O   UNL     1       7.206   6.649  17.811  0.00  0.00    +0.000 OA
ENDBRANCH  14  19
BRANCH   4  22
ATOM     22  C   UNL     1       5.779   3.193  11.861  0.00  0.00    +0.000 C 
BRANCH  22  23
ATOM     23  C   UNL     1       5.652   1.703  11.498  0.00  0.00    +0.000 C 
BRANCH  23  24
ATOM     24  O   UNL     1       6.937   1.164  11.175  0.00  0.00    +0.000 OA
ATOM     25  H   UNL     1       6.931   1.066  10.201  0.00  0.00    +0.000 HD
ENDBRANCH  23  24
ENDBRANCH  22  23
ENDBRANCH   4  22
TORSDOF 5
ENDMDL
MODEL 9
REMARK VINA RESULT:      -5.9      2.143      5.778
REMARK  Name = 
REMARK  5 active torsions:
REMARK  status: ('A' for Active; 'I' for Inactive)
REMARK    1  A    between atoms: N_1  and  C_2
REMARK    2  A    between atoms: N_5  and  C_6
REMARK    3  A    between atoms: C_6  and  C_7
REMARK    4  A    between atoms: C_7  and  O_8
REMARK    5  A    between atoms: C_18  and  N_19
REMARK                            x       y       z     vdW  Elec       q    Type
REMARK                         _______ _______ _______ _____ _____    ______ ____
ROOT
ATOM      1  C   UNL     1       4.061   2.775  18.200  0.00  0.00    +0.000 A 
ATOM      2  N   UNL     1       4.774   3.266  17.181  0.00  0.00    +0.000 NA
ATOM      3  C   UNL     1       4.630   4.562  16.902  0.00  0.00    +0.000 A 
ATOM      4  N   UNL     1       5.200   5.107  15.766  0.00  0.00    +0.000 N 
ATOM      5  N   UNL     1       3.841   5.382  17.597  0.00  0.00    +0.000 NA
ATOM      6  C   UNL     1       3.037   4.900  18.577  0.00  0.00    +0.000 A 
ATOM      7  N   UNL     1       2.152   5.832  19.109  0.00  0.00    +0.000 N 
ATOM      8  C   UNL     1       1.662   6.848  18.165  0.00  0.00    +0.000 C 
ATOM      9  C   UNL     1       2.319   8.199  18.429  0.00  0.00    +0.000 C 
ATOM     10  C   UNL     1       1.696   8.966  19.592  0.00  0.00    +0.000 C 
ATOM     11  C   UNL     1       1.725   8.232  20.930  0.00  0.00    +0.000 C 
ATOM     12  C   UNL     1       0.853   6.984  20.946  0.00  0.00    +0.000 C 
ATOM     13  C   UNL     1       1.543   5.719  20.429  0.00  0.00    +0.000 C 
ATOM     14  C   UNL     1       3.166   3.563  18.905  0.00  0.00    +0.000 A 
ATOM     15  H   UNL     1       5.849   5.835  16.032  0.00  0.00    +0.000 HD
ENDROOT
BRANCH   1  16
ATOM     16  N   UNL     1       4.212   1.399  18.393  0.00  0.00    +0.000 N 
ATOM     17  H   UNL     1       3.310   0.948  18.269  0.00  0.00    +0.000 HD
ATOM     18  H   UNL     1       4.938   0.977  17.818  0.00  0.00    +0.000 HD
ENDBRANCH   1  16
BRANCH  14  19
ATOM     19  N   UNL     1       2.365   2.909  19.888  0.00  0.00    +0.000 N 
ATOM     20  O   UNL     1       2.871   2.773  21.018  0.00  0.00    +0.000 OA
ATOM     21  O   UNL     1       1.252   2.491  19.552  0.00  0.00    +0.000 OA
ENDBRANCH  14  19
BRANCH   4  22
ATOM     22  C   UNL     1       5.642   4.176  14.734  0.00  0.00    +0.000 C 
BRANCH  22  23
ATOM     23  C   UNL     1       6.920   4.715  14.066  0.00  0.00    +0.000 C 
BRANCH  23  24
ATOM     24  O   UNL     1       7.664   5.508  14.994  0.00  0.00    +0.000 OA
ATOM     25  H   UNL     1       7.780   4.934  15.779  0.00  0.00    +0.000 HD
ENDBRANCH  23  24
ENDBRANCH  22  23
ENDBRANCH   4  22
TORSDOF 5
ENDMDL
