MODEL 1
REMARK VINA RESULT:      -6.4      0.000      0.000
REMARK  Name = 
REMARK  17 active torsions:
REMARK  status: ('A' for Active; 'I' for Inactive)
REMARK    1  A    between atoms: C_1  and  C_2
REMARK    2  A    between atoms: C_2  and  C_3
REMARK    3  A    between atoms: C_3  and  C_4
REMARK    4  A    between atoms: C_4  and  C_5
REMARK    5  A    between atoms: C_5  and  C_6
REMARK    6  A    between atoms: C_6  and  C_7
REMARK    7  A    between atoms: C_7  and  C_8
REMARK    8  A    between atoms: C_8  and  C_9
REMARK    9  A    between atoms: C_9  and  C_10
REMARK   10  A    between atoms: C_10  and  C_11
REMARK   11  A    between atoms: C_11  and  C_12
REMARK   12  A    between atoms: C_12  and  C_13
REMARK   13  A    between atoms: C_13  and  C_14
REMARK   14  A    between atoms: C_14  and  O_15
REMARK   15  A    between atoms: O_15  and  C_16
REMARK   16  A    between atoms: C_19  and  C_20
REMARK   17  A    between atoms: C_20  and  C_21
REMARK                            x       y       z     vdW  Elec       q    Type
REMARK                         _______ _______ _______ _____ _____    ______ ____
ROOT
ATOM      1  C   UNL     1       5.007   7.098  17.598  0.00  0.00    +0.000 C 
ENDROOT
BRANCH   1   2
ATOM      2  C   UNL     1       4.621   5.719  18.133  0.00  0.00    +0.000 C 
BRANCH   2   3
ATOM      3  C   UNL     1       3.381   5.176  17.440  0.00  0.00    +0.000 C 
BRANCH   3   4
ATOM      4  C   UNL     1       3.506   3.669  17.253  0.00  0.00    +0.000 C 
BRANCH   4   5
ATOM      5  C   UNL     1       4.222   3.041  18.438  0.00  0.00    +0.000 C 
BRANCH   5   6
ATOM      6  C   UNL     1       3.284   2.121  19.210  0.00  0.00    +0.000 C 
BRANCH   6   7
ATOM      7  C   UNL     1       2.055   1.792  18.373  0.00  0.00    +0.000 C 
BRANCH   7   8
ATOM      8  C   UNL     1       0.794   2.348  19.023  0.00  0.00    +0.000 C 
BRANCH   8   9
ATOM      9  C   UNL     1       1.111   2.958  20.384  0.00  0.00    +0.000 C 
BRANCH   9  10
ATOM     10  C   UNL     1       0.838   4.460  20.378  0.00  0.00    +0.000 C 
BRANCH  10  12
ATOM     11  C   UNL     1       1.850   6.743  20.622  0.00  0.00    +0.000 C 
ATOM     12  C   UNL     1       2.098   5.248  20.724  0.00  0.00    +0.000 C 
ENDBRANCH  10  12
ENDBRANCH   9  10
ENDBRANCH   8   9
ENDBRANCH   7   8
ENDBRANCH   6   7
ENDBRANCH   5   6
ENDBRANCH   4   5
ENDBRANCH   3   4
ENDBRANCH   2   3
ENDBRANCH   1   2
BRANCH   1  13
ATOM     13  C   UNL     1       6.482   7.178  17.207  0.00  0.00    +0.000 C 
BRANCH  13  14
ATOM     14  C   UNL     1       7.039   5.821  16.791  0.00  0.00    +0.000 C 
BRANCH  14  15
ATOM     15  O   UNL     1       7.682   5.947  15.525  0.00  0.00    +0.000 OA
BRANCH  15  16
ATOM     16  C   UNL     1       7.137   5.184  14.531  0.00  0.00    +0.000 A 
ATOM     17  C   UNL     1       5.899   4.620  14.832  0.00  0.00    +0.000 A 
ATOM     18  C   UNL     1       5.238   3.810  13.907  0.00  0.00    +0.000 A 
ATOM     19  C   UNL     1       5.808   3.564  12.655  0.00  0.00    +0.000 A 
ATOM     20  C   UNL     1       7.041   4.155  12.346  0.00  0.00    +0.000 A 
ATOM     21  C   UNL     1       7.700   4.962  13.278  0.00  0.00    +0.000 A 
BRANCH  19  22
ATOM     22  C   UNL     1       5.175   2.700  11.611  0.00  0.00    +0.000 C 
ATOM     23  C   UNL     1       3.844   3.065  11.005  0.00  0.00    +0.000 C 
ATOM     24  O   UNL     1       5.755   1.679  11.242  0.00  0.00    +0.000 OA
ENDBRANCH  19  22
ENDBRANCH  15  16
ENDBRANCH  14  15
ENDBRANCH  13  14
ENDBRANCH   1  13
TORSDOF 15
ENDMDL
MODEL 2
REMARK VINA RESULT:      -6.0      0.840      1.324
REMARK  Name = 
REMARK  17 active torsions:
REMARK  status: ('A' for Active; 'I' for Inactive)
REMARK    1  A    between atoms: C_1  and  C_2
REMARK    2  A    between atoms: C_2  and  C_3
REMARK    3  A    between atoms: C_3  and  C_4
REMARK    4  A    between atoms: C_4  and  C_5
REMARK    5  A    between atoms: C_5  and  C_6
REMARK    6  A    between atoms: C_6  and  C_7
REMARK    7  A    between atoms: C_7  and  C_8
REMARK    8  A    between atoms: C_8  and  C_9
REMARK    9  A    between atoms: C_9  and  C_10
REMARK   10  A    between atoms: C_10  and  C_11
REMARK   11  A    between atoms: C_11  and  C_12
REMARK   12  A    between atoms: C_12  and  C_13
REMARK   13  A    between atoms: C_13  and  C_14
REMARK   14  A    between atoms: C_14  and  O_15
REMARK   15  A    between atoms: O_15  and  C_16
REMARK   16  A    between atoms: C_19  and  C_20
REMARK   17  A    between atoms: C_20  and  C_21
REMARK                            x       y       z     vdW  Elec       q    Type
REMARK                         _______ _______ _______ _____ _____    ______ ____
ROOT
ATOM      1  C   UNL     1       6.100   7.101  17.598  0.00  0.00    +0.000 C 
ENDROOT
BRANCH   1   2
ATOM      2  C   UNL     1       4.823   6.571  18.250  0.00  0.00    +0.000 C 
BRANCH   2   3
ATOM      3  C   UNL     1       5.099   5.347  19.110  0.00  0.00    +0.000 C 
BRANCH   3   4
ATOM      4  C   UNL     1       4.398   4.128  18.523  0.00  0.00    +0.000 C 
BRANCH   4   5
ATOM      5  C   UNL     1       3.429   4.546  17.427  0.00  0.00    +0.000 C 
BRANCH   5   6
ATOM      6  C   UNL     1       2.417   3.441  17.151  0.00  0.00    +0.000 C 
BRANCH   6   7
ATOM      7  C   UNL     1       1.168   3.641  17.999  0.00  0.00    +0.000 C 
BRANCH   7   8
ATOM      8  C   UNL     1       0.803   2.357  18.736  0.00  0.00    +0.000 C 
BRANCH   8   9
ATOM      9  C   UNL     1       1.828   2.048  19.823  0.00  0.00    +0.000 C 
BRANCH   9  10
ATOM     10  C   UNL     1       1.337   2.540  21.182  0.00  0.00    +0.000 C 
BRANCH  10  12
ATOM     11  C   UNL     1       2.127   4.909  20.942  0.00  0.00    +0.000 C 
ATOM     12  C   UNL     1       2.257   3.622  21.738  0.00  0.00    +0.000 C 
ENDBRANCH  10  12
ENDBRANCH   9  10
ENDBRANCH   8   9
ENDBRANCH   7   8
ENDBRANCH   6   7
ENDBRANCH   5   6
ENDBRANCH   4   5
ENDBRANCH   3   4
ENDBRANCH   2   3
ENDBRANCH   1   2
BRANCH   1  13
ATOM     13  C   UNL     1       7.310   6.210  17.881  0.00  0.00    +0.000 C 
BRANCH  13  14
ATOM     14  C   UNL     1       7.534   5.180  16.780  0.00  0.00    +0.000 C 
BRANCH  14  15
ATOM     15  O   UNL     1       7.508   5.835  15.514  0.00  0.00    +0.000 OA
BRANCH  15  16
ATOM     16  C   UNL     1       6.988   5.087  14.495  0.00  0.00    +0.000 A 
ATOM     17  C   UNL     1       5.849   4.355  14.824  0.00  0.00    +0.000 A 
ATOM     18  C   UNL     1       5.224   3.540  13.878  0.00  0.00    +0.000 A 
ATOM     19  C   UNL     1       5.731   3.458  12.578  0.00  0.00    +0.000 A 
ATOM     20  C   UNL     1       6.862   4.217  12.244  0.00  0.00    +0.000 A 
ATOM     21  C   UNL     1       7.485   5.027  13.197  0.00  0.00    +0.000 A 
BRANCH  19  22
ATOM     22  C   UNL     1       5.131   2.603  11.507  0.00  0.00    +0.000 C 
ATOM     23  C   UNL     1       3.821   2.971  10.862  0.00  0.00    +0.000 C 
ATOM     24  O   UNL     1       5.724   1.585  11.147  0.00  0.00    +0.000 OA
ENDBRANCH  19  22
ENDBRANCH  15  16
ENDBRANCH  14  15
ENDBRANCH  13  14
ENDBRANCH   1  13
TORSDOF 15
ENDMDL
MODEL 3
REMARK VINA RESULT:      -6.0      3.369      6.269
REMARK  Name = 
REMARK  17 active torsions:
REMARK  status: ('A' for Active; 'I' for Inactive)
REMARK    1  A    between atoms: C_1  and  C_2
REMARK    2  A    between atoms: C_2  and  C_3
REMARK    3  A    between atoms: C_3  and  C_4
REMARK    4  A    between atoms: C_4  and  C_5
REMARK    5  A    between atoms: C_5  and  C_6
REMARK    6  A    between atoms: C_6  and  C_7
REMARK    7  A    between atoms: C_7  and  C_8
REMARK    8  A    between atoms: C_8  and  C_9
REMARK    9  A    between atoms: C_9  and  C_10
REMARK   10  A    between atoms: C_10  and  C_11
REMARK   11  A    between atoms: C_11  and  C_12
REMARK   12  A    between atoms: C_12  and  C_13
REMARK   13  A    between atoms: C_13  and  C_14
REMARK   14  A    between atoms: C_14  and  O_15
REMARK   15  A    between atoms: O_15  and  C_16
REMARK   16  A    between atoms: C_19  and  C_20
REMARK   17  A    between atoms: C_20  and  C_21
REMARK                            x       y       z     vdW  Elec       q    Type
REMARK                         _______ _______ _______ _____ _____    ______ ____
ROOT
ATOM      1  C   UNL     1       1.039   4.453  19.915  0.00  0.00    +0.000 C 
ENDROOT
BRANCH   1   2
ATOM      2  C   UNL     1       1.900   5.296  20.856  0.00  0.00    +0.000 C 
BRANCH   2   3
ATOM      3  C   UNL     1       2.310   6.612  20.213  0.00  0.00    +0.000 C 
BRANCH   3   4
ATOM      4  C   UNL     1       2.262   6.488  18.694  0.00  0.00    +0.000 C 
BRANCH   4   5
ATOM      5  C   UNL     1       2.857   7.725  18.039  0.00  0.00    +0.000 C 
BRANCH   5   6
ATOM      6  C   UNL     1       1.762   8.598  17.439  0.00  0.00    +0.000 C 
BRANCH   6   7
ATOM      7  C   UNL     1       1.650   9.910  18.204  0.00  0.00    +0.000 C 
BRANCH   7   8
ATOM      8  C   UNL     1       0.401   9.922  19.078  0.00  0.00    +0.000 C 
BRANCH   8   9
ATOM      9  C   UNL     1      -0.725  10.695  18.399  0.00  0.00    +0.000 C 
BRANCH   9  10
ATOM     10  C   UNL     1      -1.464   9.806  17.402  0.00  0.00    +0.000 C 
BRANCH  10  12
ATOM     11  C   UNL     1      -3.282  11.284  18.302  0.00  0.00    +0.000 C 
ATOM     12  C   UNL     1      -2.927  10.222  17.277  0.00  0.00    +0.000 C 
ENDBRANCH  10  12
ENDBRANCH   9  10
ENDBRANCH   8   9
ENDBRANCH   7   8
ENDBRANCH   6   7
ENDBRANCH   5   6
ENDBRANCH   4   5
ENDBRANCH   3   4
ENDBRANCH   2   3
ENDBRANCH   1   2
BRANCH   1  13
ATOM     13  C   UNL     1       1.113   2.961  20.239  0.00  0.00    +0.000 C 
BRANCH  13  14
ATOM     14  C   UNL     1       2.549   2.484  20.423  0.00  0.00    +0.000 C 
BRANCH  14  15
ATOM     15  O   UNL     1       3.069   2.073  19.161  0.00  0.00    +0.000 OA
BRANCH  15  16
ATOM     16  C   UNL     1       3.795   3.028  18.505  0.00  0.00    +0.000 A 
ATOM     17  C   UNL     1       4.800   3.627  19.263  0.00  0.00    +0.000 A 
ATOM     18  C   UNL     1       5.608   4.627  18.716  0.00  0.00    +0.000 A 
ATOM     19  C   UNL     1       5.425   5.031  17.391  0.00  0.00    +0.000 A 
ATOM     20  C   UNL     1       4.431   4.407  16.624  0.00  0.00    +0.000 A 
ATOM     21  C   UNL     1       3.622   3.410  17.178  0.00  0.00    +0.000 A 
BRANCH  19  22
ATOM     22  C   UNL     1       6.238   6.100  16.732  0.00  0.00    +0.000 C 
ATOM     23  C   UNL     1       7.124   7.011  17.540  0.00  0.00    +0.000 C 
ATOM     24  O   UNL     1       6.182   6.230  15.509  0.00  0.00    +0.000 OA
ENDBRANCH  19  22
ENDBRANCH  15  16
ENDBRANCH  14  15
ENDBRANCH  13  14
ENDBRANCH   1  13
TORSDOF 15
ENDMDL
MODEL 4
REMARK VINA RESULT:      -5.9      0.901      2.371
REMARK  Name = 
REMARK  17 active torsions:
REMARK  status: ('A' for Active; 'I' for Inactive)
REMARK    1  A    between atoms: C_1  and  C_2
REMARK    2  A    between atoms: C_2  and  C_3
REMARK    3  A    between atoms: C_3  and  C_4
REMARK    4  A    between atoms: C_4  and  C_5
REMARK    5  A    between atoms: C_5  and  C_6
REMARK    6  A    between atoms: C_6  and  C_7
REMARK    7  A    between atoms: C_7  and  C_8
REMARK    8  A    between atoms: C_8  and  C_9
REMARK    9  A    between atoms: C_9  and  C_10
REMARK   10  A    between atoms: C_10  and  C_11
REMARK   11  A    between atoms: C_11  and  C_12
REMARK   12  A    between atoms: C_12  and  C_13
REMARK   13  A    between atoms: C_13  and  C_14
REMARK   14  A    between atoms: C_14  and  O_15
REMARK   15  A    between atoms: O_15  and  C_16
REMARK   16  A    between atoms: C_19  and  C_20
REMARK   17  A    between atoms: C_20  and  C_21
REMARK                            x       y       z     vdW  Elec       q    Type
REMARK                         _______ _______ _______ _____ _____    ______ ____
ROOT
ATOM      1  C   UNL     1       5.843   6.893  17.582  0.00  0.00    +0.000 C 
ENDROOT
BRANCH   1   2
ATOM      2  C   UNL     1       4.441   6.681  17.010  0.00  0.00    +0.000 C 
BRANCH   2   3
ATOM      3  C   UNL     1       3.460   7.720  17.530  0.00  0.00    +0.000 C 
BRANCH   3   4
ATOM      4  C   UNL     1       2.271   7.032  18.189  0.00  0.00    +0.000 C 
BRANCH   4   5
ATOM      5  C   UNL     1       2.407   7.066  19.704  0.00  0.00    +0.000 C 
BRANCH   5   6
ATOM      6  C   UNL     1       2.696   5.674  20.252  0.00  0.00    +0.000 C 
BRANCH   6   7
ATOM      7  C   UNL     1       1.406   4.875  20.380  0.00  0.00    +0.000 C 
BRANCH   7   8
ATOM      8  C   UNL     1       1.645   3.578  21.144  0.00  0.00    +0.000 C 
BRANCH   8   9
ATOM      9  C   UNL     1       1.415   2.370  20.242  0.00  0.00    +0.000 C 
BRANCH   9  10
ATOM     10  C   UNL     1       2.601   2.162  19.305  0.00  0.00    +0.000 C 
BRANCH  10  12
ATOM     11  C   UNL     1       3.035   3.464  17.203  0.00  0.00    +0.000 C 
ATOM     12  C   UNL     1       2.195   2.376  17.850  0.00  0.00    +0.000 C 
ENDBRANCH  10  12
ENDBRANCH   9  10
ENDBRANCH   8   9
ENDBRANCH   7   8
ENDBRANCH   6   7
ENDBRANCH   5   6
ENDBRANCH   4   5
ENDBRANCH   3   4
ENDBRANCH   2   3
ENDBRANCH   1   2
BRANCH   1  13
ATOM     13  C   UNL     1       6.444   5.604  18.142  0.00  0.00    +0.000 C 
BRANCH  13  14
ATOM     14  C   UNL     1       7.379   4.928  17.145  0.00  0.00    +0.000 C 
BRANCH  14  15
ATOM     15  O   UNL     1       7.384   5.673  15.930  0.00  0.00    +0.000 OA
BRANCH  15  16
ATOM     16  C   UNL     1       6.925   4.988  14.840  0.00  0.00    +0.000 A 
ATOM     17  C   UNL     1       5.784   4.220  15.065  0.00  0.00    +0.000 A 
ATOM     18  C   UNL     1       5.218   3.463  14.037  0.00  0.00    +0.000 A 
ATOM     19  C   UNL     1       5.786   3.476  12.760  0.00  0.00    +0.000 A 
ATOM     20  C   UNL     1       6.918   4.271  12.531  0.00  0.00    +0.000 A 
ATOM     21  C   UNL     1       7.482   5.023  13.565  0.00  0.00    +0.000 A 
BRANCH  19  22
ATOM     22  C   UNL     1       5.251   2.687  11.608  0.00  0.00    +0.000 C 
ATOM     23  C   UNL     1       3.975   3.090  10.915  0.00  0.00    +0.000 C 
ATOM     24  O   UNL     1       5.869   1.695  11.219  0.00  0.00    +0.000 OA
ENDBRANCH  19  22
ENDBRANCH  15  16
ENDBRANCH  14  15
ENDBRANCH  13  14
ENDBRANCH   1  13
TORSDOF 15
ENDMDL
MODEL 5
REMARK VINA RESULT:      -5.8      0.942      2.629
REMARK  Name = 
REMARK  17 active torsions:
REMARK  status: ('A' for Active; 'I' for Inactive)
REMARK    1  A    between atoms: C_1  and  C_2
REMARK    2  A    between atoms: C_2  and  C_3
REMARK    3  A    between atoms: C_3  and  C_4
REMARK    4  A    between atoms: C_4  and  C_5
REMARK    5  A    between atoms: C_5  and  C_6
REMARK    6  A    between atoms: C_6  and  C_7
REMARK    7  A    between atoms: C_7  and  C_8
REMARK    8  A    between atoms: C_8  and  C_9
REMARK    9  A    between atoms: C_9  and  C_10
REMARK   10  A    between atoms: C_10  and  C_11
REMARK   11  A    between atoms: C_11  and  C_12
REMARK   12  A    between atoms: C_12  and  C_13
REMARK   13  A    between atoms: C_13  and  C_14
REMARK   14  A    between atoms: C_14  and  O_15
REMARK   15  A    between atoms: O_15  and  C_16
REMARK   16  A    between atoms: C_19  and  C_20
REMARK   17  A    between atoms: C_20  and  C_21
REMARK                            x       y       z     vdW  Elec       q    Type
REMARK                         _______ _______ _______ _____ _____    ______ ____
ROOT
ATOM      1  C   UNL     1       4.610   6.129  17.119  0.00  0.00    +0.000 C 
ENDROOT
BRANCH   1   2
ATOM      2  C   UNL     1       4.784   5.035  18.173  0.00  0.00    +0.000 C 
BRANCH   2   3
ATOM      3  C   UNL     1       4.180   5.442  19.508  0.00  0.00    +0.000 C 
BRANCH   3   4
ATOM      4  C   UNL     1       3.113   6.509  19.295  0.00  0.00    +0.000 C 
BRANCH   4   5
ATOM      5  C   UNL     1       1.940   6.286  20.237  0.00  0.00    +0.000 C 
BRANCH   5   6
ATOM      6  C   UNL     1       2.077   4.955  20.965  0.00  0.00    +0.000 C 
BRANCH   6   7
ATOM      7  C   UNL     1       0.867   4.072  20.690  0.00  0.00    +0.000 C 
BRANCH   7   8
ATOM      8  C   UNL     1       1.227   2.598  20.836  0.00  0.00    +0.000 C 
BRANCH   8   9
ATOM      9  C   UNL     1       1.497   1.971  19.472  0.00  0.00    +0.000 C 
BRANCH   9  10
ATOM     10  C   UNL     1       2.995   1.920  19.189  0.00  0.00    +0.000 C 
BRANCH  10  12
ATOM     11  C   UNL     1       2.549   3.039  16.987  0.00  0.00    +0.000 C 
ATOM     12  C   UNL     1       3.269   1.900  17.688  0.00  0.00    +0.000 C 
ENDBRANCH  10  12
ENDBRANCH   9  10
ENDBRANCH   8   9
ENDBRANCH   7   8
ENDBRANCH   6   7
ENDBRANCH   5   6
ENDBRANCH   4   5
ENDBRANCH   3   4
ENDBRANCH   2   3
ENDBRANCH   1   2
BRANCH   1  13
ATOM     13  C   UNL     1       5.921   6.851  16.808  0.00  0.00    +0.000 C 
BRANCH  13  14
ATOM     14  C   UNL     1       7.111   5.898  16.795  0.00  0.00    +0.000 C 
BRANCH  14  15
ATOM     15  O   UNL     1       7.703   5.908  15.498  0.00  0.00    +0.000 OA
BRANCH  15  16
ATOM     16  C   UNL     1       7.145   5.031  14.610  0.00  0.00    +0.000 A 
ATOM     17  C   UNL     1       7.591   5.160  13.296  0.00  0.00    +0.000 A 
ATOM     18  C   UNL     1       7.092   4.334  12.288  0.00  0.00    +0.000 A 
ATOM     19  C   UNL     1       6.143   3.353  12.588  0.00  0.00    +0.000 A 
ATOM     20  C   UNL     1       5.717   3.209  13.916  0.00  0.00    +0.000 A 
ATOM     21  C   UNL     1       6.216   4.042  14.921  0.00  0.00    +0.000 A 
BRANCH  19  22
ATOM     22  C   UNL     1       5.549   2.435  11.568  0.00  0.00    +0.000 C 
ATOM     23  C   UNL     1       6.323   1.254  11.042  0.00  0.00    +0.000 C 
ATOM     24  O   UNL     1       4.407   2.648  11.159  0.00  0.00    +0.000 OA
ENDBRANCH  19  22
ENDBRANCH  15  16
ENDBRANCH  14  15
ENDBRANCH  13  14
ENDBRANCH   1  13
TORSDOF 15
ENDMDL
MODEL 6
REMARK VINA RESULT:      -5.7      3.208      6.308
REMARK  Name = 
REMARK  17 active torsions:
REMARK  status: ('A' for Active; 'I' for Inactive)
REMARK    1  A    between atoms: C_1  and  C_2
REMARK    2  A    between atoms: C_2  and  C_3
REMARK    3  A    between atoms: C_3  and  C_4
REMARK    4  A    between atoms: C_4  and  C_5
REMARK    5  A    between atoms: C_5  and  C_6
REMARK    6  A    between atoms: C_6  and  C_7
REMARK    7  A    between atoms: C_7  and  C_8
REMARK    8  A    between atoms: C_8  and  C_9
REMARK    9  A    between atoms: C_9  and  C_10
REMARK   10  A    between atoms: C_10  and  C_11
REMARK   11  A    between atoms: C_11  and  C_12
REMARK   12  A    between atoms: C_12  and  C_13
REMARK   13  A    between atoms: C_13  and  C_14
REMARK   14  A    between atoms: C_14  and  O_15
REMARK   15  A    between atoms: O_15  and  C_16
REMARK   16  A    between atoms: C_19  and  C_20
REMARK   17  A    between atoms: C_20  and  C_21
REMARK                            x       y       z     vdW  Elec       q    Type
REMARK                         _______ _______ _______ _____ _____    ______ ____
ROOT
ATOM      1  C   UNL     1       1.630   4.882  20.549  0.00  0.00    +0.000 C 
ENDROOT
BRANCH   1   2
ATOM      2  C   UNL     1       1.759   5.644  19.231  0.00  0.00    +0.000 C 
BRANCH   2   3
ATOM      3  C   UNL     1       2.679   6.848  19.367  0.00  0.00    +0.000 C 
BRANCH   3   4
ATOM      4  C   UNL     1       2.903   7.491  18.003  0.00  0.00    +0.000 C 
BRANCH   4   5
ATOM      5  C   UNL     1       1.902   8.613  17.772  0.00  0.00    +0.000 C 
BRANCH   5   6
ATOM      6  C   UNL     1       1.465   9.228  19.096  0.00  0.00    +0.000 C 
BRANCH   6   7
ATOM      7  C   UNL     1       0.367  10.258  18.866  0.00  0.00    +0.000 C 
BRANCH   7   8
ATOM      8  C   UNL     1       0.822  11.643  19.310  0.00  0.00    +0.000 C 
BRANCH   8   9
ATOM      9  C   UNL     1      -0.184  12.256  20.279  0.00  0.00    +0.000 C 
BRANCH   9  10
ATOM     10  C   UNL     1      -0.962  11.167  21.010  0.00  0.00    +0.000 C 
BRANCH  10  12
ATOM     11  C   UNL     1      -0.362   9.678  22.939  0.00  0.00    +0.000 C 
ATOM     12  C   UNL     1      -0.576  11.112  22.485  0.00  0.00    +0.000 C 
ENDBRANCH  10  12
ENDBRANCH   9  10
ENDBRANCH   8   9
ENDBRANCH   7   8
ENDBRANCH   6   7
ENDBRANCH   5   6
ENDBRANCH   4   5
ENDBRANCH   3   4
ENDBRANCH   2   3
ENDBRANCH   1   2
BRANCH   1  13
ATOM     13  C   UNL     1       1.448   3.379  20.336  0.00  0.00    +0.000 C 
BRANCH  13  14
ATOM     14  C   UNL     1       2.748   2.609  20.536  0.00  0.00    +0.000 C 
BRANCH  14  15
ATOM     15  O   UNL     1       3.223   2.158  19.270  0.00  0.00    +0.000 OA
BRANCH  15  16
ATOM     16  C   UNL     1       3.962   3.078  18.578  0.00  0.00    +0.000 A 
ATOM     17  C   UNL     1       4.942   3.728  19.326  0.00  0.00    +0.000 A 
ATOM     18  C   UNL     1       5.759   4.698  18.743  0.00  0.00    +0.000 A 
ATOM     19  C   UNL     1       5.612   5.021  17.391  0.00  0.00    +0.000 A 
ATOM     20  C   UNL     1       4.643   4.345  16.636  0.00  0.00    +0.000 A 
ATOM     21  C   UNL     1       3.824   3.378  17.227  0.00  0.00    +0.000 A 
BRANCH  19  22
ATOM     22  C   UNL     1       6.436   6.054  16.691  0.00  0.00    +0.000 C 
ATOM     23  C   UNL     1       7.336   6.983  17.463  0.00  0.00    +0.000 C 
ATOM     24  O   UNL     1       6.379   6.140  15.464  0.00  0.00    +0.000 OA
ENDBRANCH  19  22
ENDBRANCH  15  16
ENDBRANCH  14  15
ENDBRANCH  13  14
ENDBRANCH   1  13
TORSDOF 15
ENDMDL
MODEL 7
REMARK VINA RESULT:      -5.6      2.814      5.707
REMARK  Name = 
REMARK  17 active torsions:
REMARK  status: ('A' for Active; 'I' for Inactive)
REMARK    1  A    between atoms: C_1  and  C_2
REMARK    2  A    between atoms: C_2  and  C_3
REMARK    3  A    between atoms: C_3  and  C_4
REMARK    4  A    between atoms: C_4  and  C_5
REMARK    5  A    between atoms: C_5  and  C_6
REMARK    6  A    between atoms: C_6  and  C_7
REMARK    7  A    between atoms: C_7  and  C_8
REMARK    8  A    between atoms: C_8  and  C_9
REMARK    9  A    between atoms: C_9  and  C_10
REMARK   10  A    between atoms: C_10  and  C_11
REMARK   11  A    between atoms: C_11  and  C_12
REMARK   12  A    between atoms: C_12  and  C_13
REMARK   13  A    between atoms: C_13  and  C_14
REMARK   14  A    between atoms: C_14  and  O_15
REMARK   15  A    between atoms: O_15  and  C_16
REMARK   16  A    between atoms: C_19  and  C_20
REMARK   17  A    between atoms: C_20  and  C_21
REMARK                            x       y       z     vdW  Elec       q    Type
REMARK                         _______ _______ _______ _____ _____    ______ ____
ROOT
ATOM      1  C   UNL     1       0.810   4.836  20.140  0.00  0.00    +0.000 C 
ENDROOT
BRANCH   1   2
ATOM      2  C   UNL     1       1.982   5.396  20.947  0.00  0.00    +0.000 C 
BRANCH   2   3
ATOM      3  C   UNL     1       2.853   6.315  20.105  0.00  0.00    +0.000 C 
BRANCH   3   4
ATOM      4  C   UNL     1       2.205   6.549  18.746  0.00  0.00    +0.000 C 
BRANCH   4   5
ATOM      5  C   UNL     1       3.095   7.421  17.873  0.00  0.00    +0.000 C 
BRANCH   5   6
ATOM      6  C   UNL     1       2.446   8.778  17.628  0.00  0.00    +0.000 C 
BRANCH   6   7
ATOM      7  C   UNL     1       1.072   8.836  18.281  0.00  0.00    +0.000 C 
BRANCH   7   8
ATOM      8  C   UNL     1       1.035   9.901  19.370  0.00  0.00    +0.000 C 
BRANCH   8   9
ATOM      9  C   UNL     1      -0.207   9.740  20.240  0.00  0.00    +0.000 C 
BRANCH   9  10
ATOM     10  C   UNL     1      -0.116   8.470  21.081  0.00  0.00    +0.000 C 
BRANCH  10  12
ATOM     11  C   UNL     1       0.138   9.830  23.175  0.00  0.00    +0.000 C 
ATOM     12  C   UNL     1      -0.632   8.710  22.497  0.00  0.00    +0.000 C 
ENDBRANCH  10  12
ENDBRANCH   9  10
ENDBRANCH   8   9
ENDBRANCH   7   8
ENDBRANCH   6   7
ENDBRANCH   5   6
ENDBRANCH   4   5
ENDBRANCH   3   4
ENDBRANCH   2   3
ENDBRANCH   1   2
BRANCH   1  13
ATOM     13  C   UNL     1       0.839   3.310  20.056  0.00  0.00    +0.000 C 
BRANCH  13  14
ATOM     14  C   UNL     1       2.144   2.730  20.591  0.00  0.00    +0.000 C 
BRANCH  14  15
ATOM     15  O   UNL     1       2.842   2.090  19.525  0.00  0.00    +0.000 OA
BRANCH  15  16
ATOM     16  C   UNL     1       3.685   2.907  18.825  0.00  0.00    +0.000 A 
ATOM     17  C   UNL     1       3.304   3.155  17.507  0.00  0.00    +0.000 A 
ATOM     18  C   UNL     1       4.084   3.964  16.679  0.00  0.00    +0.000 A 
ATOM     19  C   UNL     1       5.256   4.549  17.168  0.00  0.00    +0.000 A 
ATOM     20  C   UNL     1       5.621   4.318  18.502  0.00  0.00    +0.000 A 
ATOM     21  C   UNL     1       4.839   3.503  19.325  0.00  0.00    +0.000 A 
BRANCH  19  22
ATOM     22  C   UNL     1       6.154   5.418  16.346  0.00  0.00    +0.000 C 
ATOM     23  C   UNL     1       5.588   6.456  15.412  0.00  0.00    +0.000 C 
ATOM     24  O   UNL     1       7.374   5.283  16.441  0.00  0.00    +0.000 OA
ENDBRANCH  19  22
ENDBRANCH  15  16
ENDBRANCH  14  15
ENDBRANCH  13  14
ENDBRANCH   1  13
TORSDOF 15
ENDMDL
MODEL 8
REMARK VINA RESULT:      -5.6      2.899      5.870
REMARK  Name = 
REMARK  17 active torsions:
REMARK  status: ('A' for Active; 'I' for Inactive)
REMARK    1  A    between atoms: C_1  and  C_2
REMARK    2  A    between atoms: C_2  and  C_3
REMARK    3  A    between atoms: C_3  and  C_4
REMARK    4  A    between atoms: C_4  and  C_5
REMARK    5  A    between atoms: C_5  and  C_6
REMARK    6  A    between atoms: C_6  and  C_7
REMARK    7  A    between atoms: C_7  and  C_8
REMARK    8  A    between atoms: C_8  and  C_9
REMARK    9  A    between atoms: C_9  and  C_10
REMARK   10  A    between atoms: C_10  and  C_11
REMARK   11  A    between atoms: C_11  and  C_12
REMARK   12  A    between atoms: C_12  and  C_13
REMARK   13  A    between atoms: C_13  and  C_14
REMARK   14  A    between atoms: C_14  and  O_15
REMARK   15  A    between atoms: O_15  and  C_16
REMARK   16  A    between atoms: C_19  and  C_20
REMARK   17  A    between atoms: C_20  and  C_21
REMARK                            x       y       z     vdW  Elec       q    Type
REMARK                         _______ _______ _______ _____ _____    ______ ____
ROOT
ATOM      1  C   UNL     1       1.719   2.942  19.845  0.00  0.00    +0.000 C 
ENDROOT
BRANCH   1   2
ATOM      2  C   UNL     1       2.417   4.159  20.451  0.00  0.00    +0.000 C 
BRANCH   2   3
ATOM      3  C   UNL     1       1.592   5.424  20.272  0.00  0.00    +0.000 C 
BRANCH   3   4
ATOM      4  C   UNL     1       2.512   6.620  20.053  0.00  0.00    +0.000 C 
BRANCH   4   5
ATOM      5  C   UNL     1       2.695   6.887  18.566  0.00  0.00    +0.000 C 
BRANCH   5   6
ATOM      6  C   UNL     1       1.582   7.784  18.038  0.00  0.00    +0.000 C 
BRANCH   6   7
ATOM      7  C   UNL     1       1.779   9.215  18.521  0.00  0.00    +0.000 C 
BRANCH   7   8
ATOM      8  C   UNL     1       0.569   9.690  19.317  0.00  0.00    +0.000 C 
BRANCH   8   9
ATOM      9  C   UNL     1       0.886   9.732  20.808  0.00  0.00    +0.000 C 
BRANCH   9  10
ATOM     10  C   UNL     1      -0.068   8.831  21.588  0.00  0.00    +0.000 C 
BRANCH  10  12
ATOM     11  C   UNL     1      -0.804  10.952  22.710  0.00  0.00    +0.000 C 
ATOM     12  C   UNL     1      -0.481   9.480  22.905  0.00  0.00    +0.000 C 
ENDBRANCH  10  12
ENDBRANCH   9  10
ENDBRANCH   8   9
ENDBRANCH   7   8
ENDBRANCH   6   7
ENDBRANCH   5   6
ENDBRANCH   4   5
ENDBRANCH   3   4
ENDBRANCH   2   3
ENDBRANCH   1   2
BRANCH   1  13
ATOM     13  C   UNL     1       1.800   2.925  18.319  0.00  0.00    +0.000 C 
BRANCH  13  14
ATOM     14  C   UNL     1       3.189   2.541  17.822  0.00  0.00    +0.000 C 
BRANCH  14  15
ATOM     15  O   UNL     1       3.545   3.385  16.730  0.00  0.00    +0.000 OA
BRANCH  15  16
ATOM     16  C   UNL     1       4.531   4.291  17.008  0.00  0.00    +0.000 A 
ATOM     17  C   UNL     1       5.122   4.151  18.262  0.00  0.00    +0.000 A 
ATOM     18  C   UNL     1       6.134   5.019  18.675  0.00  0.00    +0.000 A 
ATOM     19  C   UNL     1       6.579   6.036  17.825  0.00  0.00    +0.000 A 
ATOM     20  C   UNL     1       6.001   6.155  16.554  0.00  0.00    +0.000 A 
ATOM     21  C   UNL     1       4.984   5.286  16.147  0.00  0.00    +0.000 A 
BRANCH  19  22
ATOM     22  C   UNL     1       7.649   7.014  18.193  0.00  0.00    +0.000 C 
ATOM     23  C   UNL     1       7.696   8.384  17.569  0.00  0.00    +0.000 C 
ATOM     24  O   UNL     1       8.501   6.691  19.022  0.00  0.00    +0.000 OA
ENDBRANCH  19  22
ENDBRANCH  15  16
ENDBRANCH  14  15
ENDBRANCH  13  14
ENDBRANCH   1  13
TORSDOF 15
ENDMDL
MODEL 9
REMARK VINA RESULT:      -5.6      4.949      8.372
REMARK  Name = 
REMARK  17 active torsions:
REMARK  status: ('A' for Active; 'I' for Inactive)
REMARK    1  A    between atoms: C_1  and  C_2
REMARK    2  A    between atoms: C_2  and  C_3
REMARK    3  A    between atoms: C_3  and  C_4
REMARK    4  A    between atoms: C_4  and  C_5
REMARK    5  A    between atoms: C_5  and  C_6
REMARK    6  A    between atoms: C_6  and  C_7
REMARK    7  A    between atoms: C_7  and  C_8
REMARK    8  A    between atoms: C_8  and  C_9
REMARK    9  A    between atoms: C_9  and  C_10
REMARK   10  A    between atoms: C_10  and  C_11
REMARK   11  A    between atoms: C_11  and  C_12
REMARK   12  A    between atoms: C_12  and  C_13
REMARK   13  A    between atoms: C_13  and  C_14
REMARK   14  A    between atoms: C_14  and  O_15
REMARK   15  A    between atoms: O_15  and  C_16
REMARK   16  A    between atoms: C_19  and  C_20
REMARK   17  A    between atoms: C_20  and  C_21
REMARK                            x       y       z     vdW  Elec       q    Type
REMARK                         _______ _______ _______ _____ _____    ______ ____
ROOT
ATOM      1  C   UNL     1       2.144   6.702  18.425  0.00  0.00    +0.000 C 
ENDROOT
BRANCH   1   2
ATOM      2  C   UNL     1       2.611   6.301  19.825  0.00  0.00    +0.000 C 
BRANCH   2   3
ATOM      3  C   UNL     1       1.512   5.591  20.600  0.00  0.00    +0.000 C 
BRANCH   3   4
ATOM      4  C   UNL     1       1.821   4.102  20.698  0.00  0.00    +0.000 C 
BRANCH   4   5
ATOM      5  C   UNL     1       0.882   3.302  19.807  0.00  0.00    +0.000 C 
BRANCH   5   6
ATOM      6  C   UNL     1       1.660   2.293  18.971  0.00  0.00    +0.000 C 
BRANCH   6   7
ATOM      7  C   UNL     1       2.217   2.958  17.720  0.00  0.00    +0.000 C 
BRANCH   7   8
ATOM      8  C   UNL     1       3.698   2.639  17.551  0.00  0.00    +0.000 C 
BRANCH   8   9
ATOM      9  C   UNL     1       4.538   3.909  17.646  0.00  0.00    +0.000 C 
BRANCH   9  10
ATOM     10  C   UNL     1       5.199   4.017  19.017  0.00  0.00    +0.000 C 
BRANCH  10  12
ATOM     11  C   UNL     1       6.147   5.975  17.768  0.00  0.00    +0.000 C 
ATOM     12  C   UNL     1       6.080   5.259  19.106  0.00  0.00    +0.000 C 
ENDBRANCH  10  12
ENDBRANCH   9  10
ENDBRANCH   8   9
ENDBRANCH   7   8
ENDBRANCH   6   7
ENDBRANCH   5   6
ENDBRANCH   4   5
ENDBRANCH   3   4
ENDBRANCH   2   3
ENDBRANCH   1   2
BRANCH   1  13
ATOM     13  C   UNL     1       2.922   7.896  17.873  0.00  0.00    +0.000 C 
BRANCH  13  14
ATOM     14  C   UNL     1       2.034   9.120  17.679  0.00  0.00    +0.000 C 
BRANCH  14  15
ATOM     15  O   UNL     1       1.436   9.465  18.927  0.00  0.00    +0.000 OA
BRANCH  15  16
ATOM     16  C   UNL     1       0.195  10.028  18.827  0.00  0.00    +0.000 A 
ATOM     17  C   UNL     1      -0.488   9.744  17.646  0.00  0.00    +0.000 A 
ATOM     18  C   UNL     1      -1.762  10.266  17.413  0.00  0.00    +0.000 A 
ATOM     19  C   UNL     1      -2.376  11.075  18.374  0.00  0.00    +0.000 A 
ATOM     20  C   UNL     1      -1.696  11.336  19.572  0.00  0.00    +0.000 A 
ATOM     21  C   UNL     1      -0.420  10.814  19.797  0.00  0.00    +0.000 A 
BRANCH  19  22
ATOM     22  C   UNL     1      -3.731  11.684  18.200  0.00  0.00    +0.000 C 
ATOM     23  C   UNL     1      -4.455  12.313  19.362  0.00  0.00    +0.000 C 
ATOM     24  O   UNL     1      -4.258  11.672  17.087  0.00  0.00    +0.000 OA
ENDBRANCH  19  22
ENDBRANCH  15  16
ENDBRANCH  14  15
ENDBRANCH  13  14
ENDBRANCH   1  13
TORSDOF 15
ENDMDL
