MODEL 1
REMARK VINA RESULT:      -8.2      0.000      0.000
REMARK  Name = 
REMARK  4 active torsions:
REMARK  status: ('A' for Active; 'I' for Inactive)
REMARK    1  A    between atoms: N_1  and  C_2
REMARK    2  A    between atoms: C_11  and  C_12
REMARK    3  A    between atoms: C_12  and  C_13
REMARK    4  A    between atoms: C_13  and  C_14
REMARK                            x       y       z     vdW  Elec       q    Type
REMARK                         _______ _______ _______ _____ _____    ______ ____
ROOT
ATOM      1  C   UNL     1       6.745   5.762  16.475  0.00  0.00    +0.000 A 
ATOM      2  N   UNL     1       7.471   5.725  15.346  0.00  0.00    +0.000 NA
ATOM      3  C   UNL     1       7.023   4.993  14.316  0.00  0.00    +0.000 A 
ATOM      4  C   UNL     1       7.777   4.958  13.152  0.00  0.00    +0.000 A 
ATOM      5  C   UNL     1       7.344   4.252  12.020  0.00  0.00    +0.000 A 
ATOM      6  C   UNL     1       6.134   3.567  12.066  0.00  0.00    +0.000 A 
ATOM      7  C   UNL     1       5.375   3.568  13.234  0.00  0.00    +0.000 A 
ATOM      8  C   UNL     1       5.820   4.267  14.368  0.00  0.00    +0.000 A 
ATOM      9  C   UNL     1       5.095   4.300  15.567  0.00  0.00    +0.000 A 
ATOM     10  C   UNL     1       5.556   5.050  16.656  0.00  0.00    +0.000 A 
ENDROOT
BRANCH   1  11
ATOM     11  N   UNL     1       7.276   6.606  17.448  0.00  0.00    +0.000 N 
ATOM     12  H   UNL     1       8.032   6.080  17.878  0.00  0.00    +0.000 HD
ATOM     13  H   UNL     1       6.546   6.798  18.149  0.00  0.00    +0.000 HD
ENDBRANCH   1  11
BRANCH  10  14
ATOM     14  C   UNL     1       4.739   5.090  17.922  0.00  0.00    +0.000 C 
BRANCH  14  15
ATOM     15  C   UNL     1       3.259   5.439  17.759  0.00  0.00    +0.000 C 
BRANCH  15  16
ATOM     16  C   UNL     1       2.277   4.301  17.974  0.00  0.00    +0.000 C 
ATOM     17  O   UNL     1       1.989   3.500  17.086  0.00  0.00    +0.000 OA
ATOM     18  N   UNL     1       1.750   4.181  19.248  0.00  0.00    +0.000 N 
ATOM     19  C   UNL     1       1.992   5.075  20.385  0.00  0.00    +0.000 C 
ATOM     20  C   UNL     1       2.516   4.283  21.589  0.00  0.00    +0.000 C 
ATOM     21  O   UNL     1       1.653   3.178  21.906  0.00  0.00    +0.000 OA
ATOM     22  C   UNL     1       1.522   2.290  20.782  0.00  0.00    +0.000 C 
ATOM     23  C   UNL     1       0.921   3.020  19.578  0.00  0.00    +0.000 C 
ENDBRANCH  15  16
ENDBRANCH  14  15
ENDBRANCH  10  14
TORSDOF 4
ENDMDL
MODEL 2
REMARK VINA RESULT:      -8.0      1.312      1.515
REMARK  Name = 
REMARK  4 active torsions:
REMARK  status: ('A' for Active; 'I' for Inactive)
REMARK    1  A    between atoms: N_1  and  C_2
REMARK    2  A    between atoms: C_11  and  C_12
REMARK    3  A    between atoms: C_12  and  C_13
REMARK    4  A    between atoms: C_13  and  C_14
REMARK                            x       y       z     vdW  Elec       q    Type
REMARK                         _______ _______ _______ _____ _____    ______ ____
ROOT
ATOM      1  C   UNL     1       6.978   5.974  15.925  0.00  0.00    +0.000 A 
ATOM      2  N   UNL     1       7.611   5.574  14.810  0.00  0.00    +0.000 NA
ATOM      3  C   UNL     1       6.958   4.782  13.948  0.00  0.00    +0.000 A 
ATOM      4  C   UNL     1       7.617   4.371  12.798  0.00  0.00    +0.000 A 
ATOM      5  C   UNL     1       6.978   3.582  11.830  0.00  0.00    +0.000 A 
ATOM      6  C   UNL     1       5.655   3.199  12.028  0.00  0.00    +0.000 A 
ATOM      7  C   UNL     1       4.985   3.580  13.187  0.00  0.00    +0.000 A 
ATOM      8  C   UNL     1       5.634   4.360  14.159  0.00  0.00    +0.000 A 
ATOM      9  C   UNL     1       5.004   4.769  15.342  0.00  0.00    +0.000 A 
ATOM     10  C   UNL     1       5.678   5.586  16.260  0.00  0.00    +0.000 A 
ENDROOT
BRANCH   1  11
ATOM     11  N   UNL     1       7.732   6.845  16.709  0.00  0.00    +0.000 N 
ATOM     12  H   UNL     1       7.624   7.758  16.276  0.00  0.00    +0.000 HD
ATOM     13  H   UNL     1       8.719   6.554  16.663  0.00  0.00    +0.000 HD
ENDBRANCH   1  11
BRANCH  10  14
ATOM     14  C   UNL     1       4.964   6.034  17.509  0.00  0.00    +0.000 C 
BRANCH  14  15
ATOM     15  C   UNL     1       3.803   5.154  17.976  0.00  0.00    +0.000 C 
BRANCH  15  16
ATOM     16  C   UNL     1       4.151   4.067  18.977  0.00  0.00    +0.000 C 
ATOM     17  O   UNL     1       5.303   3.863  19.358  0.00  0.00    +0.000 OA
ATOM     18  N   UNL     1       3.089   3.337  19.483  0.00  0.00    +0.000 N 
ATOM     19  C   UNL     1       1.679   3.465  19.102  0.00  0.00    +0.000 C 
ATOM     20  C   UNL     1       0.810   3.730  20.337  0.00  0.00    +0.000 C 
ATOM     21  O   UNL     1       1.038   2.747  21.360  0.00  0.00    +0.000 OA
ATOM     22  C   UNL     1       2.421   2.727  21.754  0.00  0.00    +0.000 C 
ATOM     23  C   UNL     1       3.322   2.382  20.567  0.00  0.00    +0.000 C 
ENDBRANCH  15  16
ENDBRANCH  14  15
ENDBRANCH  10  14
TORSDOF 4
ENDMDL
MODEL 3
REMARK VINA RESULT:      -7.8      1.341      1.605
REMARK  Name = 
REMARK  4 active torsions:
REMARK  status: ('A' for Active; 'I' for Inactive)
REMARK    1  A    between atoms: N_1  and  C_2
REMARK    2  A    between atoms: C_11  and  C_12
REMARK    3  A    between atoms: C_12  and  C_13
REMARK    4  A    between atoms: C_13  and  C_14
REMARK                            x       y       z     vdW  Elec       q    Type
REMARK                         _______ _______ _______ _____ _____    ______ ____
ROOT
ATOM      1  C   UNL     1       7.009   6.001  16.156  0.00  0.00    +0.000 A 
ATOM      2  N   UNL     1       7.618   5.639  15.015  0.00  0.00    +0.000 NA
ATOM      3  C   UNL     1       6.953   4.860  14.150  0.00  0.00    +0.000 A 
ATOM      4  C   UNL     1       7.586   4.488  12.973  0.00  0.00    +0.000 A 
ATOM      5  C   UNL     1       6.932   3.714  12.003  0.00  0.00    +0.000 A 
ATOM      6  C   UNL     1       5.621   3.307  12.226  0.00  0.00    +0.000 A 
ATOM      7  C   UNL     1       4.977   3.648  13.412  0.00  0.00    +0.000 A 
ATOM      8  C   UNL     1       5.641   4.412  14.386  0.00  0.00    +0.000 A 
ATOM      9  C   UNL     1       5.038   4.782  15.596  0.00  0.00    +0.000 A 
ATOM     10  C   UNL     1       5.725   5.585  16.516  0.00  0.00    +0.000 A 
ENDROOT
BRANCH   1  11
ATOM     11  N   UNL     1       7.773   6.863  16.942  0.00  0.00    +0.000 N 
ATOM     12  H   UNL     1       7.570   6.601  17.903  0.00  0.00    +0.000 HD
ATOM     13  H   UNL     1       7.455   7.828  16.771  0.00  0.00    +0.000 HD
ENDBRANCH   1  11
BRANCH  10  14
ATOM     14  C   UNL     1       5.039   5.991  17.795  0.00  0.00    +0.000 C 
BRANCH  14  15
ATOM     15  C   UNL     1       3.520   5.815  17.831  0.00  0.00    +0.000 C 
BRANCH  15  16
ATOM     16  C   UNL     1       2.888   5.754  19.211  0.00  0.00    +0.000 C 
ATOM     17  O   UNL     1       2.393   6.740  19.755  0.00  0.00    +0.000 OA
ATOM     18  N   UNL     1       2.854   4.508  19.814  0.00  0.00    +0.000 N 
ATOM     19  C   UNL     1       3.422   3.264  19.285  0.00  0.00    +0.000 C 
ATOM     20  C   UNL     1       2.348   2.172  19.214  0.00  0.00    +0.000 C 
ATOM     21  O   UNL     1       1.684   2.005  20.477  0.00  0.00    +0.000 OA
ATOM     22  C   UNL     1       1.074   3.236  20.903  0.00  0.00    +0.000 C 
ATOM     23  C   UNL     1       2.124   4.336  21.070  0.00  0.00    +0.000 C 
ENDBRANCH  15  16
ENDBRANCH  14  15
ENDBRANCH  10  14
TORSDOF 4
ENDMDL
MODEL 4
REMARK VINA RESULT:      -7.7      2.848      3.745
REMARK  Name = 
REMARK  4 active torsions:
REMARK  status: ('A' for Active; 'I' for Inactive)
REMARK    1  A    between atoms: N_1  and  C_2
REMARK    2  A    between atoms: C_11  and  C_12
REMARK    3  A    between atoms: C_12  and  C_13
REMARK    4  A    between atoms: C_13  and  C_14
REMARK                            x       y       z     vdW  Elec       q    Type
REMARK                         _______ _______ _______ _____ _____    ______ ____
ROOT
ATOM      1  C   UNL     1       5.090   3.759  18.669  0.00  0.00    +0.000 A 
ATOM      2  N   UNL     1       6.178   4.329  19.210  0.00  0.00    +0.000 NA
ATOM      3  C   UNL     1       6.647   5.463  18.670  0.00  0.00    +0.000 A 
ATOM      4  C   UNL     1       7.773   6.048  19.233  0.00  0.00    +0.000 A 
ATOM      5  C   UNL     1       8.288   7.259  18.749  0.00  0.00    +0.000 A 
ATOM      6  C   UNL     1       7.660   7.888  17.678  0.00  0.00    +0.000 A 
ATOM      7  C   UNL     1       6.545   7.304  17.083  0.00  0.00    +0.000 A 
ATOM      8  C   UNL     1       6.041   6.084  17.564  0.00  0.00    +0.000 A 
ATOM      9  C   UNL     1       4.922   5.456  17.002  0.00  0.00    +0.000 A 
ATOM     10  C   UNL     1       4.428   4.263  17.546  0.00  0.00    +0.000 A 
ENDROOT
BRANCH   1  11
ATOM     11  N   UNL     1       4.658   2.625  19.355  0.00  0.00    +0.000 N 
ATOM     12  H   UNL     1       5.499   2.081  19.530  0.00  0.00    +0.000 HD
ATOM     13  H   UNL     1       4.022   2.095  18.743  0.00  0.00    +0.000 HD
ENDBRANCH   1  11
BRANCH  10  14
ATOM     14  C   UNL     1       3.205   3.627  16.938  0.00  0.00    +0.000 C 
BRANCH  14  15
ATOM     15  C   UNL     1       1.858   4.058  17.521  0.00  0.00    +0.000 C 
BRANCH  15  16
ATOM     16  C   UNL     1       1.234   3.112  18.531  0.00  0.00    +0.000 C 
ATOM     17  O   UNL     1       0.787   2.010  18.216  0.00  0.00    +0.000 OA
ATOM     18  N   UNL     1       1.234   3.536  19.849  0.00  0.00    +0.000 N 
ATOM     19  C   UNL     1       1.714   4.826  20.354  0.00  0.00    +0.000 C 
ATOM     20  C   UNL     1       2.768   4.616  21.448  0.00  0.00    +0.000 C 
ATOM     21  O   UNL     1       2.284   3.743  22.482  0.00  0.00    +0.000 OA
ATOM     22  C   UNL     1       1.909   2.464  21.940  0.00  0.00    +0.000 C 
ATOM     23  C   UNL     1       0.796   2.617  20.901  0.00  0.00    +0.000 C 
ENDBRANCH  15  16
ENDBRANCH  14  15
ENDBRANCH  10  14
TORSDOF 4
ENDMDL
MODEL 5
REMARK VINA RESULT:      -7.5      4.965      7.334
REMARK  Name = 
REMARK  4 active torsions:
REMARK  status: ('A' for Active; 'I' for Inactive)
REMARK    1  A    between atoms: N_1  and  C_2
REMARK    2  A    between atoms: C_11  and  C_12
REMARK    3  A    between atoms: C_12  and  C_13
REMARK    4  A    between atoms: C_13  and  C_14
REMARK                            x       y       z     vdW  Elec       q    Type
REMARK                         _______ _______ _______ _____ _____    ______ ____
ROOT
ATOM      1  C   UNL     1       2.015   6.814  20.083  0.00  0.00    +0.000 A 
ATOM      2  N   UNL     1       1.782   5.583  20.566  0.00  0.00    +0.000 NA
ATOM      3  C   UNL     1       1.856   4.539  19.728  0.00  0.00    +0.000 A 
ATOM      4  C   UNL     1       1.614   3.269  20.232  0.00  0.00    +0.000 A 
ATOM      5  C   UNL     1       1.722   2.128  19.423  0.00  0.00    +0.000 A 
ATOM      6  C   UNL     1       2.074   2.272  18.085  0.00  0.00    +0.000 A 
ATOM      7  C   UNL     1       2.295   3.540  17.554  0.00  0.00    +0.000 A 
ATOM      8  C   UNL     1       2.174   4.680  18.366  0.00  0.00    +0.000 A 
ATOM      9  C   UNL     1       2.386   5.977  17.881  0.00  0.00    +0.000 A 
ATOM     10  C   UNL     1       2.300   7.080  18.741  0.00  0.00    +0.000 A 
ENDROOT
BRANCH   1  11
ATOM     11  N   UNL     1       1.975   7.809  21.059  0.00  0.00    +0.000 N 
ATOM     12  H   UNL     1       1.875   7.316  21.942  0.00  0.00    +0.000 HD
ATOM     13  H   UNL     1       1.146   8.396  20.894  0.00  0.00    +0.000 HD
ENDBRANCH   1  11
BRANCH  10  14
ATOM     14  C   UNL     1       2.562   8.461  18.197  0.00  0.00    +0.000 C 
BRANCH  14  15
ATOM     15  C   UNL     1       1.334   9.249  17.735  0.00  0.00    +0.000 C 
BRANCH  15  16
ATOM     16  C   UNL     1       0.593  10.020  18.812  0.00  0.00    +0.000 C 
ATOM     17  O   UNL     1       1.152  10.455  19.818  0.00  0.00    +0.000 OA
ATOM     18  N   UNL     1      -0.752  10.252  18.583  0.00  0.00    +0.000 N 
ATOM     19  C   UNL     1      -1.541   9.775  17.443  0.00  0.00    +0.000 C 
ATOM     20  C   UNL     1      -2.223  10.950  16.732  0.00  0.00    +0.000 C 
ATOM     21  O   UNL     1      -2.980  11.753  17.653  0.00  0.00    +0.000 OA
ATOM     22  C   UNL     1      -2.137  12.264  18.701  0.00  0.00    +0.000 C 
ATOM     23  C   UNL     1      -1.499  11.121  19.494  0.00  0.00    +0.000 C 
ENDBRANCH  15  16
ENDBRANCH  14  15
ENDBRANCH  10  14
TORSDOF 4
ENDMDL
MODEL 6
REMARK VINA RESULT:      -7.4      1.476      1.859
REMARK  Name = 
REMARK  4 active torsions:
REMARK  status: ('A' for Active; 'I' for Inactive)
REMARK    1  A    between atoms: N_1  and  C_2
REMARK    2  A    between atoms: C_11  and  C_12
REMARK    3  A    between atoms: C_12  and  C_13
REMARK    4  A    between atoms: C_13  and  C_14
REMARK                            x       y       z     vdW  Elec       q    Type
REMARK                         _______ _______ _______ _____ _____    ______ ____
ROOT
ATOM      1  C   UNL     1       6.906   5.394  16.325  0.00  0.00    +0.000 A 
ATOM      2  N   UNL     1       7.548   5.604  15.164  0.00  0.00    +0.000 NA
ATOM      3  C   UNL     1       7.145   4.934  14.075  0.00  0.00    +0.000 A 
ATOM      4  C   UNL     1       7.812   5.155  12.878  0.00  0.00    +0.000 A 
ATOM      5  C   UNL     1       7.413   4.524  11.691  0.00  0.00    +0.000 A 
ATOM      6  C   UNL     1       6.326   3.655  11.712  0.00  0.00    +0.000 A 
ATOM      7  C   UNL     1       5.660   3.401  12.908  0.00  0.00    +0.000 A 
ATOM      8  C   UNL     1       6.072   4.026  14.097  0.00  0.00    +0.000 A 
ATOM      9  C   UNL     1       5.436   3.804  15.326  0.00  0.00    +0.000 A 
ATOM     10  C   UNL     1       5.854   4.487  16.475  0.00  0.00    +0.000 A 
ENDROOT
BRANCH   1  11
ATOM     11  N   UNL     1       7.369   6.194  17.368  0.00  0.00    +0.000 N 
ATOM     12  H   UNL     1       6.548   6.413  17.924  0.00  0.00    +0.000 HD
ATOM     13  H   UNL     1       7.758   7.060  16.967  0.00  0.00    +0.000 HD
ENDBRANCH   1  11
BRANCH  10  14
ATOM     14  C   UNL     1       5.131   4.250  17.777  0.00  0.00    +0.000 C 
BRANCH  14  15
ATOM     15  C   UNL     1       4.662   2.817  18.037  0.00  0.00    +0.000 C 
BRANCH  15  16
ATOM     16  C   UNL     1       4.333   2.474  19.479  0.00  0.00    +0.000 C 
ATOM     17  O   UNL     1       5.193   2.130  20.289  0.00  0.00    +0.000 OA
ATOM     18  N   UNL     1       3.008   2.613  19.854  0.00  0.00    +0.000 N 
ATOM     19  C   UNL     1       1.888   2.993  18.989  0.00  0.00    +0.000 C 
ATOM     20  C   UNL     1       1.157   4.214  19.560  0.00  0.00    +0.000 C 
ATOM     21  O   UNL     1       0.774   4.003  20.929  0.00  0.00    +0.000 OA
ATOM     22  C   UNL     1       1.923   3.719  21.746  0.00  0.00    +0.000 C 
ATOM     23  C   UNL     1       2.638   2.456  21.262  0.00  0.00    +0.000 C 
ENDBRANCH  15  16
ENDBRANCH  14  15
ENDBRANCH  10  14
TORSDOF 4
ENDMDL
MODEL 7
REMARK VINA RESULT:      -7.3      1.485      2.169
REMARK  Name = 
REMARK  4 active torsions:
REMARK  status: ('A' for Active; 'I' for Inactive)
REMARK    1  A    between atoms: N_1  and  C_2
REMARK    2  A    between atoms: C_11  and  C_12
REMARK    3  A    between atoms: C_12  and  C_13
REMARK    4  A    between atoms: C_13  and  C_14
REMARK                            x       y       z     vdW  Elec       q    Type
REMARK                         _______ _______ _______ _____ _____    ______ ____
ROOT
ATOM      1  C   UNL     1       7.072   5.386  16.487  0.00  0.00    +0.000 A 
ATOM      2  N   UNL     1       7.607   5.562  15.268  0.00  0.00    +0.000 NA
ATOM      3  C   UNL     1       7.107   4.863  14.239  0.00  0.00    +0.000 A 
ATOM      4  C   UNL     1       7.664   5.048  12.981  0.00  0.00    +0.000 A 
ATOM      5  C   UNL     1       7.160   4.387  11.852  0.00  0.00    +0.000 A 
ATOM      6  C   UNL     1       6.079   3.522  11.995  0.00  0.00    +0.000 A 
ATOM      7  C   UNL     1       5.524   3.302  13.253  0.00  0.00    +0.000 A 
ATOM      8  C   UNL     1       6.041   3.958  14.382  0.00  0.00    +0.000 A 
ATOM      9  C   UNL     1       5.518   3.772  15.669  0.00  0.00    +0.000 A 
ATOM     10  C   UNL     1       6.037   4.486  16.757  0.00  0.00    +0.000 A 
ENDROOT
BRANCH   1  11
ATOM     11  N   UNL     1       7.628   6.213  17.461  0.00  0.00    +0.000 N 
ATOM     12  H   UNL     1       8.274   6.819  16.963  0.00  0.00    +0.000 HD
ATOM     13  H   UNL     1       8.147   5.627  18.130  0.00  0.00    +0.000 HD
ENDBRANCH   1  11
BRANCH  10  14
ATOM     14  C   UNL     1       5.434   4.287  18.124  0.00  0.00    +0.000 C 
BRANCH  14  15
ATOM     15  C   UNL     1       4.169   3.429  18.185  0.00  0.00    +0.000 C 
BRANCH  15  16
ATOM     16  C   UNL     1       3.229   3.707  19.344  0.00  0.00    +0.000 C 
ATOM     17  O   UNL     1       3.192   2.998  20.349  0.00  0.00    +0.000 OA
ATOM     18  N   UNL     1       2.440   4.839  19.235  0.00  0.00    +0.000 N 
ATOM     19  C   UNL     1       2.374   5.753  18.090  0.00  0.00    +0.000 C 
ATOM     20  C   UNL     1       2.661   7.192  18.534  0.00  0.00    +0.000 C 
ATOM     21  O   UNL     1       1.813   7.583  19.626  0.00  0.00    +0.000 OA
ATOM     22  C   UNL     1       1.984   6.702  20.751  0.00  0.00    +0.000 C 
ATOM     23  C   UNL     1       1.626   5.262  20.375  0.00  0.00    +0.000 C 
ENDBRANCH  15  16
ENDBRANCH  14  15
ENDBRANCH  10  14
TORSDOF 4
ENDMDL
MODEL 8
REMARK VINA RESULT:      -7.3      0.937      1.020
REMARK  Name = 
REMARK  4 active torsions:
REMARK  status: ('A' for Active; 'I' for Inactive)
REMARK    1  A    between atoms: N_1  and  C_2
REMARK    2  A    between atoms: C_11  and  C_12
REMARK    3  A    between atoms: C_12  and  C_13
REMARK    4  A    between atoms: C_13  and  C_14
REMARK                            x       y       z     vdW  Elec       q    Type
REMARK                         _______ _______ _______ _____ _____    ______ ____
ROOT
ATOM      1  C   UNL     1       6.765   5.494  15.988  0.00  0.00    +0.000 A 
ATOM      2  N   UNL     1       7.486   5.575  14.857  0.00  0.00    +0.000 NA
ATOM      3  C   UNL     1       7.100   4.854  13.795  0.00  0.00    +0.000 A 
ATOM      4  C   UNL     1       7.849   4.941  12.630  0.00  0.00    +0.000 A 
ATOM      5  C   UNL     1       7.475   4.252  11.467  0.00  0.00    +0.000 A 
ATOM      6  C   UNL     1       6.331   3.460  11.481  0.00  0.00    +0.000 A 
ATOM      7  C   UNL     1       5.581   3.339  12.648  0.00  0.00    +0.000 A 
ATOM      8  C   UNL     1       5.967   4.022  13.813  0.00  0.00    +0.000 A 
ATOM      9  C   UNL     1       5.247   3.935  15.013  0.00  0.00    +0.000 A 
ATOM     10  C   UNL     1       5.645   4.672  16.135  0.00  0.00    +0.000 A 
ENDROOT
BRANCH   1  11
ATOM     11  N   UNL     1       7.223   6.337  16.999  0.00  0.00    +0.000 N 
ATOM     12  H   UNL     1       7.334   7.247  16.560  0.00  0.00    +0.000 HD
ATOM     13  H   UNL     1       8.139   5.994  17.320  0.00  0.00    +0.000 HD
ENDBRANCH   1  11
BRANCH  10  14
ATOM     14  C   UNL     1       4.833   4.580  17.402  0.00  0.00    +0.000 C 
BRANCH  14  15
ATOM     15  C   UNL     1       3.735   3.515  17.424  0.00  0.00    +0.000 C 
BRANCH  15  16
ATOM     16  C   UNL     1       2.436   3.911  18.104  0.00  0.00    +0.000 C 
ATOM     17  O   UNL     1       1.421   4.200  17.471  0.00  0.00    +0.000 OA
ATOM     18  N   UNL     1       2.436   3.886  19.487  0.00  0.00    +0.000 N 
ATOM     19  C   UNL     1       3.576   3.581  20.357  0.00  0.00    +0.000 C 
ATOM     20  C   UNL     1       3.230   2.434  21.314  0.00  0.00    +0.000 C 
ATOM     21  O   UNL     1       2.017   2.701  22.037  0.00  0.00    +0.000 OA
ATOM     22  C   UNL     1       0.916   2.908  21.133  0.00  0.00    +0.000 C 
ATOM     23  C   UNL     1       1.182   4.100  20.212  0.00  0.00    +0.000 C 
ENDBRANCH  15  16
ENDBRANCH  14  15
ENDBRANCH  10  14
TORSDOF 4
ENDMDL
MODEL 9
REMARK VINA RESULT:      -7.3      5.201      7.476
REMARK  Name = 
REMARK  4 active torsions:
REMARK  status: ('A' for Active; 'I' for Inactive)
REMARK    1  A    between atoms: N_1  and  C_2
REMARK    2  A    between atoms: C_11  and  C_12
REMARK    3  A    between atoms: C_12  and  C_13
REMARK    4  A    between atoms: C_13  and  C_14
REMARK                            x       y       z     vdW  Elec       q    Type
REMARK                         _______ _______ _______ _____ _____    ______ ____
ROOT
ATOM      1  C   UNL     1       1.994   6.844  20.066  0.00  0.00    +0.000 A 
ATOM      2  N   UNL     1       1.674   5.659  20.611  0.00  0.00    +0.000 NA
ATOM      3  C   UNL     1       1.724   4.562  19.843  0.00  0.00    +0.000 A 
ATOM      4  C   UNL     1       1.391   3.341  20.412  0.00  0.00    +0.000 A 
ATOM      5  C   UNL     1       1.468   2.147  19.680  0.00  0.00    +0.000 A 
ATOM      6  C   UNL     1       1.884   2.187  18.353  0.00  0.00    +0.000 A 
ATOM      7  C   UNL     1       2.196   3.405  17.756  0.00  0.00    +0.000 A 
ATOM      8  C   UNL     1       2.106   4.599  18.491  0.00  0.00    +0.000 A 
ATOM      9  C   UNL     1       2.409   5.850  17.938  0.00  0.00    +0.000 A 
ATOM     10  C   UNL     1       2.349   7.008  18.724  0.00  0.00    +0.000 A 
ENDROOT
BRANCH   1  11
ATOM     11  N   UNL     1       1.970   7.899  20.976  0.00  0.00    +0.000 N 
ATOM     12  H   UNL     1       2.722   8.519  20.689  0.00  0.00    +0.000 HD
ATOM     13  H   UNL     1       2.168   7.525  21.915  0.00  0.00    +0.000 HD
ENDBRANCH   1  11
BRANCH  10  14
ATOM     14  C   UNL     1       2.710   8.336  18.109  0.00  0.00    +0.000 C 
BRANCH  14  15
ATOM     15  C   UNL     1       1.541   9.257  17.757  0.00  0.00    +0.000 C 
BRANCH  15  16
ATOM     16  C   UNL     1       1.659  10.696  18.228  0.00  0.00    +0.000 C 
ATOM     17  O   UNL     1       2.624  11.405  17.947  0.00  0.00    +0.000 OA
ATOM     18  N   UNL     1       0.593  11.191  18.959  0.00  0.00    +0.000 N 
ATOM     19  C   UNL     1      -0.601  10.450  19.376  0.00  0.00    +0.000 C 
ATOM     20  C   UNL     1      -1.871  11.162  18.894  0.00  0.00    +0.000 C 
ATOM     21  O   UNL     1      -1.885  12.541  19.297  0.00  0.00    +0.000 OA
ATOM     22  C   UNL     1      -0.734  13.237  18.787  0.00  0.00    +0.000 C 
ATOM     23  C   UNL     1       0.560  12.611  19.312  0.00  0.00    +0.000 C 
ENDBRANCH  15  16
ENDBRANCH  14  15
ENDBRANCH  10  14
TORSDOF 4
ENDMDL
