MODEL 1
REMARK VINA RESULT:      -6.7      0.000      0.000
REMARK  Name = 
REMARK  8 active torsions:
REMARK  status: ('A' for Active; 'I' for Inactive)
REMARK    1  A    between atoms: C_1  and  C_2
REMARK    2  A    between atoms: C_2  and  C_3
REMARK    3  A    between atoms: C_3  and  O_5
REMARK    4  A    between atoms: O_5  and  C_6
REMARK    5  A    between atoms: C_6  and  C_7
REMARK    6  A    between atoms: C_7  and  C_8
REMARK    7  A    between atoms: C_14  and  C_15
REMARK    8  A    between atoms: C_14  and  C_16
REMARK                            x       y       z     vdW  Elec       q    Type
REMARK                         _______ _______ _______ _____ _____    ______ ____
ROOT
ATOM      1  C   UNL     1       3.128   4.430  18.093  0.00  0.00    +0.000 C 
ATOM      2  C   UNL     1       2.984   3.388  17.248  0.00  0.00    +0.000 C 
ATOM      3  C   UNL     1       2.279   2.121  17.686  0.00  0.00    +0.000 C 
ATOM      4  C   UNL     1       1.794   2.284  19.143  0.00  0.00    +0.000 C 
ATOM      5  C   UNL     1       1.048   3.649  19.301  0.00  0.00    +0.000 C 
ATOM      6  C   UNL     1       2.494   4.254  19.454  0.00  0.00    +0.000 C 
ATOM      7  C   UNL     1       2.868   2.874  20.160  0.00  0.00    +0.000 C 
ATOM      8  C   UNL     1       4.305   2.352  20.031  0.00  0.00    +0.000 C 
ATOM      9  C   UNL     1       2.483   2.789  21.651  0.00  0.00    +0.000 C 
ENDROOT
BRANCH   1  10
ATOM     10  C   UNL     1       3.815   5.722  17.748  0.00  0.00    +0.000 C 
BRANCH  10  11
ATOM     11  C   UNL     1       5.308   5.715  18.092  0.00  0.00    +0.000 C 
BRANCH  11  12
ATOM     12  O   UNL     1       5.927   4.458  17.775  0.00  0.00    +0.000 OA
BRANCH  12  13
ATOM     13  C   UNL     1       6.988   4.557  16.932  0.00  0.00    +0.000 C 
ATOM     14  O   UNL     1       8.134   4.230  17.205  0.00  0.00    +0.000 OA
BRANCH  13  16
ATOM     15  C   UNL     1       6.100   4.006  14.674  0.00  0.00    +0.000 C 
ATOM     16  C   UNL     1       6.551   5.122  15.603  0.00  0.00    +0.000 C 
ENDBRANCH  13  16
ENDBRANCH  12  13
ENDBRANCH  11  12
ENDBRANCH  10  11
ENDBRANCH   1  10
TORSDOF 5
ENDMDL
MODEL 2
REMARK VINA RESULT:      -6.7      2.575      5.401
REMARK  Name = 
REMARK  8 active torsions:
REMARK  status: ('A' for Active; 'I' for Inactive)
REMARK    1  A    between atoms: C_1  and  C_2
REMARK    2  A    between atoms: C_2  and  C_3
REMARK    3  A    between atoms: C_3  and  O_5
REMARK    4  A    between atoms: O_5  and  C_6
REMARK    5  A    between atoms: C_6  and  C_7
REMARK    6  A    between atoms: C_7  and  C_8
REMARK    7  A    between atoms: C_14  and  C_15
REMARK    8  A    between atoms: C_14  and  C_16
REMARK                            x       y       z     vdW  Elec       q    Type
REMARK                         _______ _______ _______ _____ _____    ______ ____
ROOT
ATOM      1  C   UNL     1       4.280   3.517  18.253  0.00  0.00    +0.000 C 
ATOM      2  C   UNL     1       5.065   3.923  19.273  0.00  0.00    +0.000 C 
ATOM      3  C   UNL     1       5.725   5.286  19.253  0.00  0.00    +0.000 C 
ATOM      4  C   UNL     1       5.319   6.032  17.964  0.00  0.00    +0.000 C 
ATOM      5  C   UNL     1       3.770   5.947  17.771  0.00  0.00    +0.000 C 
ATOM      6  C   UNL     1       4.073   4.531  17.152  0.00  0.00    +0.000 C 
ATOM      7  C   UNL     1       5.427   5.185  16.620  0.00  0.00    +0.000 C 
ATOM      8  C   UNL     1       6.661   4.285  16.464  0.00  0.00    +0.000 C 
ATOM      9  C   UNL     1       5.282   5.993  15.315  0.00  0.00    +0.000 C 
ENDROOT
BRANCH   1  10
ATOM     10  C   UNL     1       3.590   2.184  18.185  0.00  0.00    +0.000 C 
BRANCH  10  11
ATOM     11  C   UNL     1       2.062   2.300  18.228  0.00  0.00    +0.000 C 
BRANCH  11  12
ATOM     12  O   UNL     1       1.521   1.823  19.470  0.00  0.00    +0.000 OA
BRANCH  12  13
ATOM     13  C   UNL     1       1.637   2.699  20.501  0.00  0.00    +0.000 C 
ATOM     14  O   UNL     1       2.201   2.465  21.560  0.00  0.00    +0.000 OA
BRANCH  13  16
ATOM     15  C   UNL     1       1.768   5.173  20.728  0.00  0.00    +0.000 C 
ATOM     16  C   UNL     1       0.976   4.010  20.153  0.00  0.00    +0.000 C 
ENDBRANCH  13  16
ENDBRANCH  12  13
ENDBRANCH  11  12
ENDBRANCH  10  11
ENDBRANCH   1  10
TORSDOF 5
ENDMDL
MODEL 3
REMARK VINA RESULT:      -6.7      1.621      2.169
REMARK  Name = 
REMARK  8 active torsions:
REMARK  status: ('A' for Active; 'I' for Inactive)
REMARK    1  A    between atoms: C_1  and  C_2
REMARK    2  A    between atoms: C_2  and  C_3
REMARK    3  A    between atoms: C_3  and  O_5
REMARK    4  A    between atoms: O_5  and  C_6
REMARK    5  A    between atoms: C_6  and  C_7
REMARK    6  A    between atoms: C_7  and  C_8
REMARK    7  A    between atoms: C_14  and  C_15
REMARK    8  A    between atoms: C_14  and  C_16
REMARK                            x       y       z     vdW  Elec       q    Type
REMARK                         _______ _______ _______ _____ _____    ______ ____
ROOT
ATOM      1  C   UNL     1       3.656   4.940  17.754  0.00  0.00    +0.000 C 
ATOM      2  C   UNL     1       4.069   3.751  17.270  0.00  0.00    +0.000 C 
ATOM      3  C   UNL     1       3.219   2.507  17.430  0.00  0.00    +0.000 C 
ATOM      4  C   UNL     1       1.911   2.873  18.163  0.00  0.00    +0.000 C 
ATOM      5  C   UNL     1       1.271   4.137  17.501  0.00  0.00    +0.000 C 
ATOM      6  C   UNL     1       2.288   4.939  18.397  0.00  0.00    +0.000 C 
ATOM      7  C   UNL     1       2.084   3.772  19.465  0.00  0.00    +0.000 C 
ATOM      8  C   UNL     1       3.251   3.423  20.399  0.00  0.00    +0.000 C 
ATOM      9  C   UNL     1       0.824   3.916  20.343  0.00  0.00    +0.000 C 
ENDROOT
BRANCH   1  10
ATOM     10  C   UNL     1       4.431   6.223  17.646  0.00  0.00    +0.000 C 
BRANCH  10  11
ATOM     11  C   UNL     1       5.047   6.433  16.259  0.00  0.00    +0.000 C 
BRANCH  11  12
ATOM     12  O   UNL     1       6.393   6.927  16.336  0.00  0.00    +0.000 OA
BRANCH  12  13
ATOM     13  C   UNL     1       7.255   6.097  16.979  0.00  0.00    +0.000 C 
ATOM     14  O   UNL     1       7.584   4.987  16.587  0.00  0.00    +0.000 OA
BRANCH  13  16
ATOM     15  C   UNL     1       7.798   5.730  19.379  0.00  0.00    +0.000 C 
ATOM     16  C   UNL     1       7.758   6.742  18.246  0.00  0.00    +0.000 C 
ENDBRANCH  13  16
ENDBRANCH  12  13
ENDBRANCH  11  12
ENDBRANCH  10  11
ENDBRANCH   1  10
TORSDOF 5
ENDMDL
MODEL 4
REMARK VINA RESULT:      -6.6      2.275      5.184
REMARK  Name = 
REMARK  8 active torsions:
REMARK  status: ('A' for Active; 'I' for Inactive)
REMARK    1  A    between atoms: C_1  and  C_2
REMARK    2  A    between atoms: C_2  and  C_3
REMARK    3  A    between atoms: C_3  and  O_5
REMARK    4  A    between atoms: O_5  and  C_6
REMARK    5  A    between atoms: C_6  and  C_7
REMARK    6  A    between atoms: C_7  and  C_8
REMARK    7  A    between atoms: C_14  and  C_15
REMARK    8  A    between atoms: C_14  and  C_16
REMARK                            x       y       z     vdW  Elec       q    Type
REMARK                         _______ _______ _______ _____ _____    ______ ____
ROOT
ATOM      1  C   UNL     1       3.498   4.516  17.254  0.00  0.00    +0.000 C 
ATOM      2  C   UNL     1       3.121   5.761  17.614  0.00  0.00    +0.000 C 
ATOM      3  C   UNL     1       4.110   6.908  17.599  0.00  0.00    +0.000 C 
ATOM      4  C   UNL     1       5.481   6.395  17.108  0.00  0.00    +0.000 C 
ATOM      5  C   UNL     1       5.292   5.552  15.805  0.00  0.00    +0.000 C 
ATOM      6  C   UNL     1       4.930   4.380  16.791  0.00  0.00    +0.000 C 
ATOM      7  C   UNL     1       5.988   5.045  17.782  0.00  0.00    +0.000 C 
ATOM      8  C   UNL     1       5.767   4.899  19.294  0.00  0.00    +0.000 C 
ATOM      9  C   UNL     1       7.458   4.675  17.497  0.00  0.00    +0.000 C 
ENDROOT
BRANCH   1  10
ATOM     10  C   UNL     1       2.589   3.319  17.242  0.00  0.00    +0.000 C 
BRANCH  10  11
ATOM     11  C   UNL     1       3.095   2.177  18.129  0.00  0.00    +0.000 C 
BRANCH  11  12
ATOM     12  O   UNL     1       2.167   1.858  19.178  0.00  0.00    +0.000 OA
BRANCH  12  13
ATOM     13  C   UNL     1       2.360   2.559  20.325  0.00  0.00    +0.000 C 
ATOM     14  O   UNL     1       3.389   2.554  20.985  0.00  0.00    +0.000 OA
BRANCH  13  16
ATOM     15  C   UNL     1       1.427   4.843  20.639  0.00  0.00    +0.000 C 
ATOM     16  C   UNL     1       1.125   3.354  20.669  0.00  0.00    +0.000 C 
ENDBRANCH  13  16
ENDBRANCH  12  13
ENDBRANCH  11  12
ENDBRANCH  10  11
ENDBRANCH   1  10
TORSDOF 5
ENDMDL
MODEL 5
REMARK VINA RESULT:      -6.6      1.311      2.395
REMARK  Name = 
REMARK  8 active torsions:
REMARK  status: ('A' for Active; 'I' for Inactive)
REMARK    1  A    between atoms: C_1  and  C_2
REMARK    2  A    between atoms: C_2  and  C_3
REMARK    3  A    between atoms: C_3  and  O_5
REMARK    4  A    between atoms: O_5  and  C_6
REMARK    5  A    between atoms: C_6  and  C_7
REMARK    6  A    between atoms: C_7  and  C_8
REMARK    7  A    between atoms: C_14  and  C_15
REMARK    8  A    between atoms: C_14  and  C_16
REMARK                            x       y       z     vdW  Elec       q    Type
REMARK                         _______ _______ _______ _____ _____    ______ ____
ROOT
ATOM      1  C   UNL     1       3.916   4.376  19.512  0.00  0.00    +0.000 C 
ATOM      2  C   UNL     1       3.455   5.608  19.813  0.00  0.00    +0.000 C 
ATOM      3  C   UNL     1       2.018   5.817  20.246  0.00  0.00    +0.000 C 
ATOM      4  C   UNL     1       1.294   4.455  20.289  0.00  0.00    +0.000 C 
ATOM      5  C   UNL     1       2.167   3.417  21.067  0.00  0.00    +0.000 C 
ATOM      6  C   UNL     1       2.925   3.250  19.697  0.00  0.00    +0.000 C 
ATOM      7  C   UNL     1       1.510   3.524  19.015  0.00  0.00    +0.000 C 
ATOM      8  C   UNL     1       1.480   4.209  17.642  0.00  0.00    +0.000 C 
ATOM      9  C   UNL     1       0.586   2.292  18.931  0.00  0.00    +0.000 C 
ENDROOT
BRANCH   1  10
ATOM     10  C   UNL     1       5.321   4.074  19.071  0.00  0.00    +0.000 C 
BRANCH  10  11
ATOM     11  C   UNL     1       6.204   5.324  18.995  0.00  0.00    +0.000 C 
BRANCH  11  12
ATOM     12  O   UNL     1       6.504   5.690  17.639  0.00  0.00    +0.000 OA
BRANCH  12  13
ATOM     13  C   UNL     1       7.299   4.804  16.986  0.00  0.00    +0.000 C 
ATOM     14  O   UNL     1       8.235   4.198  17.488  0.00  0.00    +0.000 OA
BRANCH  13  16
ATOM     15  C   UNL     1       5.437   5.169  15.377  0.00  0.00    +0.000 C 
ATOM     16  C   UNL     1       6.860   4.665  15.549  0.00  0.00    +0.000 C 
ENDBRANCH  13  16
ENDBRANCH  12  13
ENDBRANCH  11  12
ENDBRANCH  10  11
ENDBRANCH   1  10
TORSDOF 5
ENDMDL
MODEL 6
REMARK VINA RESULT:      -6.6      1.418      2.182
REMARK  Name = 
REMARK  8 active torsions:
REMARK  status: ('A' for Active; 'I' for Inactive)
REMARK    1  A    between atoms: C_1  and  C_2
REMARK    2  A    between atoms: C_2  and  C_3
REMARK    3  A    between atoms: C_3  and  O_5
REMARK    4  A    between atoms: O_5  and  C_6
REMARK    5  A    between atoms: C_6  and  C_7
REMARK    6  A    between atoms: C_7  and  C_8
REMARK    7  A    between atoms: C_14  and  C_15
REMARK    8  A    between atoms: C_14  and  C_16
REMARK                            x       y       z     vdW  Elec       q    Type
REMARK                         _______ _______ _______ _____ _____    ______ ____
ROOT
ATOM      1  C   UNL     1       3.583   5.027  18.321  0.00  0.00    +0.000 C 
ATOM      2  C   UNL     1       4.558   4.486  19.080  0.00  0.00    +0.000 C 
ATOM      3  C   UNL     1       4.470   3.050  19.554  0.00  0.00    +0.000 C 
ATOM      4  C   UNL     1       3.175   2.411  19.011  0.00  0.00    +0.000 C 
ATOM      5  C   UNL     1       3.044   2.704  17.480  0.00  0.00    +0.000 C 
ATOM      6  C   UNL     1       2.458   4.089  17.945  0.00  0.00    +0.000 C 
ATOM      7  C   UNL     1       1.855   3.285  19.183  0.00  0.00    +0.000 C 
ATOM      8  C   UNL     1       1.681   4.022  20.518  0.00  0.00    +0.000 C 
ATOM      9  C   UNL     1       0.531   2.551  18.890  0.00  0.00    +0.000 C 
ENDROOT
BRANCH   1  10
ATOM     10  C   UNL     1       3.583   6.440  17.809  0.00  0.00    +0.000 C 
BRANCH  10  11
ATOM     11  C   UNL     1       4.938   6.866  17.234  0.00  0.00    +0.000 C 
BRANCH  11  12
ATOM     12  O   UNL     1       5.074   6.504  15.851  0.00  0.00    +0.000 OA
BRANCH  12  13
ATOM     13  C   UNL     1       6.074   5.621  15.602  0.00  0.00    +0.000 C 
ATOM     14  O   UNL     1       7.266   5.853  15.742  0.00  0.00    +0.000 OA
BRANCH  13  16
ATOM     15  C   UNL     1       6.163   3.875  13.832  0.00  0.00    +0.000 C 
ATOM     16  C   UNL     1       5.507   4.303  15.134  0.00  0.00    +0.000 C 
ENDBRANCH  13  16
ENDBRANCH  12  13
ENDBRANCH  11  12
ENDBRANCH  10  11
ENDBRANCH   1  10
TORSDOF 5
ENDMDL
MODEL 7
REMARK VINA RESULT:      -6.6      1.913      3.054
REMARK  Name = 
REMARK  8 active torsions:
REMARK  status: ('A' for Active; 'I' for Inactive)
REMARK    1  A    between atoms: C_1  and  C_2
REMARK    2  A    between atoms: C_2  and  C_3
REMARK    3  A    between atoms: C_3  and  O_5
REMARK    4  A    between atoms: O_5  and  C_6
REMARK    5  A    between atoms: C_6  and  C_7
REMARK    6  A    between atoms: C_7  and  C_8
REMARK    7  A    between atoms: C_14  and  C_15
REMARK    8  A    between atoms: C_14  and  C_16
REMARK                            x       y       z     vdW  Elec       q    Type
REMARK                         _______ _______ _______ _____ _____    ______ ____
ROOT
ATOM      1  C   UNL     1       3.850   4.694  19.530  0.00  0.00    +0.000 C 
ATOM      2  C   UNL     1       3.230   5.816  19.950  0.00  0.00    +0.000 C 
ATOM      3  C   UNL     1       1.799   5.777  20.446  0.00  0.00    +0.000 C 
ATOM      4  C   UNL     1       1.280   4.324  20.394  0.00  0.00    +0.000 C 
ATOM      5  C   UNL     1       2.327   3.366  21.051  0.00  0.00    +0.000 C 
ATOM      6  C   UNL     1       3.040   3.423  19.649  0.00  0.00    +0.000 C 
ATOM      7  C   UNL     1       1.571   3.540  19.039  0.00  0.00    +0.000 C 
ATOM      8  C   UNL     1       1.383   4.322  17.732  0.00  0.00    +0.000 C 
ATOM      9  C   UNL     1       0.832   2.197  18.879  0.00  0.00    +0.000 C 
ENDROOT
BRANCH   1  10
ATOM     10  C   UNL     1       5.262   4.638  19.019  0.00  0.00    +0.000 C 
BRANCH  10  11
ATOM     11  C   UNL     1       5.387   5.087  17.559  0.00  0.00    +0.000 C 
BRANCH  11  12
ATOM     12  O   UNL     1       5.862   6.438  17.451  0.00  0.00    +0.000 OA
BRANCH  12  13
ATOM     13  C   UNL     1       7.169   6.543  17.097  0.00  0.00    +0.000 C 
ATOM     14  O   UNL     1       7.643   6.152  16.041  0.00  0.00    +0.000 OA
BRANCH  13  16
ATOM     15  C   UNL     1       8.106   8.704  17.898  0.00  0.00    +0.000 C 
ATOM     16  C   UNL     1       7.956   7.220  18.191  0.00  0.00    +0.000 C 
ENDBRANCH  13  16
ENDBRANCH  12  13
ENDBRANCH  11  12
ENDBRANCH  10  11
ENDBRANCH   1  10
TORSDOF 5
ENDMDL
MODEL 8
REMARK VINA RESULT:      -6.6      1.643      3.053
REMARK  Name = 
REMARK  8 active torsions:
REMARK  status: ('A' for Active; 'I' for Inactive)
REMARK    1  A    between atoms: C_1  and  C_2
REMARK    2  A    between atoms: C_2  and  C_3
REMARK    3  A    between atoms: C_3  and  O_5
REMARK    4  A    between atoms: O_5  and  C_6
REMARK    5  A    between atoms: C_6  and  C_7
REMARK    6  A    between atoms: C_7  and  C_8
REMARK    7  A    between atoms: C_14  and  C_15
REMARK    8  A    between atoms: C_14  and  C_16
REMARK                            x       y       z     vdW  Elec       q    Type
REMARK                         _______ _______ _______ _____ _____    ______ ____
ROOT
ATOM      1  C   UNL     1       4.316   4.705  17.129  0.00  0.00    +0.000 C 
ATOM      2  C   UNL     1       4.061   5.868  17.764  0.00  0.00    +0.000 C 
ATOM      3  C   UNL     1       3.392   5.883  19.124  0.00  0.00    +0.000 C 
ATOM      4  C   UNL     1       3.125   4.432  19.578  0.00  0.00    +0.000 C 
ATOM      5  C   UNL     1       4.418   3.573  19.388  0.00  0.00    +0.000 C 
ATOM      6  C   UNL     1       3.943   3.454  17.892  0.00  0.00    +0.000 C 
ATOM      7  C   UNL     1       2.462   3.483  18.484  0.00  0.00    +0.000 C 
ATOM      8  C   UNL     1       1.344   4.089  17.626  0.00  0.00    +0.000 C 
ATOM      9  C   UNL     1       1.953   2.125  19.007  0.00  0.00    +0.000 C 
ENDROOT
BRANCH   1  10
ATOM     10  C   UNL     1       4.970   4.593  15.781  0.00  0.00    +0.000 C 
BRANCH  10  11
ATOM     11  C   UNL     1       6.491   4.435  15.867  0.00  0.00    +0.000 C 
BRANCH  11  12
ATOM     12  O   UNL     1       7.171   5.696  15.765  0.00  0.00    +0.000 OA
BRANCH  12  13
ATOM     13  C   UNL     1       7.483   6.260  16.960  0.00  0.00    +0.000 C 
ATOM     14  O   UNL     1       7.566   7.461  17.170  0.00  0.00    +0.000 OA
BRANCH  13  16
ATOM     15  C   UNL     1       7.500   5.756  19.397  0.00  0.00    +0.000 C 
ATOM     16  C   UNL     1       7.708   5.191  18.001  0.00  0.00    +0.000 C 
ENDBRANCH  13  16
ENDBRANCH  12  13
ENDBRANCH  11  12
ENDBRANCH  10  11
ENDBRANCH   1  10
TORSDOF 5
ENDMDL
MODEL 9
REMARK VINA RESULT:      -6.6      1.131      1.348
REMARK  Name = 
REMARK  8 active torsions:
REMARK  status: ('A' for Active; 'I' for Inactive)
REMARK    1  A    between atoms: C_1  and  C_2
REMARK    2  A    between atoms: C_2  and  C_3
REMARK    3  A    between atoms: C_3  and  O_5
REMARK    4  A    between atoms: O_5  and  C_6
REMARK    5  A    between atoms: C_6  and  C_7
REMARK    6  A    between atoms: C_7  and  C_8
REMARK    7  A    between atoms: C_14  and  C_15
REMARK    8  A    between atoms: C_14  and  C_16
REMARK                            x       y       z     vdW  Elec       q    Type
REMARK                         _______ _______ _______ _____ _____    ______ ____
ROOT
ATOM      1  C   UNL     1       3.603   5.134  18.764  0.00  0.00    +0.000 C 
ATOM      2  C   UNL     1       2.775   4.853  17.736  0.00  0.00    +0.000 C 
ATOM      3  C   UNL     1       1.463   4.132  17.967  0.00  0.00    +0.000 C 
ATOM      4  C   UNL     1       1.293   3.850  19.475  0.00  0.00    +0.000 C 
ATOM      5  C   UNL     1       1.588   5.151  20.292  0.00  0.00    +0.000 C 
ATOM      6  C   UNL     1       3.097   4.734  20.131  0.00  0.00    +0.000 C 
ATOM      7  C   UNL     1       2.568   3.231  20.203  0.00  0.00    +0.000 C 
ATOM      8  C   UNL     1       3.342   2.146  19.443  0.00  0.00    +0.000 C 
ATOM      9  C   UNL     1       2.323   2.703  21.631  0.00  0.00    +0.000 C 
ENDROOT
BRANCH   1  10
ATOM     10  C   UNL     1       4.922   5.840  18.629  0.00  0.00    +0.000 C 
BRANCH  10  11
ATOM     11  C   UNL     1       6.102   4.875  18.471  0.00  0.00    +0.000 C 
BRANCH  11  12
ATOM     12  O   UNL     1       6.244   4.417  17.117  0.00  0.00    +0.000 OA
BRANCH  12  13
ATOM     13  C   UNL     1       6.579   5.391  16.231  0.00  0.00    +0.000 C 
ATOM     14  O   UNL     1       7.526   6.154  16.353  0.00  0.00    +0.000 OA
BRANCH  13  16
ATOM     15  C   UNL     1       5.785   4.130  14.239  0.00  0.00    +0.000 C 
ATOM     16  C   UNL     1       5.620   5.394  15.067  0.00  0.00    +0.000 C 
ENDBRANCH  13  16
ENDBRANCH  12  13
ENDBRANCH  11  12
ENDBRANCH  10  11
ENDBRANCH   1  10
TORSDOF 5
ENDMDL
