MODEL 1
REMARK VINA RESULT:      -7.2      0.000      0.000
REMARK  Name = 
REMARK  8 active torsions:
REMARK  status: ('A' for Active; 'I' for Inactive)
REMARK    1  A    between atoms: C_1  and  C_2
REMARK    2  A    between atoms: C_2  and  C_3
REMARK    3  A    between atoms: C_2  and  N_9
REMARK    4  A    between atoms: N_9  and  C_10
REMARK    5  A    between atoms: C_10  and  C_11
REMARK    6  A    between atoms: C_11  and  O_12
REMARK    7  A    between atoms: N_16  and  C_17
REMARK    8  A    between atoms: C_23  and  C_24
REMARK                            x       y       z     vdW  Elec       q    Type
REMARK                         _______ _______ _______ _____ _____    ______ ____
ROOT
ATOM      1  N   UNL     1      -0.884  13.097  20.574  0.00  0.00    +0.000 N 
ATOM      2  C   UNL     1      -1.178  12.303  19.461  0.00  0.00    +0.000 A 
ATOM      3  N   UNL     1      -0.210  11.373  19.077  0.00  0.00    +0.000 NA
ATOM      4  C   UNL     1      -0.461  10.501  18.148  0.00  0.00    +0.000 A 
ATOM      5  N   UNL     1       0.380   9.493  17.713  0.00  0.00    +0.000 N 
ATOM      6  N   UNL     1      -1.704  10.573  17.517  0.00  0.00    +0.000 N 
ATOM      7  N   UNL     1      -2.097   9.725  16.537  0.00  0.00    +0.000 NA
ATOM      8  C   UNL     1      -3.333  10.163  16.267  0.00  0.00    +0.000 A 
ATOM      9  C   UNL     1      -3.740  11.229  17.106  0.00  0.00    +0.000 A 
ATOM     10  C   UNL     1      -2.623  11.520  17.859  0.00  0.00    +0.000 A 
ATOM     11  N   UNL     1      -2.321  12.418  18.827  0.00  0.00    +0.000 NA
ATOM     12  H   UNL     1      -0.032   8.839  17.050  0.00  0.00    +0.000 HD
ENDROOT
BRANCH   9  13
ATOM     13  C   UNL     1      -5.001  11.889  17.189  0.00  0.00    +0.000 C 
ATOM     14  C   UNL     1      -5.931  11.699  18.140  0.00  0.00    +0.000 C 
ATOM     15  N   UNL     1      -5.877  10.887  19.236  0.00  0.00    +0.000 N 
ATOM     16  C   UNL     1      -7.029  11.009  19.980  0.00  0.00    +0.000 C 
ATOM     17  O   UNL     1      -7.271  10.437  21.032  0.00  0.00    +0.000 OA
ATOM     18  N   UNL     1      -7.851  11.908  19.337  0.00  0.00    +0.000 N 
ATOM     19  C   UNL     1      -7.256  12.396  18.210  0.00  0.00    +0.000 C 
ATOM     20  O   UNL     1      -7.702  13.219  17.437  0.00  0.00    +0.000 OA
ATOM     21  H   UNL     1      -5.101  10.323  19.536  0.00  0.00    +0.000 HD
ATOM     22  H   UNL     1      -8.739  12.193  19.687  0.00  0.00    +0.000 HD
ENDBRANCH   9  13
BRANCH   5  23
ATOM     23  C   UNL     1       1.730   9.322  18.216  0.00  0.00    +0.000 C 
ATOM     24  C   UNL     1       2.104   8.153  19.083  0.00  0.00    +0.000 C 
ATOM     25  C   UNL     1       2.609   8.222  17.673  0.00  0.00    +0.000 C 
ENDBRANCH   5  23
BRANCH   1  27
ATOM     26  C   UNL     1      -1.148  15.285  21.807  0.00  0.00    +0.000 C 
ATOM     27  C   UNL     1      -1.853  14.085  21.130  0.00  0.00    +0.000 C 
BRANCH  27  28
ATOM     28  C   UNL     1      -2.926  13.503  22.066  0.00  0.00    +0.000 A 
ATOM     29  C   UNL     1      -2.652  13.038  23.357  0.00  0.00    +0.000 A 
ATOM     30  C   UNL     1      -3.687  12.626  24.206  0.00  0.00    +0.000 A 
ATOM     31  C   UNL     1      -5.012  12.652  23.777  0.00  0.00    +0.000 A 
ATOM     32  C   UNL     1      -5.306  13.048  22.480  0.00  0.00    +0.000 A 
ATOM     33  C   UNL     1      -4.273  13.446  21.628  0.00  0.00    +0.000 A 
ENDBRANCH  27  28
ENDBRANCH   1  27
BRANCH   1  34
ATOM     34  C   UNL     1       0.345  12.703  21.313  0.00  0.00    +0.000 C 
BRANCH  34  35
ATOM     35  C   UNL     1       1.695  13.318  20.962  0.00  0.00    +0.000 C 
BRANCH  35  36
ATOM     36  O   UNL     1       2.153  14.199  21.980  0.00  0.00    +0.000 OA
ATOM     37  H   UNL     1       2.540  14.973  21.537  0.00  0.00    +0.000 HD
ENDBRANCH  35  36
ENDBRANCH  34  35
ENDBRANCH   1  34
TORSDOF 7
ENDMDL
MODEL 2
REMARK VINA RESULT:      -7.2      2.458      5.040
REMARK  Name = 
REMARK  8 active torsions:
REMARK  status: ('A' for Active; 'I' for Inactive)
REMARK    1  A    between atoms: C_1  and  C_2
REMARK    2  A    between atoms: C_2  and  C_3
REMARK    3  A    between atoms: C_2  and  N_9
REMARK    4  A    between atoms: N_9  and  C_10
REMARK    5  A    between atoms: C_10  and  C_11
REMARK    6  A    between atoms: C_11  and  O_12
REMARK    7  A    between atoms: N_16  and  C_17
REMARK    8  A    between atoms: C_23  and  C_24
REMARK                            x       y       z     vdW  Elec       q    Type
REMARK                         _______ _______ _______ _____ _____    ______ ____
ROOT
ATOM      1  N   UNL     1      -4.192  10.700  17.475  0.00  0.00    +0.000 N 
ATOM      2  C   UNL     1      -3.279  11.140  18.438  0.00  0.00    +0.000 A 
ATOM      3  N   UNL     1      -1.979  10.639  18.350  0.00  0.00    +0.000 NA
ATOM      4  C   UNL     1      -1.036  11.104  19.112  0.00  0.00    +0.000 A 
ATOM      5  N   UNL     1       0.298  10.741  19.090  0.00  0.00    +0.000 N 
ATOM      6  N   UNL     1      -1.389  12.072  20.054  0.00  0.00    +0.000 N 
ATOM      7  N   UNL     1      -0.507  12.643  20.908  0.00  0.00    +0.000 NA
ATOM      8  C   UNL     1      -1.286  13.498  21.583  0.00  0.00    +0.000 A 
ATOM      9  C   UNL     1      -2.624  13.514  21.120  0.00  0.00    +0.000 A 
ATOM     10  C   UNL     1      -2.673  12.515  20.173  0.00  0.00    +0.000 A 
ATOM     11  N   UNL     1      -3.630  12.000  19.365  0.00  0.00    +0.000 NA
ATOM     12  H   UNL     1       0.909  11.293  19.690  0.00  0.00    +0.000 HD
ENDROOT
BRANCH   9  13
ATOM     13  C   UNL     1      -3.712  14.347  21.516  0.00  0.00    +0.000 C 
ATOM     14  C   UNL     1      -4.761  13.973  22.267  0.00  0.00    +0.000 C 
ATOM     15  N   UNL     1      -5.008  12.761  22.845  0.00  0.00    +0.000 N 
ATOM     16  C   UNL     1      -6.180  12.802  23.564  0.00  0.00    +0.000 C 
ATOM     17  O   UNL     1      -6.656  11.887  24.218  0.00  0.00    +0.000 OA
ATOM     18  N   UNL     1      -6.710  14.066  23.431  0.00  0.00    +0.000 N 
ATOM     19  C   UNL     1      -5.901  14.858  22.669  0.00  0.00    +0.000 C 
ATOM     20  O   UNL     1      -6.069  16.027  22.383  0.00  0.00    +0.000 OA
ATOM     21  H   UNL     1      -4.412  11.951  22.835  0.00  0.00    +0.000 HD
ATOM     22  H   UNL     1      -7.547  14.364  23.881  0.00  0.00    +0.000 HD
ENDBRANCH   9  13
BRANCH   5  23
ATOM     23  C   UNL     1       0.818   9.703  18.219  0.00  0.00    +0.000 C 
ATOM     24  C   UNL     1       2.261   9.675  17.804  0.00  0.00    +0.000 C 
ATOM     25  C   UNL     1       1.746   8.647  18.766  0.00  0.00    +0.000 C 
ENDBRANCH   5  23
BRANCH   1  27
ATOM     26  C   UNL     1      -5.665  12.718  17.107  0.00  0.00    +0.000 C 
ATOM     27  C   UNL     1      -5.594  11.203  17.414  0.00  0.00    +0.000 C 
BRANCH  27  28
ATOM     28  C   UNL     1      -6.469  10.868  18.635  0.00  0.00    +0.000 A 
ATOM     29  C   UNL     1      -6.705   9.562  19.079  0.00  0.00    +0.000 A 
ATOM     30  C   UNL     1      -7.413   9.324  20.263  0.00  0.00    +0.000 A 
ATOM     31  C   UNL     1      -7.917  10.382  21.016  0.00  0.00    +0.000 A 
ATOM     32  C   UNL     1      -7.752  11.685  20.566  0.00  0.00    +0.000 A 
ATOM     33  C   UNL     1      -7.057  11.922  19.378  0.00  0.00    +0.000 A 
ENDBRANCH  27  28
ENDBRANCH   1  27
BRANCH   1  34
ATOM     34  C   UNL     1      -3.596   9.904  16.369  0.00  0.00    +0.000 C 
BRANCH  34  35
ATOM     35  C   UNL     1      -3.440  10.500  14.975  0.00  0.00    +0.000 C 
BRANCH  35  36
ATOM     36  O   UNL     1      -4.390   9.962  14.063  0.00  0.00    +0.000 OA
ATOM     37  H   UNL     1      -4.114  10.232  13.170  0.00  0.00    +0.000 HD
ENDBRANCH  35  36
ENDBRANCH  34  35
ENDBRANCH   1  34
TORSDOF 7
ENDMDL
MODEL 3
REMARK VINA RESULT:      -7.1      0.840      1.031
REMARK  Name = 
REMARK  8 active torsions:
REMARK  status: ('A' for Active; 'I' for Inactive)
REMARK    1  A    between atoms: C_1  and  C_2
REMARK    2  A    between atoms: C_2  and  C_3
REMARK    3  A    between atoms: C_2  and  N_9
REMARK    4  A    between atoms: N_9  and  C_10
REMARK    5  A    between atoms: C_10  and  C_11
REMARK    6  A    between atoms: C_11  and  O_12
REMARK    7  A    between atoms: N_16  and  C_17
REMARK    8  A    between atoms: C_23  and  C_24
REMARK                            x       y       z     vdW  Elec       q    Type
REMARK                         _______ _______ _______ _____ _____    ______ ____
ROOT
ATOM      1  N   UNL     1      -0.874  13.260  20.472  0.00  0.00    +0.000 N 
ATOM      2  C   UNL     1      -1.191  12.415  19.403  0.00  0.00    +0.000 A 
ATOM      3  N   UNL     1      -0.233  11.463  19.048  0.00  0.00    +0.000 NA
ATOM      4  C   UNL     1      -0.504  10.549  18.166  0.00  0.00    +0.000 A 
ATOM      5  N   UNL     1       0.326   9.517  17.765  0.00  0.00    +0.000 N 
ATOM      6  N   UNL     1      -1.758  10.596  17.554  0.00  0.00    +0.000 N 
ATOM      7  N   UNL     1      -2.171   9.704  16.623  0.00  0.00    +0.000 NA
ATOM      8  C   UNL     1      -3.410  10.134  16.354  0.00  0.00    +0.000 A 
ATOM      9  C   UNL     1      -3.797  11.241  17.148  0.00  0.00    +0.000 A 
ATOM     10  C   UNL     1      -2.666  11.563  17.866  0.00  0.00    +0.000 A 
ATOM     11  N   UNL     1      -2.344  12.505  18.784  0.00  0.00    +0.000 NA
ATOM     12  H   UNL     1      -0.101   8.834  17.142  0.00  0.00    +0.000 HD
ENDROOT
BRANCH   9  13
ATOM     13  C   UNL     1      -5.055  11.911  17.221  0.00  0.00    +0.000 C 
ATOM     14  C   UNL     1      -5.828  12.022  18.314  0.00  0.00    +0.000 C 
ATOM     15  N   UNL     1      -5.586  11.572  19.580  0.00  0.00    +0.000 N 
ATOM     16  C   UNL     1      -6.618  11.922  20.419  0.00  0.00    +0.000 C 
ATOM     17  O   UNL     1      -6.684  11.691  21.617  0.00  0.00    +0.000 OA
ATOM     18  N   UNL     1      -7.557  12.599  19.671  0.00  0.00    +0.000 N 
ATOM     19  C   UNL     1      -7.151  12.723  18.374  0.00  0.00    +0.000 C 
ATOM     20  O   UNL     1      -7.734  13.285  17.468  0.00  0.00    +0.000 OA
ATOM     21  H   UNL     1      -4.755  11.113  19.913  0.00  0.00    +0.000 HD
ATOM     22  H   UNL     1      -8.392  12.984  20.051  0.00  0.00    +0.000 HD
ENDBRANCH   9  13
BRANCH   5  23
ATOM     23  C   UNL     1       1.683   9.363  18.253  0.00  0.00    +0.000 C 
ATOM     24  C   UNL     1       2.095   8.174  19.073  0.00  0.00    +0.000 C 
ATOM     25  C   UNL     1       2.587   8.308  17.663  0.00  0.00    +0.000 C 
ENDBRANCH   5  23
BRANCH   1  27
ATOM     26  C   UNL     1      -1.171  15.668  21.171  0.00  0.00    +0.000 C 
ATOM     27  C   UNL     1      -1.829  14.278  20.996  0.00  0.00    +0.000 C 
BRANCH  27  28
ATOM     28  C   UNL     1      -2.579  13.881  22.279  0.00  0.00    +0.000 A 
ATOM     29  C   UNL     1      -3.157  12.622  22.475  0.00  0.00    +0.000 A 
ATOM     30  C   UNL     1      -3.727  12.277  23.707  0.00  0.00    +0.000 A 
ATOM     31  C   UNL     1      -3.749  13.189  24.760  0.00  0.00    +0.000 A 
ATOM     32  C   UNL     1      -3.240  14.466  24.573  0.00  0.00    +0.000 A 
ATOM     33  C   UNL     1      -2.684  14.814  23.340  0.00  0.00    +0.000 A 
ENDBRANCH  27  28
ENDBRANCH   1  27
BRANCH   1  34
ATOM     34  C   UNL     1       0.366  12.896  21.207  0.00  0.00    +0.000 C 
BRANCH  34  35
ATOM     35  C   UNL     1       1.691  13.579  20.884  0.00  0.00    +0.000 C 
BRANCH  35  36
ATOM     36  O   UNL     1       2.339  12.972  19.772  0.00  0.00    +0.000 OA
ATOM     37  H   UNL     1       2.720  13.689  19.237  0.00  0.00    +0.000 HD
ENDBRANCH  35  36
ENDBRANCH  34  35
ENDBRANCH   1  34
TORSDOF 7
ENDMDL
MODEL 4
REMARK VINA RESULT:      -6.9      1.535      2.066
REMARK  Name = 
REMARK  8 active torsions:
REMARK  status: ('A' for Active; 'I' for Inactive)
REMARK    1  A    between atoms: C_1  and  C_2
REMARK    2  A    between atoms: C_2  and  C_3
REMARK    3  A    between atoms: C_2  and  N_9
REMARK    4  A    between atoms: N_9  and  C_10
REMARK    5  A    between atoms: C_10  and  C_11
REMARK    6  A    between atoms: C_11  and  O_12
REMARK    7  A    between atoms: N_16  and  C_17
REMARK    8  A    between atoms: C_23  and  C_24
REMARK                            x       y       z     vdW  Elec       q    Type
REMARK                         _______ _______ _______ _____ _____    ______ ____
ROOT
ATOM      1  N   UNL     1      -1.670  11.994  21.491  0.00  0.00    +0.000 N 
ATOM      2  C   UNL     1      -1.727  11.683  20.129  0.00  0.00    +0.000 A 
ATOM      3  N   UNL     1      -0.638  10.990  19.595  0.00  0.00    +0.000 NA
ATOM      4  C   UNL     1      -0.674  10.537  18.379  0.00  0.00    +0.000 A 
ATOM      5  N   UNL     1       0.305   9.791  17.747  0.00  0.00    +0.000 N 
ATOM      6  N   UNL     1      -1.810  10.821  17.619  0.00  0.00    +0.000 N 
ATOM      7  N   UNL     1      -1.979  10.407  16.341  0.00  0.00    +0.000 NA
ATOM      8  C   UNL     1      -3.193  10.890  16.049  0.00  0.00    +0.000 A 
ATOM      9  C   UNL     1      -3.808  11.543  17.145  0.00  0.00    +0.000 A 
ATOM     10  C   UNL     1      -2.845  11.546  18.130  0.00  0.00    +0.000 A 
ATOM     11  N   UNL     1      -2.767  12.010  19.400  0.00  0.00    +0.000 NA
ATOM     12  H   UNL     1       0.052   9.432  16.827  0.00  0.00    +0.000 HD
ENDROOT
BRANCH   9  13
ATOM     13  C   UNL     1      -5.118  12.096  17.254  0.00  0.00    +0.000 C 
ATOM     14  C   UNL     1      -6.010  11.830  18.223  0.00  0.00    +0.000 C 
ATOM     15  N   UNL     1      -5.866  11.027  19.317  0.00  0.00    +0.000 N 
ATOM     16  C   UNL     1      -7.008  11.052  20.084  0.00  0.00    +0.000 C 
ATOM     17  O   UNL     1      -7.181  10.463  21.140  0.00  0.00    +0.000 OA
ATOM     18  N   UNL     1      -7.916  11.879  19.459  0.00  0.00    +0.000 N 
ATOM     19  C   UNL     1      -7.387  12.413  18.320  0.00  0.00    +0.000 C 
ATOM     20  O   UNL     1      -7.916  13.196  17.557  0.00  0.00    +0.000 OA
ATOM     21  H   UNL     1      -5.040  10.530  19.601  0.00  0.00    +0.000 HD
ATOM     22  H   UNL     1      -8.817  12.089  19.827  0.00  0.00    +0.000 HD
ENDBRANCH   9  13
BRANCH   5  23
ATOM     23  C   UNL     1       1.573   9.466  18.371  0.00  0.00    +0.000 C 
ATOM     24  C   UNL     1       1.739   8.243  19.228  0.00  0.00    +0.000 C 
ATOM     25  C   UNL     1       2.385   8.293  17.877  0.00  0.00    +0.000 C 
ENDBRANCH   5  23
BRANCH   1  27
ATOM     26  C   UNL     1      -3.773  13.366  21.229  0.00  0.00    +0.000 C 
ATOM     27  C   UNL     1      -2.790  12.673  22.203  0.00  0.00    +0.000 C 
BRANCH  27  28
ATOM     28  C   UNL     1      -2.369  13.649  23.316  0.00  0.00    +0.000 A 
ATOM     29  C   UNL     1      -1.182  14.389  23.283  0.00  0.00    +0.000 A 
ATOM     30  C   UNL     1      -0.906  15.348  24.266  0.00  0.00    +0.000 A 
ATOM     31  C   UNL     1      -1.799  15.572  25.311  0.00  0.00    +0.000 A 
ATOM     32  C   UNL     1      -2.954  14.808  25.403  0.00  0.00    +0.000 A 
ATOM     33  C   UNL     1      -3.222  13.842  24.430  0.00  0.00    +0.000 A 
ENDBRANCH  27  28
ENDBRANCH   1  27
BRANCH   1  34
ATOM     34  C   UNL     1      -0.536  11.371  22.226  0.00  0.00    +0.000 C 
BRANCH  34  35
ATOM     35  C   UNL     1      -0.758  10.149  23.110  0.00  0.00    +0.000 C 
BRANCH  35  36
ATOM     36  O   UNL     1       0.446   9.730  23.741  0.00  0.00    +0.000 OA
ATOM     37  H   UNL     1       1.181  10.153  23.265  0.00  0.00    +0.000 HD
ENDBRANCH  35  36
ENDBRANCH  34  35
ENDBRANCH   1  34
TORSDOF 7
ENDMDL
MODEL 5
REMARK VINA RESULT:      -6.9      2.218      5.842
REMARK  Name = 
REMARK  8 active torsions:
REMARK  status: ('A' for Active; 'I' for Inactive)
REMARK    1  A    between atoms: C_1  and  C_2
REMARK    2  A    between atoms: C_2  and  C_3
REMARK    3  A    between atoms: C_2  and  N_9
REMARK    4  A    between atoms: N_9  and  C_10
REMARK    5  A    between atoms: C_10  and  C_11
REMARK    6  A    between atoms: C_11  and  O_12
REMARK    7  A    between atoms: N_16  and  C_17
REMARK    8  A    between atoms: C_23  and  C_24
REMARK                            x       y       z     vdW  Elec       q    Type
REMARK                         _______ _______ _______ _____ _____    ______ ____
ROOT
ATOM      1  N   UNL     1      -1.045  12.386  19.217  0.00  0.00    +0.000 N 
ATOM      2  C   UNL     1      -1.684  13.344  20.012  0.00  0.00    +0.000 A 
ATOM      3  N   UNL     1      -1.111  14.616  20.048  0.00  0.00    +0.000 NA
ATOM      4  C   UNL     1      -1.718  15.599  20.642  0.00  0.00    +0.000 A 
ATOM      5  N   UNL     1      -1.293  16.914  20.703  0.00  0.00    +0.000 N 
ATOM      6  N   UNL     1      -2.924  15.317  21.285  0.00  0.00    +0.000 N 
ATOM      7  N   UNL     1      -3.661  16.246  21.938  0.00  0.00    +0.000 NA
ATOM      8  C   UNL     1      -4.707  15.527  22.361  0.00  0.00    +0.000 A 
ATOM      9  C   UNL     1      -4.665  14.179  21.928  0.00  0.00    +0.000 A 
ATOM     10  C   UNL     1      -3.449  14.059  21.293  0.00  0.00    +0.000 A 
ATOM     11  N   UNL     1      -2.782  13.057  20.671  0.00  0.00    +0.000 NA
ATOM     12  H   UNL     1      -1.956  17.565  21.121  0.00  0.00    +0.000 HD
ENDROOT
BRANCH   9  13
ATOM     13  C   UNL     1      -5.631  13.142  22.093  0.00  0.00    +0.000 C 
ATOM     14  C   UNL     1      -6.312  12.534  21.107  0.00  0.00    +0.000 C 
ATOM     15  N   UNL     1      -6.219  12.729  19.759  0.00  0.00    +0.000 N 
ATOM     16  C   UNL     1      -7.070  11.878  19.092  0.00  0.00    +0.000 C 
ATOM     17  O   UNL     1      -7.195  11.788  17.880  0.00  0.00    +0.000 OA
ATOM     18  N   UNL     1      -7.740  11.129  20.034  0.00  0.00    +0.000 N 
ATOM     19  C   UNL     1      -7.329  11.450  21.295  0.00  0.00    +0.000 C 
ATOM     20  O   UNL     1      -7.704  10.959  22.341  0.00  0.00    +0.000 OA
ATOM     21  H   UNL     1      -5.583  13.340  19.276  0.00  0.00    +0.000 HD
ATOM     22  H   UNL     1      -8.398  10.417  19.808  0.00  0.00    +0.000 HD
ENDBRANCH   9  13
BRANCH   5  23
ATOM     23  C   UNL     1      -0.031  17.362  20.146  0.00  0.00    +0.000 C 
ATOM     24  C   UNL     1       0.243  17.300  18.670  0.00  0.00    +0.000 C 
ATOM     25  C   UNL     1       0.031  18.630  19.330  0.00  0.00    +0.000 C 
ENDBRANCH   5  23
BRANCH   1  27
ATOM     26  C   UNL     1      -0.485   9.925  19.162  0.00  0.00    +0.000 C 
ATOM     27  C   UNL     1      -1.584  11.008  19.038  0.00  0.00    +0.000 C 
BRANCH  27  28
ATOM     28  C   UNL     1      -2.409  10.783  17.759  0.00  0.00    +0.000 A 
ATOM     29  C   UNL     1      -3.623  11.429  17.502  0.00  0.00    +0.000 A 
ATOM     30  C   UNL     1      -4.272  11.273  16.271  0.00  0.00    +0.000 A 
ATOM     31  C   UNL     1      -3.734  10.454  15.281  0.00  0.00    +0.000 A 
ATOM     32  C   UNL     1      -2.564   9.752  15.533  0.00  0.00    +0.000 A 
ATOM     33  C   UNL     1      -1.923   9.896  16.766  0.00  0.00    +0.000 A 
ENDBRANCH  27  28
ENDBRANCH   1  27
BRANCH   1  34
ATOM     34  C   UNL     1       0.054  12.916  18.367  0.00  0.00    +0.000 C 
BRANCH  34  35
ATOM     35  C   UNL     1       1.509  12.590  18.683  0.00  0.00    +0.000 C 
BRANCH  35  36
ATOM     36  O   UNL     1       2.318  12.601  17.512  0.00  0.00    +0.000 OA
ATOM     37  H   UNL     1       2.944  11.862  17.589  0.00  0.00    +0.000 HD
ENDBRANCH  35  36
ENDBRANCH  34  35
ENDBRANCH   1  34
TORSDOF 7
ENDMDL
MODEL 6
REMARK VINA RESULT:      -6.9      2.632      5.435
REMARK  Name = 
REMARK  8 active torsions:
REMARK  status: ('A' for Active; 'I' for Inactive)
REMARK    1  A    between atoms: C_1  and  C_2
REMARK    2  A    between atoms: C_2  and  C_3
REMARK    3  A    between atoms: C_2  and  N_9
REMARK    4  A    between atoms: N_9  and  C_10
REMARK    5  A    between atoms: C_10  and  C_11
REMARK    6  A    between atoms: C_11  and  O_12
REMARK    7  A    between atoms: N_16  and  C_17
REMARK    8  A    between atoms: C_23  and  C_24
REMARK                            x       y       z     vdW  Elec       q    Type
REMARK                         _______ _______ _______ _____ _____    ______ ____
ROOT
ATOM      1  N   UNL     1      -4.465  11.396  18.677  0.00  0.00    +0.000 N 
ATOM      2  C   UNL     1      -3.391  11.817  19.468  0.00  0.00    +0.000 A 
ATOM      3  N   UNL     1      -2.123  11.357  19.106  0.00  0.00    +0.000 NA
ATOM      4  C   UNL     1      -1.060  11.814  19.696  0.00  0.00    +0.000 A 
ATOM      5  N   UNL     1       0.251  11.490  19.400  0.00  0.00    +0.000 N 
ATOM      6  N   UNL     1      -1.243  12.729  20.735  0.00  0.00    +0.000 N 
ATOM      7  N   UNL     1      -0.224  13.286  21.430  0.00  0.00    +0.000 NA
ATOM      8  C   UNL     1      -0.873  14.088  22.284  0.00  0.00    +0.000 A 
ATOM      9  C   UNL     1      -2.276  14.087  22.088  0.00  0.00    +0.000 A 
ATOM     10  C   UNL     1      -2.488  13.130  21.119  0.00  0.00    +0.000 A 
ATOM     11  N   UNL     1      -3.573  12.625  20.486  0.00  0.00    +0.000 NA
ATOM     12  H   UNL     1       0.956  12.032  19.898  0.00  0.00    +0.000 HD
ENDROOT
BRANCH   9  13
ATOM     13  C   UNL     1      -3.283  14.871  22.725  0.00  0.00    +0.000 C 
ATOM     14  C   UNL     1      -4.446  14.413  23.219  0.00  0.00    +0.000 C 
ATOM     15  N   UNL     1      -4.907  13.129  23.262  0.00  0.00    +0.000 N 
ATOM     16  C   UNL     1      -6.134  13.082  23.883  0.00  0.00    +0.000 C 
ATOM     17  O   UNL     1      -6.792  12.076  24.103  0.00  0.00    +0.000 OA
ATOM     18  N   UNL     1      -6.479  14.369  24.231  0.00  0.00    +0.000 N 
ATOM     19  C   UNL     1      -5.498  15.250  23.879  0.00  0.00    +0.000 C 
ATOM     20  O   UNL     1      -5.481  16.450  24.067  0.00  0.00    +0.000 OA
ATOM     21  H   UNL     1      -4.424  12.299  22.965  0.00  0.00    +0.000 HD
ATOM     22  H   UNL     1      -7.314  14.604  24.720  0.00  0.00    +0.000 HD
ENDBRANCH   9  13
BRANCH   5  23
ATOM     23  C   UNL     1       0.613  10.508  18.396  0.00  0.00    +0.000 C 
ATOM     24  C   UNL     1       2.042  10.291  17.986  0.00  0.00    +0.000 C 
ATOM     25  C   UNL     1       1.336   9.245  18.795  0.00  0.00    +0.000 C 
ENDBRANCH   5  23
BRANCH   1  27
ATOM     26  C   UNL     1      -6.913  10.805  18.491  0.00  0.00    +0.000 C 
ATOM     27  C   UNL     1      -5.861  11.861  18.911  0.00  0.00    +0.000 C 
BRANCH  27  28
ATOM     28  C   UNL     1      -6.212  13.230  18.303  0.00  0.00    +0.000 A 
ATOM     29  C   UNL     1      -6.541  13.413  16.956  0.00  0.00    +0.000 A 
ATOM     30  C   UNL     1      -6.965  14.661  16.483  0.00  0.00    +0.000 A 
ATOM     31  C   UNL     1      -7.048  15.755  17.341  0.00  0.00    +0.000 A 
ATOM     32  C   UNL     1      -6.667  15.618  18.669  0.00  0.00    +0.000 A 
ATOM     33  C   UNL     1      -6.232  14.376  19.137  0.00  0.00    +0.000 A 
ENDBRANCH  27  28
ENDBRANCH   1  27
BRANCH   1  34
ATOM     34  C   UNL     1      -4.078  10.667  17.440  0.00  0.00    +0.000 C 
BRANCH  34  35
ATOM     35  C   UNL     1      -3.685  11.427  16.178  0.00  0.00    +0.000 C 
BRANCH  35  36
ATOM     36  O   UNL     1      -2.278  11.624  16.099  0.00  0.00    +0.000 OA
ATOM     37  H   UNL     1      -1.907  10.857  15.631  0.00  0.00    +0.000 HD
ENDBRANCH  35  36
ENDBRANCH  34  35
ENDBRANCH   1  34
TORSDOF 7
ENDMDL
MODEL 7
REMARK VINA RESULT:      -6.7      2.689      4.527
REMARK  Name = 
REMARK  8 active torsions:
REMARK  status: ('A' for Active; 'I' for Inactive)
REMARK    1  A    between atoms: C_1  and  C_2
REMARK    2  A    between atoms: C_2  and  C_3
REMARK    3  A    between atoms: C_2  and  N_9
REMARK    4  A    between atoms: N_9  and  C_10
REMARK    5  A    between atoms: C_10  and  C_11
REMARK    6  A    between atoms: C_11  and  O_12
REMARK    7  A    between atoms: N_16  and  C_17
REMARK    8  A    between atoms: C_23  and  C_24
REMARK                            x       y       z     vdW  Elec       q    Type
REMARK                         _______ _______ _______ _____ _____    ______ ____
ROOT
ATOM      1  N   UNL     1      -1.776  12.419  20.308  0.00  0.00    +0.000 N 
ATOM      2  C   UNL     1      -3.051  12.280  19.751  0.00  0.00    +0.000 A 
ATOM      3  N   UNL     1      -3.115  11.882  18.414  0.00  0.00    +0.000 NA
ATOM      4  C   UNL     1      -4.254  11.590  17.864  0.00  0.00    +0.000 A 
ATOM      5  N   UNL     1      -4.454  11.130  16.575  0.00  0.00    +0.000 N 
ATOM      6  N   UNL     1      -5.404  11.747  18.641  0.00  0.00    +0.000 N 
ATOM      7  N   UNL     1      -6.653  11.476  18.194  0.00  0.00    +0.000 NA
ATOM      8  C   UNL     1      -7.400  11.753  19.269  0.00  0.00    +0.000 A 
ATOM      9  C   UNL     1      -6.632  12.132  20.397  0.00  0.00    +0.000 A 
ATOM     10  C   UNL     1      -5.338  12.191  19.928  0.00  0.00    +0.000 A 
ATOM     11  N   UNL     1      -4.132  12.494  20.464  0.00  0.00    +0.000 NA
ATOM     12  H   UNL     1      -5.410  10.851  16.357  0.00  0.00    +0.000 HD
ENDROOT
BRANCH   9  13
ATOM     13  C   UNL     1      -7.052  12.407  21.732  0.00  0.00    +0.000 C 
ATOM     14  C   UNL     1      -7.240  13.626  22.265  0.00  0.00    +0.000 C 
ATOM     15  N   UNL     1      -7.116  14.847  21.668  0.00  0.00    +0.000 N 
ATOM     16  C   UNL     1      -7.431  15.850  22.556  0.00  0.00    +0.000 C 
ATOM     17  O   UNL     1      -7.446  17.047  22.315  0.00  0.00    +0.000 OA
ATOM     18  N   UNL     1      -7.747  15.260  23.760  0.00  0.00    +0.000 N 
ATOM     19  C   UNL     1      -7.674  13.900  23.673  0.00  0.00    +0.000 C 
ATOM     20  O   UNL     1      -7.915  13.090  24.545  0.00  0.00    +0.000 OA
ATOM     21  H   UNL     1      -6.903  15.032  20.703  0.00  0.00    +0.000 HD
ATOM     22  H   UNL     1      -8.039  15.769  24.565  0.00  0.00    +0.000 HD
ENDBRANCH   9  13
BRANCH   5  23
ATOM     23  C   UNL     1      -3.376  10.974  15.618  0.00  0.00    +0.000 C 
ATOM     24  C   UNL     1      -2.678   9.659  15.426  0.00  0.00    +0.000 C 
ATOM     25  C   UNL     1      -3.590  10.176  14.355  0.00  0.00    +0.000 C 
ENDBRANCH   5  23
BRANCH   1  27
ATOM     26  C   UNL     1      -1.687  11.552  22.678  0.00  0.00    +0.000 C 
ATOM     27  C   UNL     1      -1.564  12.777  21.739  0.00  0.00    +0.000 C 
BRANCH  27  28
ATOM     28  C   UNL     1      -2.427  13.936  22.265  0.00  0.00    +0.000 A 
ATOM     29  C   UNL     1      -3.361  13.795  23.297  0.00  0.00    +0.000 A 
ATOM     30  C   UNL     1      -4.036  14.909  23.813  0.00  0.00    +0.000 A 
ATOM     31  C   UNL     1      -3.806  16.181  23.295  0.00  0.00    +0.000 A 
ATOM     32  C   UNL     1      -2.932  16.342  22.229  0.00  0.00    +0.000 A 
ATOM     33  C   UNL     1      -2.270  15.229  21.706  0.00  0.00    +0.000 A 
ENDBRANCH  27  28
ENDBRANCH   1  27
BRANCH   1  34
ATOM     34  C   UNL     1      -0.664  11.934  19.447  0.00  0.00    +0.000 C 
BRANCH  34  35
ATOM     35  C   UNL     1      -0.399  10.442  19.285  0.00  0.00    +0.000 C 
BRANCH  35  36
ATOM     36  O   UNL     1      -0.421  10.049  17.917  0.00  0.00    +0.000 OA
ATOM     37  H   UNL     1      -0.793  10.792  17.412  0.00  0.00    +0.000 HD
ENDBRANCH  35  36
ENDBRANCH  34  35
ENDBRANCH   1  34
TORSDOF 7
ENDMDL
MODEL 8
REMARK VINA RESULT:      -6.6      2.708      6.267
REMARK  Name = 
REMARK  8 active torsions:
REMARK  status: ('A' for Active; 'I' for Inactive)
REMARK    1  A    between atoms: C_1  and  C_2
REMARK    2  A    between atoms: C_2  and  C_3
REMARK    3  A    between atoms: C_2  and  N_9
REMARK    4  A    between atoms: N_9  and  C_10
REMARK    5  A    between atoms: C_10  and  C_11
REMARK    6  A    between atoms: C_11  and  O_12
REMARK    7  A    between atoms: N_16  and  C_17
REMARK    8  A    between atoms: C_23  and  C_24
REMARK                            x       y       z     vdW  Elec       q    Type
REMARK                         _______ _______ _______ _____ _____    ______ ____
ROOT
ATOM      1  N   UNL     1       0.158  11.955  19.797  0.00  0.00    +0.000 N 
ATOM      2  C   UNL     1       0.215  12.928  20.799  0.00  0.00    +0.000 A 
ATOM      3  N   UNL     1       1.155  13.948  20.636  0.00  0.00    +0.000 NA
ATOM      4  C   UNL     1       1.175  14.965  21.442  0.00  0.00    +0.000 A 
ATOM      5  N   UNL     1       2.009  16.066  21.361  0.00  0.00    +0.000 N 
ATOM      6  N   UNL     1       0.266  14.966  22.501  0.00  0.00    +0.000 N 
ATOM      7  N   UNL     1       0.176  15.964  23.411  0.00  0.00    +0.000 NA
ATOM      8  C   UNL     1      -0.821  15.538  24.196  0.00  0.00    +0.000 A 
ATOM      9  C   UNL     1      -1.397  14.323  23.752  0.00  0.00    +0.000 A 
ATOM     10  C   UNL     1      -0.611  13.939  22.687  0.00  0.00    +0.000 A 
ATOM     11  N   UNL     1      -0.596  12.890  21.830  0.00  0.00    +0.000 NA
ATOM     12  H   UNL     1       1.804  16.816  22.020  0.00  0.00    +0.000 HD
ENDROOT
BRANCH   9  13
ATOM     13  C   UNL     1      -2.525  13.613  24.259  0.00  0.00    +0.000 C 
ATOM     14  C   UNL     1      -3.604  13.236  23.553  0.00  0.00    +0.000 C 
ATOM     15  N   UNL     1      -3.852  13.402  22.221  0.00  0.00    +0.000 N 
ATOM     16  C   UNL     1      -5.063  12.841  21.885  0.00  0.00    +0.000 C 
ATOM     17  O   UNL     1      -5.552  12.799  20.767  0.00  0.00    +0.000 OA
ATOM     18  N   UNL     1      -5.616  12.317  23.033  0.00  0.00    +0.000 N 
ATOM     19  C   UNL     1      -4.786  12.497  24.101  0.00  0.00    +0.000 C 
ATOM     20  O   UNL     1      -4.966  12.131  25.246  0.00  0.00    +0.000 OA
ATOM     21  H   UNL     1      -3.237  13.803  21.534  0.00  0.00    +0.000 HD
ATOM     22  H   UNL     1      -6.483  11.829  23.055  0.00  0.00    +0.000 HD
ENDBRANCH   9  13
BRANCH   5  23
ATOM     23  C   UNL     1       3.053  16.191  20.363  0.00  0.00    +0.000 C 
ATOM     24  C   UNL     1       2.849  16.990  19.107  0.00  0.00    +0.000 C 
ATOM     25  C   UNL     1       3.768  17.507  20.172  0.00  0.00    +0.000 C 
ENDBRANCH   5  23
BRANCH   1  27
ATOM     26  C   UNL     1      -0.177   9.460  19.996  0.00  0.00    +0.000 C 
ATOM     27  C   UNL     1      -0.839  10.847  19.813  0.00  0.00    +0.000 C 
BRANCH  27  28
ATOM     28  C   UNL     1      -1.812  10.818  18.622  0.00  0.00    +0.000 A 
ATOM     29  C   UNL     1      -2.970  11.601  18.553  0.00  0.00    +0.000 A 
ATOM     30  C   UNL     1      -3.757  11.618  17.395  0.00  0.00    +0.000 A 
ATOM     31  C   UNL     1      -3.415  10.841  16.291  0.00  0.00    +0.000 A 
ATOM     32  C   UNL     1      -2.308  10.007  16.355  0.00  0.00    +0.000 A 
ATOM     33  C   UNL     1      -1.531   9.979  17.515  0.00  0.00    +0.000 A 
ENDBRANCH  27  28
ENDBRANCH   1  27
BRANCH   1  34
ATOM     34  C   UNL     1       0.982  12.251  18.595  0.00  0.00    +0.000 C 
BRANCH  34  35
ATOM     35  C   UNL     1       2.240  11.443  18.294  0.00  0.00    +0.000 C 
BRANCH  35  36
ATOM     36  O   UNL     1       1.966  10.340  17.438  0.00  0.00    +0.000 OA
ATOM     37  H   UNL     1       1.175  10.568  16.921  0.00  0.00    +0.000 HD
ENDBRANCH  35  36
ENDBRANCH  34  35
ENDBRANCH   1  34
TORSDOF 7
ENDMDL
MODEL 9
REMARK VINA RESULT:      -6.5      2.826      4.885
REMARK  Name = 
REMARK  8 active torsions:
REMARK  status: ('A' for Active; 'I' for Inactive)
REMARK    1  A    between atoms: C_1  and  C_2
REMARK    2  A    between atoms: C_2  and  C_3
REMARK    3  A    between atoms: C_2  and  N_9
REMARK    4  A    between atoms: N_9  and  C_10
REMARK    5  A    between atoms: C_10  and  C_11
REMARK    6  A    between atoms: C_11  and  O_12
REMARK    7  A    between atoms: N_16  and  C_17
REMARK    8  A    between atoms: C_23  and  C_24
REMARK                            x       y       z     vdW  Elec       q    Type
REMARK                         _______ _______ _______ _____ _____    ______ ____
ROOT
ATOM      1  N   UNL     1      -1.223  12.223  19.241  0.00  0.00    +0.000 N 
ATOM      2  C   UNL     1      -2.578  12.111  18.916  0.00  0.00    +0.000 A 
ATOM      3  N   UNL     1      -2.883  11.737  17.606  0.00  0.00    +0.000 NA
ATOM      4  C   UNL     1      -4.107  11.470  17.261  0.00  0.00    +0.000 A 
ATOM      5  N   UNL     1      -4.538  11.036  16.021  0.00  0.00    +0.000 N 
ATOM      6  N   UNL     1      -5.098  11.630  18.230  0.00  0.00    +0.000 N 
ATOM      7  N   UNL     1      -6.411  11.384  18.007  0.00  0.00    +0.000 NA
ATOM      8  C   UNL     1      -6.953  11.653  19.201  0.00  0.00    +0.000 A 
ATOM      9  C   UNL     1      -5.991  12.001  20.181  0.00  0.00    +0.000 A 
ATOM     10  C   UNL     1      -4.799  12.050  19.492  0.00  0.00    +0.000 A 
ATOM     11  N   UNL     1      -3.513  12.328  19.812  0.00  0.00    +0.000 NA
ATOM     12  H   UNL     1      -5.522  10.774  15.970  0.00  0.00    +0.000 HD
ENDROOT
BRANCH   9  13
ATOM     13  C   UNL     1      -6.165  12.259  21.573  0.00  0.00    +0.000 C 
ATOM     14  C   UNL     1      -5.752  13.355  22.231  0.00  0.00    +0.000 C 
ATOM     15  N   UNL     1      -5.125  14.462  21.735  0.00  0.00    +0.000 N 
ATOM     16  C   UNL     1      -4.903  15.377  22.739  0.00  0.00    +0.000 C 
ATOM     17  O   UNL     1      -4.390  16.478  22.610  0.00  0.00    +0.000 OA
ATOM     18  N   UNL     1      -5.382  14.838  23.913  0.00  0.00    +0.000 N 
ATOM     19  C   UNL     1      -5.935  13.609  23.696  0.00  0.00    +0.000 C 
ATOM     20  O   UNL     1      -6.465  12.884  24.514  0.00  0.00    +0.000 OA
ATOM     21  H   UNL     1      -4.907  14.657  20.773  0.00  0.00    +0.000 HD
ATOM     22  H   UNL     1      -5.366  15.315  24.786  0.00  0.00    +0.000 HD
ENDBRANCH   9  13
BRANCH   5  23
ATOM     23  C   UNL     1      -3.648  10.883  14.886  0.00  0.00    +0.000 C 
ATOM     24  C   UNL     1      -2.761   9.680  14.739  0.00  0.00    +0.000 C 
ATOM     25  C   UNL     1      -3.938   9.847  13.827  0.00  0.00    +0.000 C 
ENDBRANCH   5  23
BRANCH   1  27
ATOM     26  C   UNL     1       0.394  13.588  20.618  0.00  0.00    +0.000 C 
ATOM     27  C   UNL     1      -0.756  12.552  20.618  0.00  0.00    +0.000 C 
BRANCH  27  28
ATOM     28  C   UNL     1      -0.382  11.345  21.495  0.00  0.00    +0.000 A 
ATOM     29  C   UNL     1       0.768  10.573  21.294  0.00  0.00    +0.000 A 
ATOM     30  C   UNL     1       1.117   9.558  22.193  0.00  0.00    +0.000 A 
ATOM     31  C   UNL     1       0.316   9.280  23.299  0.00  0.00    +0.000 A 
ATOM     32  C   UNL     1      -0.863   9.988  23.487  0.00  0.00    +0.000 A 
ATOM     33  C   UNL     1      -1.218  10.991  22.583  0.00  0.00    +0.000 A 
ENDBRANCH  27  28
ENDBRANCH   1  27
BRANCH   1  34
ATOM     34  C   UNL     1      -0.288  11.738  18.191  0.00  0.00    +0.000 C 
BRANCH  34  35
ATOM     35  C   UNL     1       0.035  10.254  18.061  0.00  0.00    +0.000 C 
BRANCH  35  36
ATOM     36  O   UNL     1       1.342  10.043  17.540  0.00  0.00    +0.000 OA
ATOM     37  H   UNL     1       1.429   9.092  17.360  0.00  0.00    +0.000 HD
ENDBRANCH  35  36
ENDBRANCH  34  35
ENDBRANCH   1  34
TORSDOF 7
ENDMDL
