MODEL 1
REMARK VINA RESULT:      -7.2      0.000      0.000
REMARK  Name = 
REMARK  8 active torsions:
REMARK  status: ('A' for Active; 'I' for Inactive)
REMARK    1  A    between atoms: C_1  and  O_2
REMARK    2  A    between atoms: O_2  and  C_3
REMARK    3  A    between atoms: C_5  and  O_6
REMARK    4  A    between atoms: C_16  and  C_17
REMARK    5  A    between atoms: C_18  and  O_19
REMARK    6  A    between atoms: C_20  and  C_21
REMARK    7  A    between atoms: C_20  and  O_22
REMARK    8  A    between atoms: C_23  and  O_24
REMARK                            x       y       z     vdW  Elec       q    Type
REMARK                         _______ _______ _______ _____ _____    ______ ____
ROOT
ATOM      1  C   UNL     1       0.501   9.130  20.431  0.00  0.00    +0.000 A 
ATOM      2  C   UNL     1       0.983   9.680  19.248  0.00  0.00    +0.000 A 
ATOM      3  C   UNL     1       1.871   8.954  18.453  0.00  0.00    +0.000 A 
ATOM      4  C   UNL     1       2.301   7.675  18.838  0.00  0.00    +0.000 A 
ATOM      5  C   UNL     1       1.835   7.135  20.032  0.00  0.00    +0.000 A 
ATOM      6  C   UNL     1       0.941   7.868  20.832  0.00  0.00    +0.000 A 
ATOM      7  C   UNL     1       2.274   5.797  20.483  0.00  0.00    +0.000 C 
ATOM      8  O   UNL     1       1.955   5.404  21.597  0.00  0.00    +0.000 OA
ATOM      9  C   UNL     1       3.105   4.965  19.564  0.00  0.00    +0.000 C 
ATOM     10  C   UNL     1       3.573   5.504  18.422  0.00  0.00    +0.000 C 
ATOM     11  C   UNL     1       3.260   6.907  18.025  0.00  0.00    +0.000 C 
ATOM     12  O   UNL     1       3.813   7.390  17.040  0.00  0.00    +0.000 OA
ATOM     13  C   UNL     1       4.552   4.802  17.494  0.00  0.00    +0.000 C 
ATOM     14  C   UNL     1       3.881   4.413  16.170  0.00  0.00    +0.000 C 
ATOM     15  C   UNL     1       5.250   3.619  18.188  0.00  0.00    +0.000 C 
ATOM     16  C   UNL     1       4.291   2.719  19.008  0.00  0.00    +0.000 C 
ATOM     17  C   UNL     1       3.366   1.886  18.105  0.00  0.00    +0.000 C 
ATOM     18  C   UNL     1       3.481   3.571  20.044  0.00  0.00    +0.000 C 
ENDROOT
BRANCH   1  20
ATOM     19  C   UNL     1      -0.311   9.340  22.642  0.00  0.00    +0.000 C 
ATOM     20  O   UNL     1      -0.370   9.758  21.279  0.00  0.00    +0.000 OA
ENDBRANCH   1  20
BRANCH   3  21
ATOM     21  O   UNL     1       2.297   9.520  17.285  0.00  0.00    +0.000 OA
ATOM     22  H   UNL     1       2.814  10.323  17.453  0.00  0.00    +0.000 HD
ENDBRANCH   3  21
BRANCH  15  23
ATOM     23  O   UNL     1       6.309   4.132  19.017  0.00  0.00    +0.000 OA
ATOM     24  H   UNL     1       7.011   3.462  19.111  0.00  0.00    +0.000 HD
ENDBRANCH  15  23
BRANCH  16  25
ATOM     25  O   UNL     1       5.089   1.758  19.733  0.00  0.00    +0.000 OA
ATOM     26  H   UNL     1       5.878   2.216  20.075  0.00  0.00    +0.000 HD
ENDBRANCH  16  25
BRANCH  18  27
ATOM     27  O   UNL     1       2.329   2.827  20.460  0.00  0.00    +0.000 OA
ATOM     28  H   UNL     1       2.253   2.860  21.425  0.00  0.00    +0.000 HD
ENDBRANCH  18  27
TORSDOF 5
ENDMDL
MODEL 2
REMARK VINA RESULT:      -6.6      8.512     11.519
REMARK  Name = 
REMARK  8 active torsions:
REMARK  status: ('A' for Active; 'I' for Inactive)
REMARK    1  A    between atoms: C_1  and  O_2
REMARK    2  A    between atoms: O_2  and  C_3
REMARK    3  A    between atoms: C_5  and  O_6
REMARK    4  A    between atoms: C_16  and  C_17
REMARK    5  A    between atoms: C_18  and  O_19
REMARK    6  A    between atoms: C_20  and  C_21
REMARK    7  A    between atoms: C_20  and  O_22
REMARK    8  A    between atoms: C_23  and  O_24
REMARK                            x       y       z     vdW  Elec       q    Type
REMARK                         _______ _______ _______ _____ _____    ______ ____
ROOT
ATOM      1  C   UNL     1      -3.390  11.340  17.017  0.00  0.00    +0.000 A 
ATOM      2  C   UNL     1      -4.763  11.151  16.897  0.00  0.00    +0.000 A 
ATOM      3  C   UNL     1      -5.602  11.428  17.976  0.00  0.00    +0.000 A 
ATOM      4  C   UNL     1      -5.079  11.884  19.197  0.00  0.00    +0.000 A 
ATOM      5  C   UNL     1      -3.704  12.052  19.322  0.00  0.00    +0.000 A 
ATOM      6  C   UNL     1      -2.860  11.771  18.234  0.00  0.00    +0.000 A 
ATOM      7  C   UNL     1      -3.109  12.515  20.594  0.00  0.00    +0.000 C 
ATOM      8  O   UNL     1      -1.892  12.526  20.719  0.00  0.00    +0.000 OA
ATOM      9  C   UNL     1      -4.017  12.950  21.696  0.00  0.00    +0.000 C 
ATOM     10  C   UNL     1      -5.345  12.761  21.576  0.00  0.00    +0.000 C 
ATOM     11  C   UNL     1      -5.948  12.155  20.355  0.00  0.00    +0.000 C 
ATOM     12  O   UNL     1      -7.147  11.887  20.347  0.00  0.00    +0.000 OA
ATOM     13  C   UNL     1      -6.341  13.020  22.696  0.00  0.00    +0.000 C 
ATOM     14  C   UNL     1      -7.229  14.230  22.378  0.00  0.00    +0.000 C 
ATOM     15  C   UNL     1      -5.648  13.122  24.066  0.00  0.00    +0.000 C 
ATOM     16  C   UNL     1      -4.362  13.987  24.055  0.00  0.00    +0.000 C 
ATOM     17  C   UNL     1      -4.674  15.483  23.893  0.00  0.00    +0.000 C 
ATOM     18  C   UNL     1      -3.360  13.478  22.963  0.00  0.00    +0.000 C 
ENDROOT
BRANCH   1  20
ATOM     19  C   UNL     1      -2.980  10.362  14.904  0.00  0.00    +0.000 C 
ATOM     20  O   UNL     1      -2.484  11.098  16.021  0.00  0.00    +0.000 OA
ENDBRANCH   1  20
BRANCH   3  21
ATOM     21  O   UNL     1      -6.946  11.257  17.806  0.00  0.00    +0.000 OA
ATOM     22  H   UNL     1      -7.389  11.088  18.652  0.00  0.00    +0.000 HD
ENDBRANCH   3  21
BRANCH  15  23
ATOM     23  O   UNL     1      -5.370  11.792  24.540  0.00  0.00    +0.000 OA
ATOM     24  H   UNL     1      -4.446  11.554  24.339  0.00  0.00    +0.000 HD
ENDBRANCH  15  23
BRANCH  16  25
ATOM     25  O   UNL     1      -3.729  13.864  25.348  0.00  0.00    +0.000 OA
ATOM     26  H   UNL     1      -3.896  12.964  25.682  0.00  0.00    +0.000 HD
ENDBRANCH  16  25
BRANCH  18  27
ATOM     27  O   UNL     1      -2.417  14.518  22.676  0.00  0.00    +0.000 OA
ATOM     28  H   UNL     1      -1.534  14.134  22.572  0.00  0.00    +0.000 HD
ENDBRANCH  18  27
TORSDOF 5
ENDMDL
MODEL 3
REMARK VINA RESULT:      -6.5      2.390      7.414
REMARK  Name = 
REMARK  8 active torsions:
REMARK  status: ('A' for Active; 'I' for Inactive)
REMARK    1  A    between atoms: C_1  and  O_2
REMARK    2  A    between atoms: O_2  and  C_3
REMARK    3  A    between atoms: C_5  and  O_6
REMARK    4  A    between atoms: C_16  and  C_17
REMARK    5  A    between atoms: C_18  and  O_19
REMARK    6  A    between atoms: C_20  and  C_21
REMARK    7  A    between atoms: C_20  and  O_22
REMARK    8  A    between atoms: C_23  and  O_24
REMARK                            x       y       z     vdW  Elec       q    Type
REMARK                         _______ _______ _______ _____ _____    ______ ____
ROOT
ATOM      1  C   UNL     1       2.028   5.965  20.441  0.00  0.00    +0.000 A 
ATOM      2  C   UNL     1       2.656   6.255  19.234  0.00  0.00    +0.000 A 
ATOM      3  C   UNL     1       2.514   7.518  18.660  0.00  0.00    +0.000 A 
ATOM      4  C   UNL     1       1.729   8.505  19.275  0.00  0.00    +0.000 A 
ATOM      5  C   UNL     1       1.084   8.207  20.471  0.00  0.00    +0.000 A 
ATOM      6  C   UNL     1       1.227   6.934  21.048  0.00  0.00    +0.000 A 
ATOM      7  C   UNL     1       0.236   9.212  21.146  0.00  0.00    +0.000 C 
ATOM      8  O   UNL     1      -0.426   8.883  22.122  0.00  0.00    +0.000 OA
ATOM      9  C   UNL     1       0.203  10.605  20.609  0.00  0.00    +0.000 C 
ATOM     10  C   UNL     1       0.810  10.878  19.438  0.00  0.00    +0.000 C 
ATOM     11  C   UNL     1       1.546   9.835  18.669  0.00  0.00    +0.000 C 
ATOM     12  O   UNL     1       1.972  10.104  17.548  0.00  0.00    +0.000 OA
ATOM     13  C   UNL     1       0.707  12.218  18.725  0.00  0.00    +0.000 C 
ATOM     14  C   UNL     1       2.048  12.963  18.749  0.00  0.00    +0.000 C 
ATOM     15  C   UNL     1      -0.464  13.061  19.258  0.00  0.00    +0.000 C 
ATOM     16  C   UNL     1      -0.571  13.079  20.804  0.00  0.00    +0.000 C 
ATOM     17  C   UNL     1       0.558  13.897  21.451  0.00  0.00    +0.000 C 
ATOM     18  C   UNL     1      -0.634  11.620  21.373  0.00  0.00    +0.000 C 
ENDROOT
BRANCH   1  20
ATOM     19  C   UNL     1       1.191   3.762  20.628  0.00  0.00    +0.000 C 
ATOM     20  O   UNL     1       2.102   4.761  21.084  0.00  0.00    +0.000 OA
ENDBRANCH   1  20
BRANCH   3  21
ATOM     21  O   UNL     1       3.172   7.769  17.489  0.00  0.00    +0.000 OA
ATOM     22  H   UNL     1       3.110   8.706  17.246  0.00  0.00    +0.000 HD
ENDBRANCH   3  21
BRANCH  15  23
ATOM     23  O   UNL     1      -1.684  12.582  18.663  0.00  0.00    +0.000 OA
ATOM     24  H   UNL     1      -1.572  11.657  18.376  0.00  0.00    +0.000 HD
ENDBRANCH  15  23
BRANCH  16  25
ATOM     25  O   UNL     1      -1.793  13.761  21.160  0.00  0.00    +0.000 OA
ATOM     26  H   UNL     1      -1.556  14.614  21.567  0.00  0.00    +0.000 HD
ENDBRANCH  16  25
BRANCH  18  27
ATOM     27  O   UNL     1      -0.293  11.647  22.764  0.00  0.00    +0.000 OA
ATOM     28  H   UNL     1       0.497  12.192  22.894  0.00  0.00    +0.000 HD
ENDBRANCH  18  27
TORSDOF 5
ENDMDL
MODEL 4
REMARK VINA RESULT:      -6.5      7.784     10.700
REMARK  Name = 
REMARK  8 active torsions:
REMARK  status: ('A' for Active; 'I' for Inactive)
REMARK    1  A    between atoms: C_1  and  O_2
REMARK    2  A    between atoms: O_2  and  C_3
REMARK    3  A    between atoms: C_5  and  O_6
REMARK    4  A    between atoms: C_16  and  C_17
REMARK    5  A    between atoms: C_18  and  O_19
REMARK    6  A    between atoms: C_20  and  C_21
REMARK    7  A    between atoms: C_20  and  O_22
REMARK    8  A    between atoms: C_23  and  O_24
REMARK                            x       y       z     vdW  Elec       q    Type
REMARK                         _______ _______ _______ _____ _____    ______ ____
ROOT
ATOM      1  C   UNL     1      -3.601  10.957  16.571  0.00  0.00    +0.000 A 
ATOM      2  C   UNL     1      -2.225  11.085  16.721  0.00  0.00    +0.000 A 
ATOM      3  C   UNL     1      -1.697  11.621  17.896  0.00  0.00    +0.000 A 
ATOM      4  C   UNL     1      -2.540  12.051  18.933  0.00  0.00    +0.000 A 
ATOM      5  C   UNL     1      -3.918  11.942  18.773  0.00  0.00    +0.000 A 
ATOM      6  C   UNL     1      -4.447  11.402  17.588  0.00  0.00    +0.000 A 
ATOM      7  C   UNL     1      -4.842  12.396  19.833  0.00  0.00    +0.000 C 
ATOM      8  O   UNL     1      -6.046  12.413  19.614  0.00  0.00    +0.000 OA
ATOM      9  C   UNL     1      -4.276  12.832  21.144  0.00  0.00    +0.000 C 
ATOM     10  C   UNL     1      -2.942  12.958  21.281  0.00  0.00    +0.000 C 
ATOM     11  C   UNL     1      -2.002  12.645  20.168  0.00  0.00    +0.000 C 
ATOM     12  O   UNL     1      -0.807  12.898  20.303  0.00  0.00    +0.000 OA
ATOM     13  C   UNL     1      -2.271  13.541  22.515  0.00  0.00    +0.000 C 
ATOM     14  C   UNL     1      -1.507  12.461  23.293  0.00  0.00    +0.000 C 
ATOM     15  C   UNL     1      -3.263  14.329  23.389  0.00  0.00    +0.000 C 
ATOM     16  C   UNL     1      -4.619  13.608  23.601  0.00  0.00    +0.000 C 
ATOM     17  C   UNL     1      -4.485  12.387  24.526  0.00  0.00    +0.000 C 
ATOM     18  C   UNL     1      -5.269  13.231  22.226  0.00  0.00    +0.000 C 
ENDROOT
BRANCH   1  20
ATOM     19  C   UNL     1      -3.357  10.153  14.361  0.00  0.00    +0.000 C 
ATOM     20  O   UNL     1      -4.216  10.446  15.462  0.00  0.00    +0.000 OA
ENDBRANCH   1  20
BRANCH   3  21
ATOM     21  O   UNL     1      -0.339  11.702  18.012  0.00  0.00    +0.000 OA
ATOM     22  H   UNL     1      -0.078  12.455  18.565  0.00  0.00    +0.000 HD
ENDBRANCH   3  21
BRANCH  15  23
ATOM     23  O   UNL     1      -3.457  15.630  22.805  0.00  0.00    +0.000 OA
ATOM     24  H   UNL     1      -2.907  16.287  23.269  0.00  0.00    +0.000 HD
ENDBRANCH  15  23
BRANCH  16  25
ATOM     25  O   UNL     1      -5.505  14.517  24.291  0.00  0.00    +0.000 OA
ATOM     26  H   UNL     1      -6.024  14.003  24.935  0.00  0.00    +0.000 HD
ENDBRANCH  16  25
BRANCH  18  27
ATOM     27  O   UNL     1      -6.255  12.214  22.440  0.00  0.00    +0.000 OA
ATOM     28  H   UNL     1      -6.233  11.931  23.366  0.00  0.00    +0.000 HD
ENDBRANCH  18  27
TORSDOF 5
ENDMDL
MODEL 5
REMARK VINA RESULT:      -6.5      1.501      3.612
REMARK  Name = 
REMARK  8 active torsions:
REMARK  status: ('A' for Active; 'I' for Inactive)
REMARK    1  A    between atoms: C_1  and  O_2
REMARK    2  A    between atoms: O_2  and  C_3
REMARK    3  A    between atoms: C_5  and  O_6
REMARK    4  A    between atoms: C_16  and  C_17
REMARK    5  A    between atoms: C_18  and  O_19
REMARK    6  A    between atoms: C_20  and  C_21
REMARK    7  A    between atoms: C_20  and  O_22
REMARK    8  A    between atoms: C_23  and  O_24
REMARK                            x       y       z     vdW  Elec       q    Type
REMARK                         _______ _______ _______ _____ _____    ______ ____
ROOT
ATOM      1  C   UNL     1       2.384   9.462  18.240  0.00  0.00    +0.000 A 
ATOM      2  C   UNL     1       1.496   9.413  19.309  0.00  0.00    +0.000 A 
ATOM      3  C   UNL     1       1.220   8.196  19.931  0.00  0.00    +0.000 A 
ATOM      4  C   UNL     1       1.816   7.006  19.484  0.00  0.00    +0.000 A 
ATOM      5  C   UNL     1       2.688   7.054  18.400  0.00  0.00    +0.000 A 
ATOM      6  C   UNL     1       2.964   8.281  17.774  0.00  0.00    +0.000 A 
ATOM      7  C   UNL     1       3.326   5.824  17.886  0.00  0.00    +0.000 C 
ATOM      8  O   UNL     1       3.981   5.873  16.853  0.00  0.00    +0.000 OA
ATOM      9  C   UNL     1       3.146   4.549  18.642  0.00  0.00    +0.000 C 
ATOM     10  C   UNL     1       2.281   4.507  19.674  0.00  0.00    +0.000 C 
ATOM     11  C   UNL     1       1.515   5.708  20.111  0.00  0.00    +0.000 C 
ATOM     12  O   UNL     1       0.648   5.586  20.973  0.00  0.00    +0.000 OA
ATOM     13  C   UNL     1       1.904   3.230  20.409  0.00  0.00    +0.000 C 
ATOM     14  C   UNL     1       2.465   3.227  21.838  0.00  0.00    +0.000 C 
ATOM     15  C   UNL     1       2.285   1.973  19.607  0.00  0.00    +0.000 C 
ATOM     16  C   UNL     1       3.703   2.033  18.985  0.00  0.00    +0.000 C 
ATOM     17  C   UNL     1       4.806   1.915  20.050  0.00  0.00    +0.000 C 
ATOM     18  C   UNL     1       3.872   3.322  18.110  0.00  0.00    +0.000 C 
ENDROOT
BRANCH   1  20
ATOM     19  C   UNL     1       2.314  11.825  18.177  0.00  0.00    +0.000 C 
ATOM     20  O   UNL     1       2.719  10.602  17.563  0.00  0.00    +0.000 OA
ENDBRANCH   1  20
BRANCH   3  21
ATOM     21  O   UNL     1       0.364   8.197  20.996  0.00  0.00    +0.000 OA
ATOM     22  H   UNL     1       0.073   9.097  21.210  0.00  0.00    +0.000 HD
ENDBRANCH   3  21
BRANCH  15  23
ATOM     23  O   UNL     1       1.287   1.755  18.593  0.00  0.00    +0.000 OA
ATOM     24  H   UNL     1       0.848   2.598  18.373  0.00  0.00    +0.000 HD
ENDBRANCH  15  23
BRANCH  16  25
ATOM     25  O   UNL     1       3.867   0.879  18.132  0.00  0.00    +0.000 OA
ATOM     26  H   UNL     1       4.128   0.124  18.691  0.00  0.00    +0.000 HD
ENDBRANCH  16  25
BRANCH  18  27
ATOM     27  O   UNL     1       5.270   3.577  17.920  0.00  0.00    +0.000 OA
ATOM     28  H   UNL     1       5.714   2.760  17.651  0.00  0.00    +0.000 HD
ENDBRANCH  18  27
TORSDOF 5
ENDMDL
MODEL 6
REMARK VINA RESULT:      -6.3      7.550     11.374
REMARK  Name = 
REMARK  8 active torsions:
REMARK  status: ('A' for Active; 'I' for Inactive)
REMARK    1  A    between atoms: C_1  and  O_2
REMARK    2  A    between atoms: O_2  and  C_3
REMARK    3  A    between atoms: C_5  and  O_6
REMARK    4  A    between atoms: C_16  and  C_17
REMARK    5  A    between atoms: C_18  and  O_19
REMARK    6  A    between atoms: C_20  and  C_21
REMARK    7  A    between atoms: C_20  and  O_22
REMARK    8  A    between atoms: C_23  and  O_24
REMARK                            x       y       z     vdW  Elec       q    Type
REMARK                         _______ _______ _______ _____ _____    ______ ____
ROOT
ATOM      1  C   UNL     1      -0.154  12.182  20.603  0.00  0.00    +0.000 A 
ATOM      2  C   UNL     1      -0.671  12.132  19.313  0.00  0.00    +0.000 A 
ATOM      3  C   UNL     1      -2.044  12.263  19.105  0.00  0.00    +0.000 A 
ATOM      4  C   UNL     1      -2.923  12.432  20.186  0.00  0.00    +0.000 A 
ATOM      5  C   UNL     1      -2.408  12.460  21.479  0.00  0.00    +0.000 A 
ATOM      6  C   UNL     1      -1.024  12.326  21.686  0.00  0.00    +0.000 A 
ATOM      7  C   UNL     1      -3.298  12.620  22.647  0.00  0.00    +0.000 C 
ATOM      8  O   UNL     1      -2.837  12.507  23.775  0.00  0.00    +0.000 OA
ATOM      9  C   UNL     1      -4.745  12.907  22.416  0.00  0.00    +0.000 C 
ATOM     10  C   UNL     1      -5.240  12.853  21.164  0.00  0.00    +0.000 C 
ATOM     11  C   UNL     1      -4.378  12.544  19.988  0.00  0.00    +0.000 C 
ATOM     12  O   UNL     1      -4.900  12.382  18.887  0.00  0.00    +0.000 OA
ATOM     13  C   UNL     1      -6.720  12.972  20.834  0.00  0.00    +0.000 C 
ATOM     14  C   UNL     1      -7.021  14.289  20.106  0.00  0.00    +0.000 C 
ATOM     15  C   UNL     1      -7.603  12.751  22.075  0.00  0.00    +0.000 C 
ATOM     16  C   UNL     1      -7.103  13.495  23.340  0.00  0.00    +0.000 C 
ATOM     17  C   UNL     1      -7.307  15.015  23.234  0.00  0.00    +0.000 C 
ATOM     18  C   UNL     1      -5.611  13.126  23.647  0.00  0.00    +0.000 C 
ENDROOT
BRANCH   1  20
ATOM     19  C   UNL     1       1.949  13.249  20.760  0.00  0.00    +0.000 C 
ATOM     20  O   UNL     1       1.172  12.062  20.913  0.00  0.00    +0.000 OA
ENDBRANCH   1  20
BRANCH   3  21
ATOM     21  O   UNL     1      -2.505  12.238  17.820  0.00  0.00    +0.000 OA
ATOM     22  H   UNL     1      -3.132  12.960  17.657  0.00  0.00    +0.000 HD
ENDBRANCH   3  21
BRANCH  15  23
ATOM     23  O   UNL     1      -7.709  11.337  22.317  0.00  0.00    +0.000 OA
ATOM     24  H   UNL     1      -8.038  11.179  23.221  0.00  0.00    +0.000 HD
ENDBRANCH  15  23
BRANCH  16  25
ATOM     25  O   UNL     1      -7.916  13.074  24.456  0.00  0.00    +0.000 OA
ATOM     26  H   UNL     1      -8.227  13.872  24.922  0.00  0.00    +0.000 HD
ENDBRANCH  16  25
BRANCH  18  27
ATOM     27  O   UNL     1      -5.054  14.121  24.515  0.00  0.00    +0.000 OA
ATOM     28  H   UNL     1      -5.041  14.976  24.061  0.00  0.00    +0.000 HD
ENDBRANCH  18  27
TORSDOF 5
ENDMDL
MODEL 7
REMARK VINA RESULT:      -6.2      9.821     11.399
REMARK  Name = 
REMARK  8 active torsions:
REMARK  status: ('A' for Active; 'I' for Inactive)
REMARK    1  A    between atoms: C_1  and  O_2
REMARK    2  A    between atoms: O_2  and  C_3
REMARK    3  A    between atoms: C_5  and  O_6
REMARK    4  A    between atoms: C_16  and  C_17
REMARK    5  A    between atoms: C_18  and  O_19
REMARK    6  A    between atoms: C_20  and  C_21
REMARK    7  A    between atoms: C_20  and  O_22
REMARK    8  A    between atoms: C_23  and  O_24
REMARK                            x       y       z     vdW  Elec       q    Type
REMARK                         _______ _______ _______ _____ _____    ______ ____
ROOT
ATOM      1  C   UNL     1       8.346  14.308  24.812  0.00  0.00    +0.000 A 
ATOM      2  C   UNL     1       8.279  12.920  24.751  0.00  0.00    +0.000 A 
ATOM      3  C   UNL     1       8.588  12.259  23.562  0.00  0.00    +0.000 A 
ATOM      4  C   UNL     1       8.953  12.976  22.413  0.00  0.00    +0.000 A 
ATOM      5  C   UNL     1       8.998  14.366  22.469  0.00  0.00    +0.000 A 
ATOM      6  C   UNL     1       8.686  15.030  23.668  0.00  0.00    +0.000 A 
ATOM      7  C   UNL     1       9.363  15.162  21.278  0.00  0.00    +0.000 C 
ATOM      8  O   UNL     1       9.265  16.381  21.317  0.00  0.00    +0.000 OA
ATOM      9  C   UNL     1       9.834  14.451  20.053  0.00  0.00    +0.000 C 
ATOM     10  C   UNL     1       9.763  13.107  19.998  0.00  0.00    +0.000 C 
ATOM     11  C   UNL     1       9.255  12.296  21.141  0.00  0.00    +0.000 C 
ATOM     12  O   UNL     1       9.092  11.087  20.994  0.00  0.00    +0.000 OA
ATOM     13  C   UNL     1      10.066  12.294  18.749  0.00  0.00    +0.000 C 
ATOM     14  C   UNL     1      11.359  11.483  18.915  0.00  0.00    +0.000 C 
ATOM     15  C   UNL     1      10.059  13.168  17.482  0.00  0.00    +0.000 C 
ATOM     16  C   UNL     1      10.810  14.513  17.645  0.00  0.00    +0.000 C 
ATOM     17  C   UNL     1      12.333  14.318  17.727  0.00  0.00    +0.000 C 
ATOM     18  C   UNL     1      10.258  15.313  18.874  0.00  0.00    +0.000 C 
ENDROOT
BRANCH   1  20
ATOM     19  C   UNL     1       8.618  16.363  25.949  0.00  0.00    +0.000 C 
ATOM     20  O   UNL     1       8.063  15.049  25.926  0.00  0.00    +0.000 OA
ENDBRANCH   1  20
BRANCH   3  21
ATOM     21  O   UNL     1       8.538  10.893  23.554  0.00  0.00    +0.000 OA
ATOM     22  H   UNL     1       7.667  10.573  23.836  0.00  0.00    +0.000 HD
ENDBRANCH   3  21
BRANCH  15  23
ATOM     23  O   UNL     1       8.694  13.386  17.082  0.00  0.00    +0.000 OA
ATOM     24  H   UNL     1       8.095  12.855  17.639  0.00  0.00    +0.000 HD
ENDBRANCH  15  23
BRANCH  16  25
ATOM     25  O   UNL     1      10.587  15.298  16.453  0.00  0.00    +0.000 OA
ATOM     26  H   UNL     1      11.434  15.370  15.975  0.00  0.00    +0.000 HD
ENDBRANCH  16  25
BRANCH  18  27
ATOM     27  O   UNL     1      11.223  16.300  19.260  0.00  0.00    +0.000 OA
ATOM     28  H   UNL     1      11.903  15.889  19.814  0.00  0.00    +0.000 HD
ENDBRANCH  18  27
TORSDOF 5
ENDMDL
MODEL 8
REMARK VINA RESULT:      -6.1      1.435      6.334
REMARK  Name = 
REMARK  8 active torsions:
REMARK  status: ('A' for Active; 'I' for Inactive)
REMARK    1  A    between atoms: C_1  and  O_2
REMARK    2  A    between atoms: O_2  and  C_3
REMARK    3  A    between atoms: C_5  and  O_6
REMARK    4  A    between atoms: C_16  and  C_17
REMARK    5  A    between atoms: C_18  and  O_19
REMARK    6  A    between atoms: C_20  and  C_21
REMARK    7  A    between atoms: C_20  and  O_22
REMARK    8  A    between atoms: C_23  and  O_24
REMARK                            x       y       z     vdW  Elec       q    Type
REMARK                         _______ _______ _______ _____ _____    ______ ____
ROOT
ATOM      1  C   UNL     1       4.406   4.379  19.116  0.00  0.00    +0.000 A 
ATOM      2  C   UNL     1       4.796   4.908  17.890  0.00  0.00    +0.000 A 
ATOM      3  C   UNL     1       4.267   6.123  17.454  0.00  0.00    +0.000 A 
ATOM      4  C   UNL     1       3.328   6.820  18.231  0.00  0.00    +0.000 A 
ATOM      5  C   UNL     1       2.923   6.279  19.447  0.00  0.00    +0.000 A 
ATOM      6  C   UNL     1       3.456   5.054  19.884  0.00  0.00    +0.000 A 
ATOM      7  C   UNL     1       1.926   6.972  20.290  0.00  0.00    +0.000 C 
ATOM      8  O   UNL     1       1.488   6.412  21.287  0.00  0.00    +0.000 OA
ATOM      9  C   UNL     1       1.472   8.338  19.894  0.00  0.00    +0.000 C 
ATOM     10  C   UNL     1       1.849   8.842  18.704  0.00  0.00    +0.000 C 
ATOM     11  C   UNL     1       2.738   8.090  17.774  0.00  0.00    +0.000 C 
ATOM     12  O   UNL     1       2.949   8.539  16.650  0.00  0.00    +0.000 OA
ATOM     13  C   UNL     1       1.322  10.151  18.134  0.00  0.00    +0.000 C 
ATOM     14  C   UNL     1       2.418  11.225  18.106  0.00  0.00    +0.000 C 
ATOM     15  C   UNL     1       0.041  10.612  18.851  0.00  0.00    +0.000 C 
ATOM     16  C   UNL     1       0.110  10.495  20.395  0.00  0.00    +0.000 C 
ATOM     17  C   UNL     1       1.054  11.540  21.011  0.00  0.00    +0.000 C 
ATOM     18  C   UNL     1       0.493   9.037  20.825  0.00  0.00    +0.000 C 
ENDROOT
BRANCH   1  20
ATOM     19  C   UNL     1       3.893   2.157  19.741  0.00  0.00    +0.000 C 
ATOM     20  O   UNL     1       4.863   3.198  19.631  0.00  0.00    +0.000 OA
ENDBRANCH   1  20
BRANCH   3  21
ATOM     21  O   UNL     1       4.699   6.620  16.257  0.00  0.00    +0.000 OA
ATOM     22  H   UNL     1       5.302   6.000  15.817  0.00  0.00    +0.000 HD
ENDBRANCH   3  21
BRANCH  15  23
ATOM     23  O   UNL     1      -1.072   9.865  18.328  0.00  0.00    +0.000 OA
ATOM     24  H   UNL     1      -0.757   9.029  17.936  0.00  0.00    +0.000 HD
ENDBRANCH  15  23
BRANCH  16  25
ATOM     25  O   UNL     1      -1.199  10.798  20.926  0.00  0.00    +0.000 OA
ATOM     26  H   UNL     1      -1.606  11.477  20.357  0.00  0.00    +0.000 HD
ENDBRANCH  16  25
BRANCH  18  27
ATOM     27  O   UNL     1       0.971   9.060  22.175  0.00  0.00    +0.000 OA
ATOM     28  H   UNL     1       1.937   8.992  22.178  0.00  0.00    +0.000 HD
ENDBRANCH  18  27
TORSDOF 5
ENDMDL
MODEL 9
REMARK VINA RESULT:      -6.1      7.862     10.397
REMARK  Name = 
REMARK  8 active torsions:
REMARK  status: ('A' for Active; 'I' for Inactive)
REMARK    1  A    between atoms: C_1  and  O_2
REMARK    2  A    between atoms: O_2  and  C_3
REMARK    3  A    between atoms: C_5  and  O_6
REMARK    4  A    between atoms: C_16  and  C_17
REMARK    5  A    between atoms: C_18  and  O_19
REMARK    6  A    between atoms: C_20  and  C_21
REMARK    7  A    between atoms: C_20  and  O_22
REMARK    8  A    between atoms: C_23  and  O_24
REMARK                            x       y       z     vdW  Elec       q    Type
REMARK                         _______ _______ _______ _____ _____    ______ ____
ROOT
ATOM      1  C   UNL     1      -3.117  10.800  15.864  0.00  0.00    +0.000 A 
ATOM      2  C   UNL     1      -4.488  10.914  16.065  0.00  0.00    +0.000 A 
ATOM      3  C   UNL     1      -4.977  11.404  17.277  0.00  0.00    +0.000 A 
ATOM      4  C   UNL     1      -4.102  11.771  18.311  0.00  0.00    +0.000 A 
ATOM      5  C   UNL     1      -2.731  11.635  18.116  0.00  0.00    +0.000 A 
ATOM      6  C   UNL     1      -2.241  11.142  16.895  0.00  0.00    +0.000 A 
ATOM      7  C   UNL     1      -1.775  11.996  19.184  0.00  0.00    +0.000 C 
ATOM      8  O   UNL     1      -0.587  11.742  19.037  0.00  0.00    +0.000 OA
ATOM      9  C   UNL     1      -2.290  12.655  20.420  0.00  0.00    +0.000 C 
ATOM     10  C   UNL     1      -3.619  12.759  20.611  0.00  0.00    +0.000 C 
ATOM     11  C   UNL     1      -4.602  12.263  19.606  0.00  0.00    +0.000 C 
ATOM     12  O   UNL     1      -5.799  12.266  19.884  0.00  0.00    +0.000 OA
ATOM     13  C   UNL     1      -4.252  13.267  21.898  0.00  0.00    +0.000 C 
ATOM     14  C   UNL     1      -4.919  14.632  21.686  0.00  0.00    +0.000 C 
ATOM     15  C   UNL     1      -3.254  13.256  23.069  0.00  0.00    +0.000 C 
ATOM     16  C   UNL     1      -1.855  13.815  22.705  0.00  0.00    +0.000 C 
ATOM     17  C   UNL     1      -1.879  15.338  22.495  0.00  0.00    +0.000 C 
ATOM     18  C   UNL     1      -1.262  13.065  21.465  0.00  0.00    +0.000 C 
ENDROOT
BRANCH   1  20
ATOM     19  C   UNL     1      -3.440  10.011  13.659  0.00  0.00    +0.000 C 
ATOM     20  O   UNL     1      -2.538  10.332  14.717  0.00  0.00    +0.000 OA
ENDBRANCH   1  20
BRANCH   3  21
ATOM     21  O   UNL     1      -6.330  11.527  17.421  0.00  0.00    +0.000 OA
ATOM     22  H   UNL     1      -6.706  10.758  17.877  0.00  0.00    +0.000 HD
ENDBRANCH   3  21
BRANCH  15  23
ATOM     23  O   UNL     1      -3.155  11.913  23.577  0.00  0.00    +0.000 OA
ATOM     24  H   UNL     1      -3.823  11.771  24.273  0.00  0.00    +0.000 HD
ENDBRANCH  15  23
BRANCH  16  25
ATOM     25  O   UNL     1      -0.979  13.597  23.833  0.00  0.00    +0.000 OA
ATOM     26  H   UNL     1      -0.670  12.673  23.801  0.00  0.00    +0.000 HD
ENDBRANCH  16  25
BRANCH  18  27
ATOM     27  O   UNL     1      -0.217  13.861  20.893  0.00  0.00    +0.000 OA
ATOM     28  H   UNL     1       0.600  13.732  21.396  0.00  0.00    +0.000 HD
ENDBRANCH  18  27
TORSDOF 5
ENDMDL
