MODEL 1
REMARK VINA RESULT:      -8.7      0.000      0.000
REMARK  Name = 
REMARK  7 active torsions:
REMARK  status: ('A' for Active; 'I' for Inactive)
REMARK    1  A    between atoms: C_1  and  O_2
REMARK    2  A    between atoms: O_2  and  C_3
REMARK    3  A    between atoms: C_7  and  N_8
REMARK    4  A    between atoms: C_11  and  C_12
REMARK    5  A    between atoms: C_17  and  N_18
REMARK    6  A    between atoms: C_19  and  C_21
REMARK    7  A    between atoms: C_24  and  N_25
REMARK                            x       y       z     vdW  Elec       q    Type
REMARK                         _______ _______ _______ _____ _____    ______ ____
ROOT
ATOM      1  C   UNL     1       6.601   6.032  16.533  0.00  0.00    +0.000 A 
ATOM      2  C   UNL     1       7.446   5.158  15.815  0.00  0.00    +0.000 A 
ATOM      3  C   UNL     1       6.936   4.285  14.856  0.00  0.00    +0.000 A 
ATOM      4  C   UNL     1       5.576   4.280  14.589  0.00  0.00    +0.000 A 
ATOM      5  C   UNL     1       4.723   5.127  15.296  0.00  0.00    +0.000 A 
ATOM      6  C   UNL     1       5.206   5.993  16.289  0.00  0.00    +0.000 A 
ENDROOT
BRANCH   1  10
ATOM      7  N   UNL     1       8.109   8.676  18.269  0.00  0.00    +0.000 N 
ATOM      8  N   UNL     1       8.597   7.652  19.004  0.00  0.00    +0.000 NA
ATOM      9  N   UNL     1       8.055   6.561  18.486  0.00  0.00    +0.000 NA
ATOM     10  C   UNL     1       7.231   6.968  17.463  0.00  0.00    +0.000 A 
ATOM     11  N   UNL     1       7.166   8.307  17.359  0.00  0.00    +0.000 NA
BRANCH   7  16
ATOM     12  C   UNL     1      10.055  11.614  19.413  0.00  0.00    +0.000 A 
ATOM     13  C   UNL     1       9.523  12.614  18.599  0.00  0.00    +0.000 A 
ATOM     14  C   UNL     1       8.569  12.298  17.630  0.00  0.00    +0.000 A 
ATOM     15  C   UNL     1       8.124  10.985  17.478  0.00  0.00    +0.000 A 
ATOM     16  C   UNL     1       8.619   9.990  18.330  0.00  0.00    +0.000 A 
ATOM     17  C   UNL     1       9.585  10.308  19.295  0.00  0.00    +0.000 A 
BRANCH  12  19
ATOM     18  C   UNL     1      12.332  11.933  19.898  0.00  0.00    +0.000 C 
ATOM     19  O   UNL     1      10.998  11.815  20.384  0.00  0.00    +0.000 OA
ENDBRANCH  12  19
ENDBRANCH   7  16
ENDBRANCH   1  10
BRANCH   6  20
ATOM     20  N   UNL     1       4.311   6.830  17.010  0.00  0.00    +0.000 N 
ATOM     21  C   UNL     1       3.477   6.436  18.044  0.00  0.00    +0.000 C 
ATOM     22  O   UNL     1       3.452   5.332  18.577  0.00  0.00    +0.000 OA
ATOM     23  H   UNL     1       4.418   7.830  16.830  0.00  0.00    +0.000 HD
BRANCH  21  24
ATOM     24  C   UNL     1       2.580   7.483  18.600  0.00  0.00    +0.000 A 
ATOM     25  C   UNL     1       2.102   8.541  17.826  0.00  0.00    +0.000 A 
ATOM     26  C   UNL     1       1.250   9.493  18.401  0.00  0.00    +0.000 A 
ATOM     27  C   UNL     1       0.845   9.402  19.742  0.00  0.00    +0.000 A 
ATOM     28  C   UNL     1       1.321   8.322  20.502  0.00  0.00    +0.000 A 
ATOM     29  C   UNL     1       2.168   7.365  19.935  0.00  0.00    +0.000 A 
BRANCH  27  30
ATOM     30  N   UNL     1       0.049  10.450  20.249  0.00  0.00    +0.000 NA
ATOM     31  C   UNL     1      -0.254  10.375  21.385  0.00  0.00    +0.000 C 
ATOM     32  S   UNL     1      -0.670  10.345  22.922  0.00  0.00    +0.000 S 
ENDBRANCH  27  30
ENDBRANCH  21  24
ENDBRANCH   6  20
TORSDOF 6
ENDMDL
MODEL 2
REMARK VINA RESULT:      -8.3      1.167      1.171
REMARK  Name = 
REMARK  7 active torsions:
REMARK  status: ('A' for Active; 'I' for Inactive)
REMARK    1  A    between atoms: C_1  and  O_2
REMARK    2  A    between atoms: O_2  and  C_3
REMARK    3  A    between atoms: C_7  and  N_8
REMARK    4  A    between atoms: C_11  and  C_12
REMARK    5  A    between atoms: C_17  and  N_18
REMARK    6  A    between atoms: C_19  and  C_21
REMARK    7  A    between atoms: C_24  and  N_25
REMARK                            x       y       z     vdW  Elec       q    Type
REMARK                         _______ _______ _______ _____ _____    ______ ____
ROOT
ATOM      1  C   UNL     1       6.688   6.169  16.780  0.00  0.00    +0.000 A 
ATOM      2  C   UNL     1       7.541   5.218  16.179  0.00  0.00    +0.000 A 
ATOM      3  C   UNL     1       7.034   4.195  15.381  0.00  0.00    +0.000 A 
ATOM      4  C   UNL     1       5.668   4.111  15.159  0.00  0.00    +0.000 A 
ATOM      5  C   UNL     1       4.807   5.034  15.755  0.00  0.00    +0.000 A 
ATOM      6  C   UNL     1       5.289   6.055  16.587  0.00  0.00    +0.000 A 
ENDROOT
BRANCH   1  10
ATOM      7  N   UNL     1       8.164   9.085  18.042  0.00  0.00    +0.000 N 
ATOM      8  N   UNL     1       8.689   8.202  18.919  0.00  0.00    +0.000 NA
ATOM      9  N   UNL     1       8.164   7.032  18.592  0.00  0.00    +0.000 NA
ATOM     10  C   UNL     1       7.313   7.254  17.536  0.00  0.00    +0.000 A 
ATOM     11  N   UNL     1       7.214   8.557  17.223  0.00  0.00    +0.000 NA
BRANCH   7  16
ATOM     12  C   UNL     1      10.472  11.985  18.054  0.00  0.00    +0.000 A 
ATOM     13  C   UNL     1       9.591  13.022  17.750  0.00  0.00    +0.000 A 
ATOM     14  C   UNL     1       8.249  12.749  17.477  0.00  0.00    +0.000 A 
ATOM     15  C   UNL     1       7.771  11.439  17.525  0.00  0.00    +0.000 A 
ATOM     16  C   UNL     1       8.644  10.403  17.883  0.00  0.00    +0.000 A 
ATOM     17  C   UNL     1       9.993  10.679  18.145  0.00  0.00    +0.000 A 
BRANCH  12  19
ATOM     18  C   UNL     1      12.170  11.859  19.674  0.00  0.00    +0.000 C 
ATOM     19  O   UNL     1      11.803  12.144  18.327  0.00  0.00    +0.000 OA
ENDBRANCH  12  19
ENDBRANCH   7  16
ENDBRANCH   1  10
BRANCH   6  20
ATOM     20  N   UNL     1       4.388   6.969  17.199  0.00  0.00    +0.000 N 
ATOM     21  C   UNL     1       3.439   6.661  18.161  0.00  0.00    +0.000 C 
ATOM     22  O   UNL     1       3.295   5.579  18.720  0.00  0.00    +0.000 OA
ATOM     23  H   UNL     1       4.574   7.954  17.002  0.00  0.00    +0.000 HD
BRANCH  21  24
ATOM     24  C   UNL     1       2.564   7.779  18.603  0.00  0.00    +0.000 A 
ATOM     25  C   UNL     1       2.229   8.839  17.761  0.00  0.00    +0.000 A 
ATOM     26  C   UNL     1       1.390   9.860  18.227  0.00  0.00    +0.000 A 
ATOM     27  C   UNL     1       0.858   9.837  19.526  0.00  0.00    +0.000 A 
ATOM     28  C   UNL     1       1.190   8.754  20.355  0.00  0.00    +0.000 A 
ATOM     29  C   UNL     1       2.022   7.729  19.896  0.00  0.00    +0.000 A 
BRANCH  27  30
ATOM     30  N   UNL     1       0.087  10.947  19.928  0.00  0.00    +0.000 NA
ATOM     31  C   UNL     1      -0.906  11.141  19.326  0.00  0.00    +0.000 C 
ATOM     32  S   UNL     1      -2.276  11.437  18.570  0.00  0.00    +0.000 S 
ENDBRANCH  27  30
ENDBRANCH  21  24
ENDBRANCH   6  20
TORSDOF 6
ENDMDL
MODEL 3
REMARK VINA RESULT:      -8.3      1.003      1.833
REMARK  Name = 
REMARK  7 active torsions:
REMARK  status: ('A' for Active; 'I' for Inactive)
REMARK    1  A    between atoms: C_1  and  O_2
REMARK    2  A    between atoms: O_2  and  C_3
REMARK    3  A    between atoms: C_7  and  N_8
REMARK    4  A    between atoms: C_11  and  C_12
REMARK    5  A    between atoms: C_17  and  N_18
REMARK    6  A    between atoms: C_19  and  C_21
REMARK    7  A    between atoms: C_24  and  N_25
REMARK                            x       y       z     vdW  Elec       q    Type
REMARK                         _______ _______ _______ _____ _____    ______ ____
ROOT
ATOM      1  C   UNL     1       6.658   6.058  16.471  0.00  0.00    +0.000 A 
ATOM      2  C   UNL     1       7.518   5.213  15.737  0.00  0.00    +0.000 A 
ATOM      3  C   UNL     1       7.022   4.341  14.769  0.00  0.00    +0.000 A 
ATOM      4  C   UNL     1       5.661   4.309  14.510  0.00  0.00    +0.000 A 
ATOM      5  C   UNL     1       4.793   5.127  15.234  0.00  0.00    +0.000 A 
ATOM      6  C   UNL     1       5.263   5.990  16.235  0.00  0.00    +0.000 A 
ENDROOT
BRANCH   1  10
ATOM      7  N   UNL     1       8.154   8.698  18.224  0.00  0.00    +0.000 N 
ATOM      8  N   UNL     1       8.597   7.676  18.989  0.00  0.00    +0.000 NA
ATOM      9  N   UNL     1       8.054   6.588  18.466  0.00  0.00    +0.000 NA
ATOM     10  C   UNL     1       7.273   6.995  17.410  0.00  0.00    +0.000 A 
ATOM     11  N   UNL     1       7.236   8.333  17.287  0.00  0.00    +0.000 NA
BRANCH   7  16
ATOM     12  C   UNL     1       8.514  12.347  17.691  0.00  0.00    +0.000 A 
ATOM     13  C   UNL     1       9.780  12.567  18.232  0.00  0.00    +0.000 A 
ATOM     14  C   UNL     1      10.482  11.518  18.830  0.00  0.00    +0.000 A 
ATOM     15  C   UNL     1       9.933  10.237  18.876  0.00  0.00    +0.000 A 
ATOM     16  C   UNL     1       8.685  10.004  18.286  0.00  0.00    +0.000 A 
ATOM     17  C   UNL     1       7.978  11.061  17.696  0.00  0.00    +0.000 A 
BRANCH  12  19
ATOM     18  C   UNL     1       7.520  14.468  17.886  0.00  0.00    +0.000 C 
ATOM     19  O   UNL     1       7.742  13.305  17.093  0.00  0.00    +0.000 OA
ENDBRANCH  12  19
ENDBRANCH   7  16
ENDBRANCH   1  10
BRANCH   6  20
ATOM     20  N   UNL     1       4.354   6.798  16.973  0.00  0.00    +0.000 N 
ATOM     21  C   UNL     1       3.623   6.402  18.081  0.00  0.00    +0.000 C 
ATOM     22  O   UNL     1       3.719   5.330  18.671  0.00  0.00    +0.000 OA
ATOM     23  H   UNL     1       4.370   7.791  16.734  0.00  0.00    +0.000 HD
BRANCH  21  24
ATOM     24  C   UNL     1       2.684   7.408  18.644  0.00  0.00    +0.000 A 
ATOM     25  C   UNL     1       2.150   7.290  19.927  0.00  0.00    +0.000 A 
ATOM     26  C   UNL     1       1.278   8.275  20.410  0.00  0.00    +0.000 A 
ATOM     27  C   UNL     1       0.938   9.398  19.639  0.00  0.00    +0.000 A 
ATOM     28  C   UNL     1       1.498   9.510  18.357  0.00  0.00    +0.000 A 
ATOM     29  C   UNL     1       2.372   8.534  17.869  0.00  0.00    +0.000 A 
BRANCH  27  30
ATOM     30  N   UNL     1      -0.006  10.293  20.182  0.00  0.00    +0.000 NA
ATOM     31  C   UNL     1      -0.215  10.197  21.337  0.00  0.00    +0.000 C 
ATOM     32  S   UNL     1      -0.517  10.136  22.899  0.00  0.00    +0.000 S 
ENDBRANCH  27  30
ENDBRANCH  21  24
ENDBRANCH   6  20
TORSDOF 6
ENDMDL
MODEL 4
REMARK VINA RESULT:      -8.3      5.384      8.277
REMARK  Name = 
REMARK  7 active torsions:
REMARK  status: ('A' for Active; 'I' for Inactive)
REMARK    1  A    between atoms: C_1  and  O_2
REMARK    2  A    between atoms: O_2  and  C_3
REMARK    3  A    between atoms: C_7  and  N_8
REMARK    4  A    between atoms: C_11  and  C_12
REMARK    5  A    between atoms: C_17  and  N_18
REMARK    6  A    between atoms: C_19  and  C_21
REMARK    7  A    between atoms: C_24  and  N_25
REMARK                            x       y       z     vdW  Elec       q    Type
REMARK                         _______ _______ _______ _____ _____    ______ ____
ROOT
ATOM      1  C   UNL     1       2.503   4.652  20.104  0.00  0.00    +0.000 A 
ATOM      2  C   UNL     1       1.798   4.420  21.305  0.00  0.00    +0.000 A 
ATOM      3  C   UNL     1       1.885   3.199  21.970  0.00  0.00    +0.000 A 
ATOM      4  C   UNL     1       2.689   2.194  21.454  0.00  0.00    +0.000 A 
ATOM      5  C   UNL     1       3.384   2.399  20.263  0.00  0.00    +0.000 A 
ATOM      6  C   UNL     1       3.289   3.608  19.557  0.00  0.00    +0.000 A 
ENDROOT
BRANCH   1  10
ATOM      7  N   UNL     1       1.945   7.994  19.210  0.00  0.00    +0.000 N 
ATOM      8  N   UNL     1       2.136   7.487  17.973  0.00  0.00    +0.000 NA
ATOM      9  N   UNL     1       2.419   6.207  18.159  0.00  0.00    +0.000 NA
ATOM     10  C   UNL     1       2.414   5.988  19.517  0.00  0.00    +0.000 A 
ATOM     11  N   UNL     1       2.213   7.118  20.217  0.00  0.00    +0.000 NA
BRANCH   7  16
ATOM     12  C   UNL     1       0.380  10.835  21.003  0.00  0.00    +0.000 A 
ATOM     13  C   UNL     1       0.120  11.702  19.942  0.00  0.00    +0.000 A 
ATOM     14  C   UNL     1       0.523  11.371  18.647  0.00  0.00    +0.000 A 
ATOM     15  C   UNL     1       1.172  10.162  18.397  0.00  0.00    +0.000 A 
ATOM     16  C   UNL     1       1.386   9.267  19.453  0.00  0.00    +0.000 A 
ATOM     17  C   UNL     1       0.991   9.607  20.754  0.00  0.00    +0.000 A 
BRANCH  12  19
ATOM     18  C   UNL     1      -0.537   9.950  22.977  0.00  0.00    +0.000 C 
ATOM     19  O   UNL     1       0.037  11.068  22.306  0.00  0.00    +0.000 OA
ENDBRANCH  12  19
ENDBRANCH   7  16
ENDBRANCH   1  10
BRANCH   6  20
ATOM     20  N   UNL     1       3.991   3.784  18.333  0.00  0.00    +0.000 N 
ATOM     21  C   UNL     1       5.305   4.201  18.197  0.00  0.00    +0.000 C 
ATOM     22  O   UNL     1       6.108   4.384  19.107  0.00  0.00    +0.000 OA
ATOM     23  H   UNL     1       3.510   3.424  17.506  0.00  0.00    +0.000 HD
BRANCH  21  24
ATOM     24  C   UNL     1       5.800   4.374  16.806  0.00  0.00    +0.000 A 
ATOM     25  C   UNL     1       5.020   4.055  15.694  0.00  0.00    +0.000 A 
ATOM     26  C   UNL     1       5.535   4.248  14.405  0.00  0.00    +0.000 A 
ATOM     27  C   UNL     1       6.819   4.777  14.199  0.00  0.00    +0.000 A 
ATOM     28  C   UNL     1       7.583   5.110  15.328  0.00  0.00    +0.000 A 
ATOM     29  C   UNL     1       7.076   4.924  16.617  0.00  0.00    +0.000 A 
BRANCH  27  30
ATOM     30  N   UNL     1       7.276   4.863  12.868  0.00  0.00    +0.000 NA
ATOM     31  C   UNL     1       7.134   3.902  12.203  0.00  0.00    +0.000 C 
ATOM     32  S   UNL     1       6.943   2.644  11.245  0.00  0.00    +0.000 S 
ENDBRANCH  27  30
ENDBRANCH  21  24
ENDBRANCH   6  20
TORSDOF 6
ENDMDL
MODEL 5
REMARK VINA RESULT:      -8.2      1.100      1.397
REMARK  Name = 
REMARK  7 active torsions:
REMARK  status: ('A' for Active; 'I' for Inactive)
REMARK    1  A    between atoms: C_1  and  O_2
REMARK    2  A    between atoms: O_2  and  C_3
REMARK    3  A    between atoms: C_7  and  N_8
REMARK    4  A    between atoms: C_11  and  C_12
REMARK    5  A    between atoms: C_17  and  N_18
REMARK    6  A    between atoms: C_19  and  C_21
REMARK    7  A    between atoms: C_24  and  N_25
REMARK                            x       y       z     vdW  Elec       q    Type
REMARK                         _______ _______ _______ _____ _____    ______ ____
ROOT
ATOM      1  C   UNL     1       6.622   6.072  16.723  0.00  0.00    +0.000 A 
ATOM      2  C   UNL     1       7.465   5.141  16.079  0.00  0.00    +0.000 A 
ATOM      3  C   UNL     1       6.945   4.143  15.256  0.00  0.00    +0.000 A 
ATOM      4  C   UNL     1       5.576   4.067  15.053  0.00  0.00    +0.000 A 
ATOM      5  C   UNL     1       4.725   4.970  15.691  0.00  0.00    +0.000 A 
ATOM      6  C   UNL     1       5.220   5.964  16.548  0.00  0.00    +0.000 A 
ENDROOT
BRANCH   1  10
ATOM      7  N   UNL     1       8.142   8.937  18.049  0.00  0.00    +0.000 N 
ATOM      8  N   UNL     1       8.634   8.030  18.921  0.00  0.00    +0.000 NA
ATOM      9  N   UNL     1       8.089   6.876  18.569  0.00  0.00    +0.000 NA
ATOM     10  C   UNL     1       7.258   7.132  17.503  0.00  0.00    +0.000 A 
ATOM     11  N   UNL     1       7.193   8.442  17.208  0.00  0.00    +0.000 NA
BRANCH   7  16
ATOM     12  C   UNL     1      10.497  11.795  18.184  0.00  0.00    +0.000 A 
ATOM     13  C   UNL     1       9.652  12.848  17.834  0.00  0.00    +0.000 A 
ATOM     14  C   UNL     1       8.321  12.598  17.491  0.00  0.00    +0.000 A 
ATOM     15  C   UNL     1       7.819  11.297  17.513  0.00  0.00    +0.000 A 
ATOM     16  C   UNL     1       8.653  10.246  17.916  0.00  0.00    +0.000 A 
ATOM     17  C   UNL     1       9.991  10.498  18.248  0.00  0.00    +0.000 A 
BRANCH  12  19
ATOM     18  C   UNL     1      12.056  12.030  19.926  0.00  0.00    +0.000 C 
ATOM     19  O   UNL     1      11.815  11.931  18.526  0.00  0.00    +0.000 OA
ENDBRANCH  12  19
ENDBRANCH   7  16
ENDBRANCH   1  10
BRANCH   6  20
ATOM     20  N   UNL     1       4.329   6.858  17.203  0.00  0.00    +0.000 N 
ATOM     21  C   UNL     1       3.372   6.515  18.144  0.00  0.00    +0.000 C 
ATOM     22  O   UNL     1       3.209   5.407  18.646  0.00  0.00    +0.000 OA
ATOM     23  H   UNL     1       4.529   7.849  17.057  0.00  0.00    +0.000 HD
BRANCH  21  24
ATOM     24  C   UNL     1       2.510   7.621  18.640  0.00  0.00    +0.000 A 
ATOM     25  C   UNL     1       2.014   7.650  19.943  0.00  0.00    +0.000 A 
ATOM     26  C   UNL     1       1.214   8.723  20.359  0.00  0.00    +0.000 A 
ATOM     27  C   UNL     1       0.910   9.789  19.498  0.00  0.00    +0.000 A 
ATOM     28  C   UNL     1       1.431   9.753  18.195  0.00  0.00    +0.000 A 
ATOM     29  C   UNL     1       2.233   8.688  17.774  0.00  0.00    +0.000 A 
BRANCH  27  30
ATOM     30  N   UNL     1       0.036  10.783  19.984  0.00  0.00    +0.000 NA
ATOM     31  C   UNL     1       0.405  11.897  19.890  0.00  0.00    +0.000 C 
ATOM     32  S   UNL     1       0.837  13.424  19.763  0.00  0.00    +0.000 S 
ENDBRANCH  27  30
ENDBRANCH  21  24
ENDBRANCH   6  20
TORSDOF 6
ENDMDL
MODEL 6
REMARK VINA RESULT:      -8.1      1.412      1.861
REMARK  Name = 
REMARK  7 active torsions:
REMARK  status: ('A' for Active; 'I' for Inactive)
REMARK    1  A    between atoms: C_1  and  O_2
REMARK    2  A    between atoms: O_2  and  C_3
REMARK    3  A    between atoms: C_7  and  N_8
REMARK    4  A    between atoms: C_11  and  C_12
REMARK    5  A    between atoms: C_17  and  N_18
REMARK    6  A    between atoms: C_19  and  C_21
REMARK    7  A    between atoms: C_24  and  N_25
REMARK                            x       y       z     vdW  Elec       q    Type
REMARK                         _______ _______ _______ _____ _____    ______ ____
ROOT
ATOM      1  C   UNL     1       6.707   6.171  16.607  0.00  0.00    +0.000 A 
ATOM      2  C   UNL     1       7.569   5.307  15.899  0.00  0.00    +0.000 A 
ATOM      3  C   UNL     1       7.073   4.381  14.983  0.00  0.00    +0.000 A 
ATOM      4  C   UNL     1       5.708   4.313  14.750  0.00  0.00    +0.000 A 
ATOM      5  C   UNL     1       4.838   5.149  15.449  0.00  0.00    +0.000 A 
ATOM      6  C   UNL     1       5.309   6.068  16.400  0.00  0.00    +0.000 A 
ENDROOT
BRANCH   1  10
ATOM      7  N   UNL     1       8.200   8.911  18.200  0.00  0.00    +0.000 N 
ATOM      8  N   UNL     1       8.641   7.937  19.027  0.00  0.00    +0.000 NA
ATOM      9  N   UNL     1       8.098   6.820  18.570  0.00  0.00    +0.000 NA
ATOM     10  C   UNL     1       7.320   7.163  17.489  0.00  0.00    +0.000 A 
ATOM     11  N   UNL     1       7.285   8.491  17.285  0.00  0.00    +0.000 NA
BRANCH   7  16
ATOM     12  C   UNL     1       8.434  12.578  17.722  0.00  0.00    +0.000 A 
ATOM     13  C   UNL     1       9.790  12.789  17.969  0.00  0.00    +0.000 A 
ATOM     14  C   UNL     1      10.608  11.726  18.358  0.00  0.00    +0.000 A 
ATOM     15  C   UNL     1      10.083  10.440  18.483  0.00  0.00    +0.000 A 
ATOM     16  C   UNL     1       8.733  10.218  18.184  0.00  0.00    +0.000 A 
ATOM     17  C   UNL     1       7.911  11.289  17.805  0.00  0.00    +0.000 A 
BRANCH  12  19
ATOM     18  C   UNL     1       7.844  14.850  17.849  0.00  0.00    +0.000 C 
ATOM     19  O   UNL     1       7.547  13.550  17.346  0.00  0.00    +0.000 OA
ENDBRANCH  12  19
ENDBRANCH   7  16
ENDBRANCH   1  10
BRANCH   6  20
ATOM     20  N   UNL     1       4.398   6.894  17.114  0.00  0.00    +0.000 N 
ATOM     21  C   UNL     1       3.448   6.464  18.026  0.00  0.00    +0.000 C 
ATOM     22  O   UNL     1       3.308   5.320  18.446  0.00  0.00    +0.000 OA
ATOM     23  H   UNL     1       4.579   7.897  17.041  0.00  0.00    +0.000 HD
BRANCH  21  24
ATOM     24  C   UNL     1       2.562   7.513  18.597  0.00  0.00    +0.000 A 
ATOM     25  C   UNL     1       2.049   8.554  17.824  0.00  0.00    +0.000 A 
ATOM     26  C   UNL     1       1.210   9.509  18.414  0.00  0.00    +0.000 A 
ATOM     27  C   UNL     1       0.853   9.437  19.769  0.00  0.00    +0.000 A 
ATOM     28  C   UNL     1       1.364   8.373  20.529  0.00  0.00    +0.000 A 
ATOM     29  C   UNL     1       2.198   7.413  19.947  0.00  0.00    +0.000 A 
BRANCH  27  30
ATOM     30  N   UNL     1       0.067  10.486  20.287  0.00  0.00    +0.000 NA
ATOM     31  C   UNL     1      -0.597  11.075  19.513  0.00  0.00    +0.000 C 
ATOM     32  S   UNL     1      -1.539  11.888  18.520  0.00  0.00    +0.000 S 
ENDBRANCH  27  30
ENDBRANCH  21  24
ENDBRANCH   6  20
TORSDOF 6
ENDMDL
MODEL 7
REMARK VINA RESULT:      -8.0      6.300     10.099
REMARK  Name = 
REMARK  7 active torsions:
REMARK  status: ('A' for Active; 'I' for Inactive)
REMARK    1  A    between atoms: C_1  and  O_2
REMARK    2  A    between atoms: O_2  and  C_3
REMARK    3  A    between atoms: C_7  and  N_8
REMARK    4  A    between atoms: C_11  and  C_12
REMARK    5  A    between atoms: C_17  and  N_18
REMARK    6  A    between atoms: C_19  and  C_21
REMARK    7  A    between atoms: C_24  and  N_25
REMARK                            x       y       z     vdW  Elec       q    Type
REMARK                         _______ _______ _______ _____ _____    ______ ____
ROOT
ATOM      1  C   UNL     1      -1.779  13.106  22.264  0.00  0.00    +0.000 A 
ATOM      2  C   UNL     1      -1.793  13.774  23.507  0.00  0.00    +0.000 A 
ATOM      3  C   UNL     1      -2.667  14.832  23.750  0.00  0.00    +0.000 A 
ATOM      4  C   UNL     1      -3.551  15.231  22.760  0.00  0.00    +0.000 A 
ATOM      5  C   UNL     1      -3.544  14.592  21.520  0.00  0.00    +0.000 A 
ATOM      6  C   UNL     1      -2.653  13.546  21.239  0.00  0.00    +0.000 A 
ENDROOT
BRANCH   1  10
ATOM      7  N   UNL     1       0.282  10.440  21.305  0.00  0.00    +0.000 N 
ATOM      8  N   UNL     1      -0.070   9.988  22.529  0.00  0.00    +0.000 NA
ATOM      9  N   UNL     1      -0.826  10.942  23.049  0.00  0.00    +0.000 NA
ATOM     10  C   UNL     1      -0.885  11.958  22.124  0.00  0.00    +0.000 A 
ATOM     11  N   UNL     1      -0.117  11.715  21.048  0.00  0.00    +0.000 NA
BRANCH   7  16
ATOM     12  C   UNL     1       2.013   7.567  19.730  0.00  0.00    +0.000 A 
ATOM     13  C   UNL     1       2.240   8.068  18.449  0.00  0.00    +0.000 A 
ATOM     14  C   UNL     1       1.761   9.331  18.092  0.00  0.00    +0.000 A 
ATOM     15  C   UNL     1       1.068  10.110  19.017  0.00  0.00    +0.000 A 
ATOM     16  C   UNL     1       0.886   9.629  20.320  0.00  0.00    +0.000 A 
ATOM     17  C   UNL     1       1.358   8.357  20.672  0.00  0.00    +0.000 A 
BRANCH  12  19
ATOM     18  C   UNL     1       3.299   5.652  19.284  0.00  0.00    +0.000 C 
ATOM     19  O   UNL     1       2.430   6.343  20.176  0.00  0.00    +0.000 OA
ENDBRANCH  12  19
ENDBRANCH   7  16
ENDBRANCH   1  10
BRANCH   6  20
ATOM     20  N   UNL     1      -2.653  12.926  19.959  0.00  0.00    +0.000 N 
ATOM     21  C   UNL     1      -3.671  12.152  19.425  0.00  0.00    +0.000 C 
ATOM     22  O   UNL     1      -4.778  11.964  19.920  0.00  0.00    +0.000 OA
ATOM     23  H   UNL     1      -1.889  13.211  19.343  0.00  0.00    +0.000 HD
BRANCH  21  24
ATOM     24  C   UNL     1      -3.411  11.553  18.089  0.00  0.00    +0.000 A 
ATOM     25  C   UNL     1      -2.263  10.809  17.819  0.00  0.00    +0.000 A 
ATOM     26  C   UNL     1      -2.075  10.259  16.544  0.00  0.00    +0.000 A 
ATOM     27  C   UNL     1      -3.028  10.422  15.526  0.00  0.00    +0.000 A 
ATOM     28  C   UNL     1      -4.186  11.158  15.820  0.00  0.00    +0.000 A 
ATOM     29  C   UNL     1      -4.383  11.707  17.091  0.00  0.00    +0.000 A 
BRANCH  27  30
ATOM     30  N   UNL     1      -2.714   9.896  14.256  0.00  0.00    +0.000 NA
ATOM     31  C   UNL     1      -3.588   9.873  13.468  0.00  0.00    +0.000 C 
ATOM     32  S   UNL     1      -4.721   9.843  12.350  0.00  0.00    +0.000 S 
ENDBRANCH  27  30
ENDBRANCH  21  24
ENDBRANCH   6  20
TORSDOF 6
ENDMDL
MODEL 8
REMARK VINA RESULT:      -8.0      4.780      6.608
REMARK  Name = 
REMARK  7 active torsions:
REMARK  status: ('A' for Active; 'I' for Inactive)
REMARK    1  A    between atoms: C_1  and  O_2
REMARK    2  A    between atoms: O_2  and  C_3
REMARK    3  A    between atoms: C_7  and  N_8
REMARK    4  A    between atoms: C_11  and  C_12
REMARK    5  A    between atoms: C_17  and  N_18
REMARK    6  A    between atoms: C_19  and  C_21
REMARK    7  A    between atoms: C_24  and  N_25
REMARK                            x       y       z     vdW  Elec       q    Type
REMARK                         _______ _______ _______ _____ _____    ______ ____
ROOT
ATOM      1  C   UNL     1       3.863   4.347  18.758  0.00  0.00    +0.000 A 
ATOM      2  C   UNL     1       4.187   3.001  19.034  0.00  0.00    +0.000 A 
ATOM      3  C   UNL     1       3.661   2.344  20.144  0.00  0.00    +0.000 A 
ATOM      4  C   UNL     1       2.793   3.017  20.991  0.00  0.00    +0.000 A 
ATOM      5  C   UNL     1       2.471   4.351  20.742  0.00  0.00    +0.000 A 
ATOM      6  C   UNL     1       3.011   5.044  19.649  0.00  0.00    +0.000 A 
ENDROOT
BRANCH   1  10
ATOM      7  N   UNL     1       5.277   5.148  15.654  0.00  0.00    +0.000 N 
ATOM      8  N   UNL     1       5.507   6.320  16.285  0.00  0.00    +0.000 NA
ATOM      9  N   UNL     1       4.964   6.183  17.484  0.00  0.00    +0.000 NA
ATOM     10  C   UNL     1       4.397   4.931  17.528  0.00  0.00    +0.000 A 
ATOM     11  N   UNL     1       4.493   4.284  16.354  0.00  0.00    +0.000 NA
BRANCH   7  16
ATOM     12  C   UNL     1       5.882   3.452  12.415  0.00  0.00    +0.000 A 
ATOM     13  C   UNL     1       7.171   3.897  12.123  0.00  0.00    +0.000 A 
ATOM     14  C   UNL     1       7.809   4.809  12.966  0.00  0.00    +0.000 A 
ATOM     15  C   UNL     1       7.172   5.269  14.119  0.00  0.00    +0.000 A 
ATOM     16  C   UNL     1       5.900   4.781  14.441  0.00  0.00    +0.000 A 
ATOM     17  C   UNL     1       5.257   3.874  13.586  0.00  0.00    +0.000 A 
BRANCH  12  19
ATOM     18  C   UNL     1       3.962   3.097  11.108  0.00  0.00    +0.000 C 
ATOM     19  O   UNL     1       5.168   2.569  11.652  0.00  0.00    +0.000 OA
ENDBRANCH  12  19
ENDBRANCH   7  16
ENDBRANCH   1  10
BRANCH   6  20
ATOM     20  N   UNL     1       2.683   6.411  19.431  0.00  0.00    +0.000 N 
ATOM     21  C   UNL     1       1.805   7.171  20.187  0.00  0.00    +0.000 C 
ATOM     22  O   UNL     1       1.252   6.825  21.227  0.00  0.00    +0.000 OA
ATOM     23  H   UNL     1       3.267   6.889  18.743  0.00  0.00    +0.000 HD
BRANCH  21  24
ATOM     24  C   UNL     1       1.572   8.564  19.722  0.00  0.00    +0.000 A 
ATOM     25  C   UNL     1       1.949   8.996  18.451  0.00  0.00    +0.000 A 
ATOM     26  C   UNL     1       1.695  10.319  18.062  0.00  0.00    +0.000 A 
ATOM     27  C   UNL     1       1.049  11.224  18.918  0.00  0.00    +0.000 A 
ATOM     28  C   UNL     1       0.660  10.768  20.187  0.00  0.00    +0.000 A 
ATOM     29  C   UNL     1       0.906   9.449  20.581  0.00  0.00    +0.000 A 
BRANCH  27  30
ATOM     30  N   UNL     1       0.908  12.552  18.466  0.00  0.00    +0.000 NA
ATOM     31  C   UNL     1       1.879  13.217  18.483  0.00  0.00    +0.000 C 
ATOM     32  S   UNL     1       3.164  14.157  18.454  0.00  0.00    +0.000 S 
ENDBRANCH  27  30
ENDBRANCH  21  24
ENDBRANCH   6  20
TORSDOF 6
ENDMDL
MODEL 9
REMARK VINA RESULT:      -8.0      4.693      6.502
REMARK  Name = 
REMARK  7 active torsions:
REMARK  status: ('A' for Active; 'I' for Inactive)
REMARK    1  A    between atoms: C_1  and  O_2
REMARK    2  A    between atoms: O_2  and  C_3
REMARK    3  A    between atoms: C_7  and  N_8
REMARK    4  A    between atoms: C_11  and  C_12
REMARK    5  A    between atoms: C_17  and  N_18
REMARK    6  A    between atoms: C_19  and  C_21
REMARK    7  A    between atoms: C_24  and  N_25
REMARK                            x       y       z     vdW  Elec       q    Type
REMARK                         _______ _______ _______ _____ _____    ______ ____
ROOT
ATOM      1  C   UNL     1       3.463   3.633  18.390  0.00  0.00    +0.000 A 
ATOM      2  C   UNL     1       3.573   2.240  18.594  0.00  0.00    +0.000 A 
ATOM      3  C   UNL     1       2.656   1.550  19.383  0.00  0.00    +0.000 A 
ATOM      4  C   UNL     1       1.605   2.237  19.971  0.00  0.00    +0.000 A 
ATOM      5  C   UNL     1       1.486   3.615  19.792  0.00  0.00    +0.000 A 
ATOM      6  C   UNL     1       2.414   4.339  19.029  0.00  0.00    +0.000 A 
ENDROOT
BRANCH   1  10
ATOM      7  N   UNL     1       5.587   4.687  15.811  0.00  0.00    +0.000 N 
ATOM      8  N   UNL     1       6.290   5.173  16.858  0.00  0.00    +0.000 NA
ATOM      9  N   UNL     1       5.564   4.890  17.927  0.00  0.00    +0.000 NA
ATOM     10  C   UNL     1       4.424   4.261  17.485  0.00  0.00    +0.000 A 
ATOM     11  N   UNL     1       4.360   4.201  16.143  0.00  0.00    +0.000 NA
BRANCH   7  16
ATOM     12  C   UNL     1       6.061   3.485  12.338  0.00  0.00    +0.000 A 
ATOM     13  C   UNL     1       7.235   4.152  11.987  0.00  0.00    +0.000 A 
ATOM     14  C   UNL     1       7.828   5.048  12.879  0.00  0.00    +0.000 A 
ATOM     15  C   UNL     1       7.265   5.270  14.136  0.00  0.00    +0.000 A 
ATOM     16  C   UNL     1       6.117   4.561  14.509  0.00  0.00    +0.000 A 
ATOM     17  C   UNL     1       5.517   3.671  13.607  0.00  0.00    +0.000 A 
BRANCH  12  19
ATOM     18  C   UNL     1       4.072   2.988  11.190  0.00  0.00    +0.000 C 
ATOM     19  O   UNL     1       5.397   2.597  11.536  0.00  0.00    +0.000 OA
ENDBRANCH  12  19
ENDBRANCH   7  16
ENDBRANCH   1  10
BRANCH   6  20
ATOM     20  N   UNL     1       2.281   5.747  18.880  0.00  0.00    +0.000 N 
ATOM     21  C   UNL     1       1.928   6.644  19.876  0.00  0.00    +0.000 C 
ATOM     22  O   UNL     1       1.778   6.387  21.066  0.00  0.00    +0.000 OA
ATOM     23  H   UNL     1       2.622   6.120  17.993  0.00  0.00    +0.000 HD
BRANCH  21  24
ATOM     24  C   UNL     1       1.788   8.065  19.462  0.00  0.00    +0.000 A 
ATOM     25  C   UNL     1       2.236   8.526  18.224  0.00  0.00    +0.000 A 
ATOM     26  C   UNL     1       2.069   9.875  17.882  0.00  0.00    +0.000 A 
ATOM     27  C   UNL     1       1.439  10.780  18.752  0.00  0.00    +0.000 A 
ATOM     28  C   UNL     1       0.978  10.296  19.986  0.00  0.00    +0.000 A 
ATOM     29  C   UNL     1       1.138   8.951  20.333  0.00  0.00    +0.000 A 
BRANCH  27  30
ATOM     30  N   UNL     1       1.387  12.130  18.350  0.00  0.00    +0.000 NA
ATOM     31  C   UNL     1       0.512  12.777  18.801  0.00  0.00    +0.000 C 
ATOM     32  S   UNL     1      -0.631  13.710  19.401  0.00  0.00    +0.000 S 
ENDBRANCH  27  30
ENDBRANCH  21  24
ENDBRANCH   6  20
TORSDOF 6
ENDMDL
