MODEL 1
REMARK VINA RESULT:      -8.5      0.000      0.000
REMARK  Name = 
REMARK  11 active torsions:
REMARK  status: ('A' for Active; 'I' for Inactive)
REMARK    1  A    between atoms: C_1  and  C_2
REMARK    2  A    between atoms: C_2  and  C_3
REMARK    3  A    between atoms: C_5  and  C_6
REMARK    4  A    between atoms: C_6  and  C_7
REMARK    5  A    between atoms: C_6  and  O_12
REMARK    6  A    between atoms: C_6  and  C_22
REMARK    7  A    between atoms: C_8  and  C_9
REMARK    8  A    between atoms: O_12  and  C_13
REMARK    9  A    between atoms: C_13  and  C_14
REMARK   10  A    between atoms: C_26  and  O_27
REMARK   11  A    between atoms: C_29  and  C_30
REMARK                            x       y       z     vdW  Elec       q    Type
REMARK                         _______ _______ _______ _____ _____    ______ ____
ROOT
ATOM      1  C   UNL     1       4.754   4.890  17.160  0.00  0.00    +0.000 C 
ENDROOT
BRANCH   1   4
ATOM      2  C   UNL     1       5.957   3.992  13.630  0.00  0.00    +0.000 A 
ATOM      3  C   UNL     1       5.182   4.130  14.783  0.00  0.00    +0.000 A 
ATOM      4  C   UNL     1       5.565   4.945  15.861  0.00  0.00    +0.000 A 
ATOM      5  C   UNL     1       6.735   5.687  15.645  0.00  0.00    +0.000 A 
ATOM      6  N   UNL     1       7.479   5.625  14.516  0.00  0.00    +0.000 NA
ATOM      7  C   UNL     1       7.101   4.793  13.526  0.00  0.00    +0.000 A 
ATOM      8  C   UNL     1       7.980   4.743  12.311  0.00  0.00    +0.000 C 
BRANCH   2  10
ATOM      9  C   UNL     1       4.451   3.551  11.676  0.00  0.00    +0.000 C 
ATOM     10  C   UNL     1       5.527   2.994  12.590  0.00  0.00    +0.000 C 
ENDBRANCH   2  10
BRANCH   5  11
ATOM     11  O   UNL     1       7.304   6.519  16.554  0.00  0.00    +0.000 OA
ATOM     12  H   UNL     1       8.197   6.252  16.783  0.00  0.00    +0.000 HD
ENDBRANCH   5  11
ENDBRANCH   1   4
BRANCH   1  13
ATOM     13  C   UNL     1       5.710   4.588  18.419  0.00  0.00    +0.000 C 
ATOM     14  F   UNL     1       6.932   4.118  18.092  0.00  0.00    +0.000 F 
ATOM     15  F   UNL     1       5.923   5.717  19.154  0.00  0.00    +0.000 F 
ATOM     16  F   UNL     1       5.190   3.680  19.281  0.00  0.00    +0.000 F 
ENDBRANCH   1  13
BRANCH   1  17
ATOM     17  C   UNL     1       4.087   6.232  17.417  0.00  0.00    +0.000 C 
ATOM     18  C   UNL     1       3.515   7.383  17.637  0.00  0.00    +0.000 C 
BRANCH  18  19
ATOM     19  C   UNL     1       2.893   8.644  17.908  0.00  0.00    +0.000 C 
ATOM     20  C   UNL     1       1.430   8.812  17.596  0.00  0.00    +0.000 C 
ATOM     21  C   UNL     1       1.883   8.714  19.024  0.00  0.00    +0.000 C 
ENDBRANCH  18  19
ENDBRANCH   1  17
BRANCH   1  22
ATOM     22  O   UNL     1       3.696   3.890  17.041  0.00  0.00    +0.000 OA
BRANCH  22  23
ATOM     23  C   UNL     1       2.417   4.272  17.546  0.00  0.00    +0.000 C 
BRANCH  23  24
ATOM     24  C   UNL     1       2.080   3.638  18.864  0.00  0.00    +0.000 A 
ATOM     25  C   UNL     1       2.184   2.274  19.132  0.00  0.00    +0.000 A 
ATOM     26  F   UNL     1       2.481   1.402  18.157  0.00  0.00    +0.000 F 
ATOM     27  C   UNL     1       2.026   1.781  20.428  0.00  0.00    +0.000 A 
ATOM     28  C   UNL     1       1.775   2.656  21.485  0.00  0.00    +0.000 A 
ATOM     29  C   UNL     1       1.661   4.019  21.237  0.00  0.00    +0.000 A 
ATOM     30  C   UNL     1       1.813   4.493  19.937  0.00  0.00    +0.000 A 
ATOM     31  F   UNL     1       1.747   5.816  19.727  0.00  0.00    +0.000 F 
ENDBRANCH  23  24
ENDBRANCH  22  23
ENDBRANCH   1  22
TORSDOF 9
ENDMDL
MODEL 2
REMARK VINA RESULT:      -8.3      0.998      1.118
REMARK  Name = 
REMARK  11 active torsions:
REMARK  status: ('A' for Active; 'I' for Inactive)
REMARK    1  A    between atoms: C_1  and  C_2
REMARK    2  A    between atoms: C_2  and  C_3
REMARK    3  A    between atoms: C_5  and  C_6
REMARK    4  A    between atoms: C_6  and  C_7
REMARK    5  A    between atoms: C_6  and  O_12
REMARK    6  A    between atoms: C_6  and  C_22
REMARK    7  A    between atoms: C_8  and  C_9
REMARK    8  A    between atoms: O_12  and  C_13
REMARK    9  A    between atoms: C_13  and  C_14
REMARK   10  A    between atoms: C_26  and  O_27
REMARK   11  A    between atoms: C_29  and  C_30
REMARK                            x       y       z     vdW  Elec       q    Type
REMARK                         _______ _______ _______ _____ _____    ______ ____
ROOT
ATOM      1  C   UNL     1       5.273   4.541  17.202  0.00  0.00    +0.000 C 
ENDROOT
BRANCH   1   4
ATOM      2  C   UNL     1       6.053   3.876  13.504  0.00  0.00    +0.000 A 
ATOM      3  C   UNL     1       5.437   3.898  14.758  0.00  0.00    +0.000 A 
ATOM      4  C   UNL     1       5.884   4.718  15.807  0.00  0.00    +0.000 A 
ATOM      5  C   UNL     1       6.931   5.586  15.465  0.00  0.00    +0.000 A 
ATOM      6  N   UNL     1       7.511   5.636  14.243  0.00  0.00    +0.000 NA
ATOM      7  C   UNL     1       7.084   4.797  13.279  0.00  0.00    +0.000 A 
ATOM      8  C   UNL     1       7.783   4.876  11.955  0.00  0.00    +0.000 C 
BRANCH   2  10
ATOM      9  C   UNL     1       4.423   3.389  11.663  0.00  0.00    +0.000 C 
ATOM     10  C   UNL     1       5.585   2.869  12.491  0.00  0.00    +0.000 C 
ENDBRANCH   2  10
BRANCH   5  11
ATOM     11  O   UNL     1       7.535   6.448  16.322  0.00  0.00    +0.000 OA
ATOM     12  H   UNL     1       7.187   6.378  17.214  0.00  0.00    +0.000 HD
ENDBRANCH   5  11
ENDBRANCH   1   4
BRANCH   1  13
ATOM     13  C   UNL     1       6.380   4.781  18.345  0.00  0.00    +0.000 C 
ATOM     14  F   UNL     1       7.589   4.247  18.074  0.00  0.00    +0.000 F 
ATOM     15  F   UNL     1       6.591   6.113  18.549  0.00  0.00    +0.000 F 
ATOM     16  F   UNL     1       6.022   4.275  19.551  0.00  0.00    +0.000 F 
ENDBRANCH   1  13
BRANCH   1  17
ATOM     17  C   UNL     1       4.171   5.564  17.424  0.00  0.00    +0.000 C 
ATOM     18  C   UNL     1       3.227   6.443  17.615  0.00  0.00    +0.000 C 
BRANCH  18  19
ATOM     19  C   UNL     1       2.173   7.394  17.802  0.00  0.00    +0.000 C 
ATOM     20  C   UNL     1       2.077   8.120  19.117  0.00  0.00    +0.000 C 
ATOM     21  C   UNL     1       2.537   8.853  17.889  0.00  0.00    +0.000 C 
ENDBRANCH  18  19
ENDBRANCH   1  17
BRANCH   1  22
ATOM     22  O   UNL     1       4.670   3.214  17.312  0.00  0.00    +0.000 OA
BRANCH  22  23
ATOM     23  C   UNL     1       3.243   3.177  17.314  0.00  0.00    +0.000 C 
BRANCH  23  24
ATOM     24  C   UNL     1       2.649   3.045  18.685  0.00  0.00    +0.000 A 
ATOM     25  C   UNL     1       3.311   2.491  19.780  0.00  0.00    +0.000 A 
ATOM     26  F   UNL     1       4.510   1.908  19.637  0.00  0.00    +0.000 F 
ATOM     27  C   UNL     1       2.766   2.563  21.063  0.00  0.00    +0.000 A 
ATOM     28  C   UNL     1       1.548   3.212  21.272  0.00  0.00    +0.000 A 
ATOM     29  C   UNL     1       0.870   3.766  20.192  0.00  0.00    +0.000 A 
ATOM     30  C   UNL     1       1.424   3.676  18.918  0.00  0.00    +0.000 A 
ATOM     31  F   UNL     1       0.777   4.258  17.897  0.00  0.00    +0.000 F 
ENDBRANCH  23  24
ENDBRANCH  22  23
ENDBRANCH   1  22
TORSDOF 9
ENDMDL
MODEL 3
REMARK VINA RESULT:      -8.3      0.139      1.658
REMARK  Name = 
REMARK  11 active torsions:
REMARK  status: ('A' for Active; 'I' for Inactive)
REMARK    1  A    between atoms: C_1  and  C_2
REMARK    2  A    between atoms: C_2  and  C_3
REMARK    3  A    between atoms: C_5  and  C_6
REMARK    4  A    between atoms: C_6  and  C_7
REMARK    5  A    between atoms: C_6  and  O_12
REMARK    6  A    between atoms: C_6  and  C_22
REMARK    7  A    between atoms: C_8  and  C_9
REMARK    8  A    between atoms: O_12  and  C_13
REMARK    9  A    between atoms: C_13  and  C_14
REMARK   10  A    between atoms: C_26  and  O_27
REMARK   11  A    between atoms: C_29  and  C_30
REMARK                            x       y       z     vdW  Elec       q    Type
REMARK                         _______ _______ _______ _____ _____    ______ ____
ROOT
ATOM      1  C   UNL     1       4.836   4.887  17.116  0.00  0.00    +0.000 C 
ENDROOT
BRANCH   1   4
ATOM      2  C   UNL     1       5.996   4.009  13.566  0.00  0.00    +0.000 A 
ATOM      3  C   UNL     1       5.236   4.136  14.732  0.00  0.00    +0.000 A 
ATOM      4  C   UNL     1       5.626   4.954  15.805  0.00  0.00    +0.000 A 
ATOM      5  C   UNL     1       6.783   5.711  15.571  0.00  0.00    +0.000 A 
ATOM      6  N   UNL     1       7.510   5.661  14.430  0.00  0.00    +0.000 NA
ATOM      7  C   UNL     1       7.127   4.826  13.445  0.00  0.00    +0.000 A 
ATOM      8  C   UNL     1       7.987   4.789  12.217  0.00  0.00    +0.000 C 
BRANCH   2  10
ATOM      9  C   UNL     1       4.432   3.534  11.665  0.00  0.00    +0.000 C 
ATOM     10  C   UNL     1       5.562   3.007  12.531  0.00  0.00    +0.000 C 
ENDBRANCH   2  10
BRANCH   5  11
ATOM     11  O   UNL     1       7.355   6.550  16.472  0.00  0.00    +0.000 OA
ATOM     12  H   UNL     1       6.841   6.623  17.280  0.00  0.00    +0.000 HD
ENDBRANCH   5  11
ENDBRANCH   1   4
BRANCH   1  13
ATOM     13  C   UNL     1       5.817   4.603  18.360  0.00  0.00    +0.000 C 
ATOM     14  F   UNL     1       6.080   5.684  19.124  0.00  0.00    +0.000 F 
ATOM     15  F   UNL     1       5.287   3.667  19.198  0.00  0.00    +0.000 F 
ATOM     16  F   UNL     1       7.028   4.120  17.988  0.00  0.00    +0.000 F 
ENDBRANCH   1  13
BRANCH   1  17
ATOM     17  C   UNL     1       4.151   6.218  17.382  0.00  0.00    +0.000 C 
ATOM     18  C   UNL     1       3.563   7.359  17.611  0.00  0.00    +0.000 C 
BRANCH  18  19
ATOM     19  C   UNL     1       2.922   8.620  17.833  0.00  0.00    +0.000 C 
ATOM     20  C   UNL     1       1.445   8.739  17.565  0.00  0.00    +0.000 C 
ATOM     21  C   UNL     1       1.950   8.734  18.979  0.00  0.00    +0.000 C 
ENDBRANCH  18  19
ENDBRANCH   1  17
BRANCH   1  22
ATOM     22  O   UNL     1       3.794   3.868  17.014  0.00  0.00    +0.000 OA
BRANCH  22  23
ATOM     23  C   UNL     1       2.513   4.234  17.528  0.00  0.00    +0.000 C 
BRANCH  23  24
ATOM     24  C   UNL     1       2.263   3.740  18.922  0.00  0.00    +0.000 A 
ATOM     25  C   UNL     1       1.931   4.559  20.000  0.00  0.00    +0.000 A 
ATOM     26  F   UNL     1       1.941   5.894  19.878  0.00  0.00    +0.000 F 
ATOM     27  C   UNL     1       1.538   4.014  21.224  0.00  0.00    +0.000 A 
ATOM     28  C   UNL     1       1.455   2.631  21.380  0.00  0.00    +0.000 A 
ATOM     29  C   UNL     1       1.787   1.796  20.319  0.00  0.00    +0.000 A 
ATOM     30  C   UNL     1       2.186   2.356  19.108  0.00  0.00    +0.000 A 
ATOM     31  F   UNL     1       2.457   1.536  18.083  0.00  0.00    +0.000 F 
ENDBRANCH  23  24
ENDBRANCH  22  23
ENDBRANCH   1  22
TORSDOF 9
ENDMDL
MODEL 4
REMARK VINA RESULT:      -7.8      1.020      1.635
REMARK  Name = 
REMARK  11 active torsions:
REMARK  status: ('A' for Active; 'I' for Inactive)
REMARK    1  A    between atoms: C_1  and  C_2
REMARK    2  A    between atoms: C_2  and  C_3
REMARK    3  A    between atoms: C_5  and  C_6
REMARK    4  A    between atoms: C_6  and  C_7
REMARK    5  A    between atoms: C_6  and  O_12
REMARK    6  A    between atoms: C_6  and  C_22
REMARK    7  A    between atoms: C_8  and  C_9
REMARK    8  A    between atoms: O_12  and  C_13
REMARK    9  A    between atoms: C_13  and  C_14
REMARK   10  A    between atoms: C_26  and  O_27
REMARK   11  A    between atoms: C_29  and  C_30
REMARK                            x       y       z     vdW  Elec       q    Type
REMARK                         _______ _______ _______ _____ _____    ______ ____
ROOT
ATOM      1  C   UNL     1       5.338   4.650  17.237  0.00  0.00    +0.000 C 
ENDROOT
BRANCH   1   4
ATOM      2  C   UNL     1       6.005   3.850  13.544  0.00  0.00    +0.000 A 
ATOM      3  C   UNL     1       5.424   3.926  14.812  0.00  0.00    +0.000 A 
ATOM      4  C   UNL     1       5.915   4.770  15.822  0.00  0.00    +0.000 A 
ATOM      5  C   UNL     1       6.969   5.604  15.424  0.00  0.00    +0.000 A 
ATOM      6  N   UNL     1       7.517   5.602  14.186  0.00  0.00    +0.000 NA
ATOM      7  C   UNL     1       7.047   4.742  13.262  0.00  0.00    +0.000 A 
ATOM      8  C   UNL     1       7.713   4.763  11.918  0.00  0.00    +0.000 C 
BRANCH   2  10
ATOM      9  C   UNL     1       4.399   3.377  11.679  0.00  0.00    +0.000 C 
ATOM     10  C   UNL     1       5.489   2.820  12.577  0.00  0.00    +0.000 C 
ENDBRANCH   2  10
BRANCH   5  11
ATOM     11  O   UNL     1       7.613   6.480  16.236  0.00  0.00    +0.000 OA
ATOM     12  H   UNL     1       8.451   6.771  15.867  0.00  0.00    +0.000 HD
ENDBRANCH   5  11
ENDBRANCH   1   4
BRANCH   1  13
ATOM     13  C   UNL     1       6.464   4.972  18.341  0.00  0.00    +0.000 C 
ATOM     14  F   UNL     1       6.777   6.280  18.456  0.00  0.00    +0.000 F 
ATOM     15  F   UNL     1       6.063   4.568  19.580  0.00  0.00    +0.000 F 
ATOM     16  F   UNL     1       7.639   4.337  18.109  0.00  0.00    +0.000 F 
ENDBRANCH   1  13
BRANCH   1  17
ATOM     17  C   UNL     1       4.219   5.660  17.432  0.00  0.00    +0.000 C 
ATOM     18  C   UNL     1       3.259   6.526  17.599  0.00  0.00    +0.000 C 
BRANCH  18  19
ATOM     19  C   UNL     1       2.185   7.454  17.787  0.00  0.00    +0.000 C 
ATOM     20  C   UNL     1       2.058   8.157  19.112  0.00  0.00    +0.000 C 
ATOM     21  C   UNL     1       2.520   8.919  17.903  0.00  0.00    +0.000 C 
ENDBRANCH  18  19
ENDBRANCH   1  17
BRANCH   1  22
ATOM     22  O   UNL     1       4.769   3.319  17.427  0.00  0.00    +0.000 OA
BRANCH  22  23
ATOM     23  C   UNL     1       3.343   3.243  17.412  0.00  0.00    +0.000 C 
BRANCH  23  24
ATOM     24  C   UNL     1       2.725   3.302  18.778  0.00  0.00    +0.000 A 
ATOM     25  C   UNL     1       1.458   3.815  19.048  0.00  0.00    +0.000 A 
ATOM     26  F   UNL     1       0.743   4.421  18.089  0.00  0.00    +0.000 F 
ATOM     27  C   UNL     1       0.877   3.674  20.310  0.00  0.00    +0.000 A 
ATOM     28  C   UNL     1       1.558   2.997  21.322  0.00  0.00    +0.000 A 
ATOM     29  C   UNL     1       2.826   2.484  21.075  0.00  0.00    +0.000 A 
ATOM     30  C   UNL     1       3.394   2.642  19.814  0.00  0.00    +0.000 A 
ATOM     31  F   UNL     1       4.597   2.099  19.582  0.00  0.00    +0.000 F 
ENDBRANCH  23  24
ENDBRANCH  22  23
ENDBRANCH   1  22
TORSDOF 9
ENDMDL
MODEL 5
REMARK VINA RESULT:      -7.7      1.027      1.101
REMARK  Name = 
REMARK  11 active torsions:
REMARK  status: ('A' for Active; 'I' for Inactive)
REMARK    1  A    between atoms: C_1  and  C_2
REMARK    2  A    between atoms: C_2  and  C_3
REMARK    3  A    between atoms: C_5  and  C_6
REMARK    4  A    between atoms: C_6  and  C_7
REMARK    5  A    between atoms: C_6  and  O_12
REMARK    6  A    between atoms: C_6  and  C_22
REMARK    7  A    between atoms: C_8  and  C_9
REMARK    8  A    between atoms: O_12  and  C_13
REMARK    9  A    between atoms: C_13  and  C_14
REMARK   10  A    between atoms: C_26  and  O_27
REMARK   11  A    between atoms: C_29  and  C_30
REMARK                            x       y       z     vdW  Elec       q    Type
REMARK                         _______ _______ _______ _____ _____    ______ ____
ROOT
ATOM      1  C   UNL     1       5.520   4.780  17.062  0.00  0.00    +0.000 C 
ENDROOT
BRANCH   1   4
ATOM      2  C   UNL     1       6.006   3.851  13.371  0.00  0.00    +0.000 A 
ATOM      3  C   UNL     1       5.477   3.989  14.657  0.00  0.00    +0.000 A 
ATOM      4  C   UNL     1       6.048   4.832  15.624  0.00  0.00    +0.000 A 
ATOM      5  C   UNL     1       7.127   5.601  15.165  0.00  0.00    +0.000 A 
ATOM      6  N   UNL     1       7.627   5.539  13.909  0.00  0.00    +0.000 NA
ATOM      7  C   UNL     1       7.080   4.680  13.027  0.00  0.00    +0.000 A 
ATOM      8  C   UNL     1       7.695   4.633  11.659  0.00  0.00    +0.000 C 
BRANCH   2  10
ATOM      9  C   UNL     1       4.303   3.410  11.585  0.00  0.00    +0.000 C 
ATOM     10  C   UNL     1       5.403   2.824  12.452  0.00  0.00    +0.000 C 
ENDBRANCH   2  10
BRANCH   5  11
ATOM     11  O   UNL     1       7.844   6.464  15.929  0.00  0.00    +0.000 OA
ATOM     12  H   UNL     1       7.599   6.421  16.856  0.00  0.00    +0.000 HD
ENDBRANCH   5  11
ENDBRANCH   1   4
BRANCH   1  13
ATOM     13  C   UNL     1       6.732   4.841  18.118  0.00  0.00    +0.000 C 
ATOM     14  F   UNL     1       7.816   4.116  17.769  0.00  0.00    +0.000 F 
ATOM     15  F   UNL     1       7.171   6.122  18.285  0.00  0.00    +0.000 F 
ATOM     16  F   UNL     1       6.388   4.406  19.356  0.00  0.00    +0.000 F 
ENDBRANCH   1  13
BRANCH   1  17
ATOM     17  C   UNL     1       4.627   5.979  17.336  0.00  0.00    +0.000 C 
ATOM     18  C   UNL     1       3.861   7.008  17.569  0.00  0.00    +0.000 C 
BRANCH  18  19
ATOM     19  C   UNL     1       3.005   8.122  17.847  0.00  0.00    +0.000 C 
ATOM     20  C   UNL     1       1.516   7.942  17.717  0.00  0.00    +0.000 C 
ATOM     21  C   UNL     1       2.138   8.064  19.078  0.00  0.00    +0.000 C 
ENDBRANCH  18  19
ENDBRANCH   1  17
BRANCH   1  22
ATOM     22  O   UNL     1       4.711   3.577  17.247  0.00  0.00    +0.000 OA
BRANCH  22  23
ATOM     23  C   UNL     1       4.415   3.228  18.599  0.00  0.00    +0.000 C 
BRANCH  23  24
ATOM     24  C   UNL     1       2.959   3.340  18.943  0.00  0.00    +0.000 A 
ATOM     25  C   UNL     1       1.974   2.464  18.491  0.00  0.00    +0.000 A 
ATOM     26  F   UNL     1       2.259   1.512  17.590  0.00  0.00    +0.000 F 
ATOM     27  C   UNL     1       0.673   2.522  18.994  0.00  0.00    +0.000 A 
ATOM     28  C   UNL     1       0.342   3.456  19.976  0.00  0.00    +0.000 A 
ATOM     29  C   UNL     1       1.310   4.343  20.435  0.00  0.00    +0.000 A 
ATOM     30  C   UNL     1       2.600   4.276  19.916  0.00  0.00    +0.000 A 
ATOM     31  F   UNL     1       3.530   5.109  20.407  0.00  0.00    +0.000 F 
ENDBRANCH  23  24
ENDBRANCH  22  23
ENDBRANCH   1  22
TORSDOF 9
ENDMDL
MODEL 6
REMARK VINA RESULT:      -7.7      0.984      1.764
REMARK  Name = 
REMARK  11 active torsions:
REMARK  status: ('A' for Active; 'I' for Inactive)
REMARK    1  A    between atoms: C_1  and  C_2
REMARK    2  A    between atoms: C_2  and  C_3
REMARK    3  A    between atoms: C_5  and  C_6
REMARK    4  A    between atoms: C_6  and  C_7
REMARK    5  A    between atoms: C_6  and  O_12
REMARK    6  A    between atoms: C_6  and  C_22
REMARK    7  A    between atoms: C_8  and  C_9
REMARK    8  A    between atoms: O_12  and  C_13
REMARK    9  A    between atoms: C_13  and  C_14
REMARK   10  A    between atoms: C_26  and  O_27
REMARK   11  A    between atoms: C_29  and  C_30
REMARK                            x       y       z     vdW  Elec       q    Type
REMARK                         _______ _______ _______ _____ _____    ______ ____
ROOT
ATOM      1  C   UNL     1       5.401   4.807  17.091  0.00  0.00    +0.000 C 
ENDROOT
BRANCH   1   4
ATOM      2  C   UNL     1       5.958   3.856  13.416  0.00  0.00    +0.000 A 
ATOM      3  C   UNL     1       5.402   4.008  14.689  0.00  0.00    +0.000 A 
ATOM      4  C   UNL     1       5.963   4.846  15.666  0.00  0.00    +0.000 A 
ATOM      5  C   UNL     1       7.065   5.596  15.229  0.00  0.00    +0.000 A 
ATOM      6  N   UNL     1       7.593   5.520  13.985  0.00  0.00    +0.000 NA
ATOM      7  C   UNL     1       7.053   4.667  13.094  0.00  0.00    +0.000 A 
ATOM      8  C   UNL     1       7.698   4.604  11.741  0.00  0.00    +0.000 C 
BRANCH   2  10
ATOM      9  C   UNL     1       4.293   3.436  11.589  0.00  0.00    +0.000 C 
ATOM     10  C   UNL     1       5.360   2.835  12.488  0.00  0.00    +0.000 C 
ENDBRANCH   2  10
BRANCH   5  11
ATOM     11  O   UNL     1       7.778   6.450  16.006  0.00  0.00    +0.000 OA
ATOM     12  H   UNL     1       8.576   6.046  16.354  0.00  0.00    +0.000 HD
ENDBRANCH   5  11
ENDBRANCH   1   4
BRANCH   1  13
ATOM     13  C   UNL     1       6.591   4.831  18.175  0.00  0.00    +0.000 C 
ATOM     14  F   UNL     1       7.689   4.134  17.816  0.00  0.00    +0.000 F 
ATOM     15  F   UNL     1       7.012   6.106  18.411  0.00  0.00    +0.000 F 
ATOM     16  F   UNL     1       6.225   4.335  19.383  0.00  0.00    +0.000 F 
ENDBRANCH   1  13
BRANCH   1  17
ATOM     17  C   UNL     1       4.539   6.032  17.347  0.00  0.00    +0.000 C 
ATOM     18  C   UNL     1       3.799   7.083  17.565  0.00  0.00    +0.000 C 
BRANCH  18  19
ATOM     19  C   UNL     1       2.993   8.236  17.835  0.00  0.00    +0.000 C 
ATOM     20  C   UNL     1       1.501   8.134  17.659  0.00  0.00    +0.000 C 
ATOM     21  C   UNL     1       2.087   8.206  19.039  0.00  0.00    +0.000 C 
ENDBRANCH  18  19
ENDBRANCH   1  17
BRANCH   1  22
ATOM     22  O   UNL     1       4.553   3.629  17.256  0.00  0.00    +0.000 OA
BRANCH  22  23
ATOM     23  C   UNL     1       4.478   3.095  18.577  0.00  0.00    +0.000 C 
BRANCH  23  24
ATOM     24  C   UNL     1       3.135   3.275  19.222  0.00  0.00    +0.000 A 
ATOM     25  C   UNL     1       2.781   4.366  20.014  0.00  0.00    +0.000 A 
ATOM     26  F   UNL     1       3.692   5.286  20.364  0.00  0.00    +0.000 F 
ATOM     27  C   UNL     1       1.463   4.555  20.432  0.00  0.00    +0.000 A 
ATOM     28  C   UNL     1       0.469   3.656  20.044  0.00  0.00    +0.000 A 
ATOM     29  C   UNL     1       0.803   2.559  19.259  0.00  0.00    +0.000 A 
ATOM     30  C   UNL     1       2.124   2.380  18.859  0.00  0.00    +0.000 A 
ATOM     31  F   UNL     1       2.416   1.342  18.063  0.00  0.00    +0.000 F 
ENDBRANCH  23  24
ENDBRANCH  22  23
ENDBRANCH   1  22
TORSDOF 9
ENDMDL
MODEL 7
REMARK VINA RESULT:      -7.5      0.945      1.378
REMARK  Name = 
REMARK  11 active torsions:
REMARK  status: ('A' for Active; 'I' for Inactive)
REMARK    1  A    between atoms: C_1  and  C_2
REMARK    2  A    between atoms: C_2  and  C_3
REMARK    3  A    between atoms: C_5  and  C_6
REMARK    4  A    between atoms: C_6  and  C_7
REMARK    5  A    between atoms: C_6  and  O_12
REMARK    6  A    between atoms: C_6  and  C_22
REMARK    7  A    between atoms: C_8  and  C_9
REMARK    8  A    between atoms: O_12  and  C_13
REMARK    9  A    between atoms: C_13  and  C_14
REMARK   10  A    between atoms: C_26  and  O_27
REMARK   11  A    between atoms: C_29  and  C_30
REMARK                            x       y       z     vdW  Elec       q    Type
REMARK                         _______ _______ _______ _____ _____    ______ ____
ROOT
ATOM      1  C   UNL     1       4.890   4.997  17.243  0.00  0.00    +0.000 C 
ENDROOT
BRANCH   1   4
ATOM      2  C   UNL     1       5.909   4.018  13.676  0.00  0.00    +0.000 A 
ATOM      3  C   UNL     1       5.193   4.184  14.864  0.00  0.00    +0.000 A 
ATOM      4  C   UNL     1       5.634   5.020  15.904  0.00  0.00    +0.000 A 
ATOM      5  C   UNL     1       6.793   5.753  15.612  0.00  0.00    +0.000 A 
ATOM      6  N   UNL     1       7.478   5.664  14.447  0.00  0.00    +0.000 NA
ATOM      7  C   UNL     1       7.048   4.813  13.496  0.00  0.00    +0.000 A 
ATOM      8  C   UNL     1       7.863   4.734  12.240  0.00  0.00    +0.000 C 
BRANCH   2  10
ATOM      9  C   UNL     1       4.395   3.580  11.727  0.00  0.00    +0.000 C 
ATOM     10  C   UNL     1       5.423   3.000  12.681  0.00  0.00    +0.000 C 
ENDBRANCH   2  10
BRANCH   5  11
ATOM     11  O   UNL     1       7.411   6.603  16.472  0.00  0.00    +0.000 OA
ATOM     12  H   UNL     1       7.013   6.589  17.345  0.00  0.00    +0.000 HD
ENDBRANCH   5  11
ENDBRANCH   1   4
BRANCH   1  13
ATOM     13  C   UNL     1       5.924   4.849  18.468  0.00  0.00    +0.000 C 
ATOM     14  F   UNL     1       5.373   4.397  19.614  0.00  0.00    +0.000 F 
ATOM     15  F   UNL     1       6.926   3.977  18.159  0.00  0.00    +0.000 F 
ATOM     16  F   UNL     1       6.537   6.014  18.795  0.00  0.00    +0.000 F 
ENDBRANCH   1  13
BRANCH   1  17
ATOM     17  C   UNL     1       4.139   6.303  17.447  0.00  0.00    +0.000 C 
ATOM     18  C   UNL     1       3.494   7.423  17.622  0.00  0.00    +0.000 C 
BRANCH  18  19
ATOM     19  C   UNL     1       2.800   8.655  17.841  0.00  0.00    +0.000 C 
ATOM     20  C   UNL     1       1.324   8.718  17.551  0.00  0.00    +0.000 C 
ATOM     21  C   UNL     1       1.808   8.723  18.973  0.00  0.00    +0.000 C 
ENDBRANCH  18  19
ENDBRANCH   1  17
BRANCH   1  22
ATOM     22  O   UNL     1       3.905   3.918  17.243  0.00  0.00    +0.000 OA
BRANCH  22  23
ATOM     23  C   UNL     1       4.136   2.863  18.176  0.00  0.00    +0.000 C 
BRANCH  23  24
ATOM     24  C   UNL     1       3.111   2.794  19.269  0.00  0.00    +0.000 A 
ATOM     25  C   UNL     1       3.384   2.421  20.584  0.00  0.00    +0.000 A 
ATOM     26  F   UNL     1       4.596   1.965  20.931  0.00  0.00    +0.000 F 
ATOM     27  C   UNL     1       2.420   2.552  21.585  0.00  0.00    +0.000 A 
ATOM     28  C   UNL     1       1.164   3.078  21.284  0.00  0.00    +0.000 A 
ATOM     29  C   UNL     1       0.869   3.451  19.977  0.00  0.00    +0.000 A 
ATOM     30  C   UNL     1       1.839   3.305  18.989  0.00  0.00    +0.000 A 
ATOM     31  F   UNL     1       1.552   3.714  17.745  0.00  0.00    +0.000 F 
ENDBRANCH  23  24
ENDBRANCH  22  23
ENDBRANCH   1  22
TORSDOF 9
ENDMDL
MODEL 8
REMARK VINA RESULT:      -7.1      4.613      8.005
REMARK  Name = 
REMARK  11 active torsions:
REMARK  status: ('A' for Active; 'I' for Inactive)
REMARK    1  A    between atoms: C_1  and  C_2
REMARK    2  A    between atoms: C_2  and  C_3
REMARK    3  A    between atoms: C_5  and  C_6
REMARK    4  A    between atoms: C_6  and  C_7
REMARK    5  A    between atoms: C_6  and  O_12
REMARK    6  A    between atoms: C_6  and  C_22
REMARK    7  A    between atoms: C_8  and  C_9
REMARK    8  A    between atoms: O_12  and  C_13
REMARK    9  A    between atoms: C_13  and  C_14
REMARK   10  A    between atoms: C_26  and  O_27
REMARK   11  A    between atoms: C_29  and  C_30
REMARK                            x       y       z     vdW  Elec       q    Type
REMARK                         _______ _______ _______ _____ _____    ______ ____
ROOT
ATOM      1  C   UNL     1       0.537   9.860  20.197  0.00  0.00    +0.000 C 
ENDROOT
BRANCH   1   4
ATOM      2  C   UNL     1       2.643   6.796  19.247  0.00  0.00    +0.000 A 
ATOM      3  C   UNL     1       1.727   7.649  19.867  0.00  0.00    +0.000 A 
ATOM      4  C   UNL     1       1.403   8.916  19.355  0.00  0.00    +0.000 A 
ATOM      5  C   UNL     1       1.994   9.214  18.119  0.00  0.00    +0.000 A 
ATOM      6  N   UNL     1       2.838   8.387  17.458  0.00  0.00    +0.000 NA
ATOM      7  C   UNL     1       3.159   7.201  18.009  0.00  0.00    +0.000 A 
ATOM      8  C   UNL     1       4.122   6.339  17.247  0.00  0.00    +0.000 C 
BRANCH   2  10
ATOM      9  C   UNL     1       1.833   4.867  20.627  0.00  0.00    +0.000 C 
ATOM     10  C   UNL     1       3.022   5.518  19.943  0.00  0.00    +0.000 C 
ENDBRANCH   2  10
BRANCH   5  11
ATOM     11  O   UNL     1       1.842  10.385  17.450  0.00  0.00    +0.000 OA
ATOM     12  H   UNL     1       1.413  10.266  16.600  0.00  0.00    +0.000 HD
ENDBRANCH   5  11
ENDBRANCH   1   4
BRANCH   1  13
ATOM     13  C   UNL     1       0.576   9.437  21.749  0.00  0.00    +0.000 C 
ATOM     14  F   UNL     1       1.797   9.086  22.204  0.00  0.00    +0.000 F 
ATOM     15  F   UNL     1       0.156  10.462  22.546  0.00  0.00    +0.000 F 
ATOM     16  F   UNL     1      -0.235   8.389  22.040  0.00  0.00    +0.000 F 
ENDBRANCH   1  13
BRANCH   1  17
ATOM     17  C   UNL     1       1.072  11.280  20.107  0.00  0.00    +0.000 C 
ATOM     18  C   UNL     1       1.530  12.498  20.030  0.00  0.00    +0.000 C 
BRANCH  18  19
ATOM     19  C   UNL     1       2.061  13.825  19.951  0.00  0.00    +0.000 C 
ATOM     20  C   UNL     1       3.254  14.077  19.068  0.00  0.00    +0.000 C 
ATOM     21  C   UNL     1       1.901  14.582  18.658  0.00  0.00    +0.000 C 
ENDBRANCH  18  19
ENDBRANCH   1  17
BRANCH   1  22
ATOM     22  O   UNL     1      -0.829   9.870  19.680  0.00  0.00    +0.000 OA
BRANCH  22  23
ATOM     23  C   UNL     1      -1.250  11.084  19.058  0.00  0.00    +0.000 C 
BRANCH  23  24
ATOM     24  C   UNL     1      -2.343  10.893  18.048  0.00  0.00    +0.000 A 
ATOM     25  C   UNL     1      -3.548  11.593  18.049  0.00  0.00    +0.000 A 
ATOM     26  F   UNL     1      -3.865  12.415  19.060  0.00  0.00    +0.000 F 
ATOM     27  C   UNL     1      -4.440  11.493  16.980  0.00  0.00    +0.000 A 
ATOM     28  C   UNL     1      -4.127  10.697  15.878  0.00  0.00    +0.000 A 
ATOM     29  C   UNL     1      -2.932   9.986  15.861  0.00  0.00    +0.000 A 
ATOM     30  C   UNL     1      -2.058  10.090  16.940  0.00  0.00    +0.000 A 
ATOM     31  F   UNL     1      -0.890   9.433  16.882  0.00  0.00    +0.000 F 
ENDBRANCH  23  24
ENDBRANCH  22  23
ENDBRANCH   1  22
TORSDOF 9
ENDMDL
MODEL 9
REMARK VINA RESULT:      -7.1      6.057     10.278
REMARK  Name = 
REMARK  11 active torsions:
REMARK  status: ('A' for Active; 'I' for Inactive)
REMARK    1  A    between atoms: C_1  and  C_2
REMARK    2  A    between atoms: C_2  and  C_3
REMARK    3  A    between atoms: C_5  and  C_6
REMARK    4  A    between atoms: C_6  and  C_7
REMARK    5  A    between atoms: C_6  and  O_12
REMARK    6  A    between atoms: C_6  and  C_22
REMARK    7  A    between atoms: C_8  and  C_9
REMARK    8  A    between atoms: O_12  and  C_13
REMARK    9  A    between atoms: C_13  and  C_14
REMARK   10  A    between atoms: C_26  and  O_27
REMARK   11  A    between atoms: C_29  and  C_30
REMARK                            x       y       z     vdW  Elec       q    Type
REMARK                         _______ _______ _______ _____ _____    ______ ____
ROOT
ATOM      1  C   UNL     1       0.362  10.477  20.296  0.00  0.00    +0.000 C 
ENDROOT
BRANCH   1   4
ATOM      2  C   UNL     1      -2.694  10.542  17.978  0.00  0.00    +0.000 A 
ATOM      3  C   UNL     1      -1.518  10.163  18.629  0.00  0.00    +0.000 A 
ATOM      4  C   UNL     1      -1.028  10.836  19.761  0.00  0.00    +0.000 A 
ATOM      5  C   UNL     1      -1.866  11.850  20.245  0.00  0.00    +0.000 A 
ATOM      6  N   UNL     1      -3.043  12.204  19.676  0.00  0.00    +0.000 NA
ATOM      7  C   UNL     1      -3.451  11.564  18.563  0.00  0.00    +0.000 A 
ATOM      8  C   UNL     1      -4.747  12.018  17.959  0.00  0.00    +0.000 C 
BRANCH   2  10
ATOM      9  C   UNL     1      -2.710  10.670  15.474  0.00  0.00    +0.000 C 
ATOM     10  C   UNL     1      -3.064   9.843  16.698  0.00  0.00    +0.000 C 
ENDBRANCH   2  10
BRANCH   5  11
ATOM     11  O   UNL     1      -1.587  12.646  21.309  0.00  0.00    +0.000 OA
ATOM     12  H   UNL     1      -1.688  12.184  22.144  0.00  0.00    +0.000 HD
ENDBRANCH   5  11
ENDBRANCH   1   4
BRANCH   1  13
ATOM     13  C   UNL     1       0.248   9.659  21.677  0.00  0.00    +0.000 C 
ATOM     14  F   UNL     1      -0.159  10.396  22.733  0.00  0.00    +0.000 F 
ATOM     15  F   UNL     1      -0.644   8.633  21.566  0.00  0.00    +0.000 F 
ATOM     16  F   UNL     1       1.418   9.090  22.062  0.00  0.00    +0.000 F 
ENDBRANCH   1  13
BRANCH   1  17
ATOM     17  C   UNL     1       1.089   9.582  19.306  0.00  0.00    +0.000 C 
ATOM     18  C   UNL     1       1.712   8.815  18.455  0.00  0.00    +0.000 C 
BRANCH  18  19
ATOM     19  C   UNL     1       2.401   7.952  17.544  0.00  0.00    +0.000 C 
ATOM     20  C   UNL     1       3.741   7.395  17.946  0.00  0.00    +0.000 C 
ATOM     21  C   UNL     1       2.539   6.496  17.906  0.00  0.00    +0.000 C 
ENDBRANCH  18  19
ENDBRANCH   1  17
BRANCH   1  22
ATOM     22  O   UNL     1       1.158  11.691  20.459  0.00  0.00    +0.000 OA
BRANCH  22  23
ATOM     23  C   UNL     1       1.457  12.404  19.259  0.00  0.00    +0.000 C 
BRANCH  23  24
ATOM     24  C   UNL     1       1.283  13.889  19.384  0.00  0.00    +0.000 A 
ATOM     25  C   UNL     1       2.187  14.737  20.020  0.00  0.00    +0.000 A 
ATOM     26  F   UNL     1       3.239  14.244  20.690  0.00  0.00    +0.000 F 
ATOM     27  C   UNL     1       2.051  16.124  19.942  0.00  0.00    +0.000 A 
ATOM     28  C   UNL     1       1.006  16.685  19.207  0.00  0.00    +0.000 A 
ATOM     29  C   UNL     1       0.090  15.856  18.571  0.00  0.00    +0.000 A 
ATOM     30  C   UNL     1       0.236  14.475  18.666  0.00  0.00    +0.000 A 
ATOM     31  F   UNL     1      -0.631  13.693  18.006  0.00  0.00    +0.000 F 
ENDBRANCH  23  24
ENDBRANCH  22  23
ENDBRANCH   1  22
TORSDOF 9
ENDMDL
