MODEL 1
REMARK VINA RESULT:      -7.5      0.000      0.000
REMARK  Name = 
REMARK  9 active torsions:
REMARK  status: ('A' for Active; 'I' for Inactive)
REMARK    1  A    between atoms: C_1  and  C_2
REMARK    2  A    between atoms: C_4  and  C_5
REMARK    3  A    between atoms: C_10  and  N_11
REMARK    4  A    between atoms: C_13  and  C_14
REMARK    5  A    between atoms: C_14  and  C_15
REMARK    6  A    between atoms: C_14  and  C_16
REMARK    7  A    between atoms: C_18  and  N_19
REMARK    8  A    between atoms: C_22  and  C_23
REMARK    9  A    between atoms: N_26  and  C_27
REMARK                            x       y       z     vdW  Elec       q    Type
REMARK                         _______ _______ _______ _____ _____    ______ ____
ROOT
ATOM      1  N   UNL     1      -1.614  12.088  21.294  0.00  0.00    +0.000 N 
ATOM      2  N   UNL     1      -1.820  12.046  19.955  0.00  0.00    +0.000 NA
ATOM      3  C   UNL     1      -0.990  11.108  19.481  0.00  0.00    +0.000 A 
ATOM      4  C   UNL     1      -0.242  10.483  20.539  0.00  0.00    +0.000 A 
ATOM      5  C   UNL     1       0.694   9.432  20.742  0.00  0.00    +0.000 A 
ATOM      6  C   UNL     1       0.978   9.042  22.063  0.00  0.00    +0.000 A 
ATOM      7  C   UNL     1       0.416   9.744  23.109  0.00  0.00    +0.000 A 
ATOM      8  N   UNL     1      -0.409  10.792  22.976  0.00  0.00    +0.000 NA
ATOM      9  C   UNL     1      -0.714  11.111  21.696  0.00  0.00    +0.000 A 
ENDROOT
BRANCH   1  16
ATOM     10  C   UNL     1      -0.142  14.477  22.359  0.00  0.00    +0.000 C 
ATOM     11  C   UNL     1      -1.581  14.158  22.672  0.00  0.00    +0.000 A 
ATOM     12  C   UNL     1      -2.283  15.056  23.509  0.00  0.00    +0.000 A 
ATOM     13  C   UNL     1      -3.648  14.888  23.782  0.00  0.00    +0.000 A 
ATOM     14  C   UNL     1      -4.322  13.808  23.204  0.00  0.00    +0.000 A 
ATOM     15  C   UNL     1      -3.646  12.908  22.373  0.00  0.00    +0.000 A 
ATOM     16  C   UNL     1      -2.274  13.061  22.110  0.00  0.00    +0.000 A 
BRANCH  13  17
ATOM     17  C   UNL     1      -4.435  15.815  24.650  0.00  0.00    +0.000 C 
ATOM     18  N   UNL     1      -5.798  15.839  24.518  0.00  0.00    +0.000 N 
ATOM     19  O   UNL     1      -3.892  16.544  25.467  0.00  0.00    +0.000 OA
ATOM     20  H   UNL     1      -6.335  15.303  23.857  0.00  0.00    +0.000 HD
ATOM     21  H   UNL     1      -6.296  16.490  25.112  0.00  0.00    +0.000 HD
ENDBRANCH  13  17
ENDBRANCH   1  16
BRANCH   5  22
ATOM     22  N   UNL     1       1.355   8.744  19.699  0.00  0.00    +0.000 N 
ATOM     23  C   UNL     1       1.746   9.249  18.483  0.00  0.00    +0.000 A 
ATOM     24  N   UNL     1       2.310   8.347  17.715  0.00  0.00    +0.000 NA
ATOM     25  C   UNL     1       2.403   7.236  18.500  0.00  0.00    +0.000 A 
ATOM     26  C   UNL     1       1.834   7.454  19.733  0.00  0.00    +0.000 A 
BRANCH  25  27
ATOM     27  C   UNL     1       3.096   6.059  18.027  0.00  0.00    +0.000 A 
ATOM     28  C   UNL     1       2.598   4.744  18.078  0.00  0.00    +0.000 A 
ATOM     29  N   UNL     1       3.434   3.869  17.508  0.00  0.00    +0.000 NA
ATOM     30  N   UNL     1       4.457   4.639  17.092  0.00  0.00    +0.000 N 
ATOM     31  C   UNL     1       5.551   4.050  16.356  0.00  0.00    +0.000 C 
ATOM     32  C   UNL     1       4.313   5.960  17.396  0.00  0.00    +0.000 A 
ENDBRANCH  25  27
ENDBRANCH   5  22
BRANCH   3  33
ATOM     33  C   UNL     1      -0.996  10.828  17.990  0.00  0.00    +0.000 C 
ATOM     34  C   UNL     1      -1.853   9.611  17.625  0.00  0.00    +0.000 C 
ATOM     35  C   UNL     1      -1.434  12.004  17.106  0.00  0.00    +0.000 C 
ENDBRANCH   3  33
TORSDOF 5
ENDMDL
MODEL 2
REMARK VINA RESULT:      -7.5      0.754      1.497
REMARK  Name = 
REMARK  9 active torsions:
REMARK  status: ('A' for Active; 'I' for Inactive)
REMARK    1  A    between atoms: C_1  and  C_2
REMARK    2  A    between atoms: C_4  and  C_5
REMARK    3  A    between atoms: C_10  and  N_11
REMARK    4  A    between atoms: C_13  and  C_14
REMARK    5  A    between atoms: C_14  and  C_15
REMARK    6  A    between atoms: C_14  and  C_16
REMARK    7  A    between atoms: C_18  and  N_19
REMARK    8  A    between atoms: C_22  and  C_23
REMARK    9  A    between atoms: N_26  and  C_27
REMARK                            x       y       z     vdW  Elec       q    Type
REMARK                         _______ _______ _______ _____ _____    ______ ____
ROOT
ATOM      1  N   UNL     1      -1.455  12.276  21.595  0.00  0.00    +0.000 N 
ATOM      2  N   UNL     1      -1.565  12.350  20.247  0.00  0.00    +0.000 NA
ATOM      3  C   UNL     1      -0.802  11.364  19.757  0.00  0.00    +0.000 A 
ATOM      4  C   UNL     1      -0.203  10.590  20.811  0.00  0.00    +0.000 A 
ATOM      5  C   UNL     1       0.604   9.433  20.993  0.00  0.00    +0.000 A 
ATOM      6  C   UNL     1       0.748   8.923  22.295  0.00  0.00    +0.000 A 
ATOM      7  C   UNL     1       0.185   9.605  23.353  0.00  0.00    +0.000 A 
ATOM      8  N   UNL     1      -0.516  10.743  23.247  0.00  0.00    +0.000 NA
ATOM      9  C   UNL     1      -0.692  11.182  21.979  0.00  0.00    +0.000 A 
ENDROOT
BRANCH   1  16
ATOM     10  C   UNL     1      -4.435  12.624  21.653  0.00  0.00    +0.000 C 
ATOM     11  C   UNL     1      -3.467  13.476  22.433  0.00  0.00    +0.000 A 
ATOM     12  C   UNL     1      -4.003  14.491  23.256  0.00  0.00    +0.000 A 
ATOM     13  C   UNL     1      -3.185  15.272  24.084  0.00  0.00    +0.000 A 
ATOM     14  C   UNL     1      -1.808  15.029  24.092  0.00  0.00    +0.000 A 
ATOM     15  C   UNL     1      -1.256  14.028  23.284  0.00  0.00    +0.000 A 
ATOM     16  C   UNL     1      -2.070  13.254  22.439  0.00  0.00    +0.000 A 
BRANCH  13  17
ATOM     17  C   UNL     1      -3.706  16.349  24.980  0.00  0.00    +0.000 C 
ATOM     18  N   UNL     1      -5.060  16.535  25.063  0.00  0.00    +0.000 N 
ATOM     19  O   UNL     1      -2.955  17.058  25.632  0.00  0.00    +0.000 OA
ATOM     20  H   UNL     1      -5.758  16.026  24.547  0.00  0.00    +0.000 HD
ATOM     21  H   UNL     1      -5.375  17.283  25.668  0.00  0.00    +0.000 HD
ENDBRANCH  13  17
ENDBRANCH   1  16
BRANCH   5  22
ATOM     22  N   UNL     1       1.266   8.752  19.945  0.00  0.00    +0.000 N 
ATOM     23  C   UNL     1       1.683   9.273  18.745  0.00  0.00    +0.000 A 
ATOM     24  N   UNL     1       2.241   8.375  17.967  0.00  0.00    +0.000 NA
ATOM     25  C   UNL     1       2.302   7.248  18.732  0.00  0.00    +0.000 A 
ATOM     26  C   UNL     1       1.721   7.453  19.961  0.00  0.00    +0.000 A 
BRANCH  25  27
ATOM     27  C   UNL     1       2.980   6.068  18.245  0.00  0.00    +0.000 A 
ATOM     28  C   UNL     1       4.198   6.059  17.541  0.00  0.00    +0.000 A 
ATOM     29  N   UNL     1       4.615   4.816  17.273  0.00  0.00    +0.000 NA
ATOM     30  N   UNL     1       3.656   4.042  17.817  0.00  0.00    +0.000 N 
ATOM     31  C   UNL     1       3.788   2.605  17.789  0.00  0.00    +0.000 C 
ATOM     32  C   UNL     1       2.641   4.744  18.396  0.00  0.00    +0.000 A 
ENDBRANCH  25  27
ENDBRANCH   5  22
BRANCH   3  33
ATOM     33  C   UNL     1      -0.727  11.191  18.251  0.00  0.00    +0.000 C 
ATOM     34  C   UNL     1      -1.711  10.139  17.731  0.00  0.00    +0.000 C 
ATOM     35  C   UNL     1      -0.926  12.477  17.435  0.00  0.00    +0.000 C 
ENDBRANCH   3  33
TORSDOF 5
ENDMDL
MODEL 3
REMARK VINA RESULT:      -7.3      1.234      1.411
REMARK  Name = 
REMARK  9 active torsions:
REMARK  status: ('A' for Active; 'I' for Inactive)
REMARK    1  A    between atoms: C_1  and  C_2
REMARK    2  A    between atoms: C_4  and  C_5
REMARK    3  A    between atoms: C_10  and  N_11
REMARK    4  A    between atoms: C_13  and  C_14
REMARK    5  A    between atoms: C_14  and  C_15
REMARK    6  A    between atoms: C_14  and  C_16
REMARK    7  A    between atoms: C_18  and  N_19
REMARK    8  A    between atoms: C_22  and  C_23
REMARK    9  A    between atoms: N_26  and  C_27
REMARK                            x       y       z     vdW  Elec       q    Type
REMARK                         _______ _______ _______ _____ _____    ______ ____
ROOT
ATOM      1  N   UNL     1      -2.422  12.279  20.786  0.00  0.00    +0.000 N 
ATOM      2  N   UNL     1      -2.589  12.122  19.450  0.00  0.00    +0.000 NA
ATOM      3  C   UNL     1      -1.598  11.318  19.044  0.00  0.00    +0.000 A 
ATOM      4  C   UNL     1      -0.776  10.898  20.146  0.00  0.00    +0.000 A 
ATOM      5  C   UNL     1       0.325  10.041  20.423  0.00  0.00    +0.000 A 
ATOM      6  C   UNL     1       0.646   9.786  21.767  0.00  0.00    +0.000 A 
ATOM      7  C   UNL     1      -0.051  10.439  22.762  0.00  0.00    +0.000 A 
ATOM      8  N   UNL     1      -1.044  11.316  22.556  0.00  0.00    +0.000 NA
ATOM      9  C   UNL     1      -1.373  11.501  21.257  0.00  0.00    +0.000 A 
ENDROOT
BRANCH   1  16
ATOM     10  C   UNL     1      -1.583  15.108  21.333  0.00  0.00    +0.000 C 
ATOM     11  C   UNL     1      -2.851  14.483  21.855  0.00  0.00    +0.000 A 
ATOM     12  C   UNL     1      -3.706  15.292  22.638  0.00  0.00    +0.000 A 
ATOM     13  C   UNL     1      -4.947  14.824  23.090  0.00  0.00    +0.000 A 
ATOM     14  C   UNL     1      -5.341  13.527  22.749  0.00  0.00    +0.000 A 
ATOM     15  C   UNL     1      -4.511  12.709  21.975  0.00  0.00    +0.000 A 
ATOM     16  C   UNL     1      -3.258  13.168  21.533  0.00  0.00    +0.000 A 
BRANCH  13  17
ATOM     17  C   UNL     1      -5.889  15.645  23.910  0.00  0.00    +0.000 C 
ATOM     18  N   UNL     1      -5.370  16.571  24.776  0.00  0.00    +0.000 N 
ATOM     19  O   UNL     1      -7.100  15.507  23.824  0.00  0.00    +0.000 OA
ATOM     20  H   UNL     1      -4.391  16.739  24.941  0.00  0.00    +0.000 HD
ATOM     21  H   UNL     1      -6.037  17.096  25.326  0.00  0.00    +0.000 HD
ENDBRANCH  13  17
ENDBRANCH   1  16
BRANCH   5  22
ATOM     22  N   UNL     1       1.118   9.419  19.430  0.00  0.00    +0.000 N 
ATOM     23  C   UNL     1       1.642   9.995  18.299  0.00  0.00    +0.000 A 
ATOM     24  N   UNL     1       2.309   9.143  17.557  0.00  0.00    +0.000 NA
ATOM     25  C   UNL     1       2.327   7.992  18.287  0.00  0.00    +0.000 A 
ATOM     26  C   UNL     1       1.612   8.135  19.453  0.00  0.00    +0.000 A 
BRANCH  25  27
ATOM     27  C   UNL     1       3.092   6.851  17.837  0.00  0.00    +0.000 A 
ATOM     28  C   UNL     1       4.345   6.909  17.199  0.00  0.00    +0.000 A 
ATOM     29  N   UNL     1       4.841   5.691  16.955  0.00  0.00    +0.000 NA
ATOM     30  N   UNL     1       3.899   4.865  17.447  0.00  0.00    +0.000 N 
ATOM     31  C   UNL     1       4.109   3.437  17.427  0.00  0.00    +0.000 C 
ATOM     32  C   UNL     1       2.818   5.510  17.971  0.00  0.00    +0.000 A 
ENDBRANCH  25  27
ENDBRANCH   5  22
BRANCH   3  33
ATOM     33  C   UNL     1      -1.525  10.953  17.572  0.00  0.00    +0.000 C 
ATOM     34  C   UNL     1      -1.673   9.447  17.332  0.00  0.00    +0.000 C 
ATOM     35  C   UNL     1      -2.528  11.682  16.667  0.00  0.00    +0.000 C 
ENDBRANCH   3  33
TORSDOF 5
ENDMDL
MODEL 4
REMARK VINA RESULT:      -6.9      6.303      7.820
REMARK  Name = 
REMARK  9 active torsions:
REMARK  status: ('A' for Active; 'I' for Inactive)
REMARK    1  A    between atoms: C_1  and  C_2
REMARK    2  A    between atoms: C_4  and  C_5
REMARK    3  A    between atoms: C_10  and  N_11
REMARK    4  A    between atoms: C_13  and  C_14
REMARK    5  A    between atoms: C_14  and  C_15
REMARK    6  A    between atoms: C_14  and  C_16
REMARK    7  A    between atoms: C_18  and  N_19
REMARK    8  A    between atoms: C_22  and  C_23
REMARK    9  A    between atoms: N_26  and  C_27
REMARK                            x       y       z     vdW  Elec       q    Type
REMARK                         _______ _______ _______ _____ _____    ______ ____
ROOT
ATOM      1  N   UNL     1       1.949  14.388  21.297  0.00  0.00    +0.000 N 
ATOM      2  N   UNL     1       3.045  14.117  22.047  0.00  0.00    +0.000 NA
ATOM      3  C   UNL     1       4.094  14.567  21.347  0.00  0.00    +0.000 A 
ATOM      4  C   UNL     1       3.680  15.189  20.118  0.00  0.00    +0.000 A 
ATOM      5  C   UNL     1       4.228  15.896  19.013  0.00  0.00    +0.000 A 
ATOM      6  C   UNL     1       3.341  16.528  18.123  0.00  0.00    +0.000 A 
ATOM      7  C   UNL     1       1.983  16.365  18.297  0.00  0.00    +0.000 A 
ATOM      8  N   UNL     1       1.413  15.645  19.273  0.00  0.00    +0.000 NA
ATOM      9  C   UNL     1       2.285  15.095  20.151  0.00  0.00    +0.000 A 
ENDROOT
BRANCH   1  16
ATOM     10  C   UNL     1       0.164  16.141  22.953  0.00  0.00    +0.000 C 
ATOM     11  C   UNL     1      -0.179  14.734  22.537  0.00  0.00    +0.000 A 
ATOM     12  C   UNL     1      -1.431  14.217  22.942  0.00  0.00    +0.000 A 
ATOM     13  C   UNL     1      -1.871  12.953  22.527  0.00  0.00    +0.000 A 
ATOM     14  C   UNL     1      -1.047  12.195  21.690  0.00  0.00    +0.000 A 
ATOM     15  C   UNL     1       0.197  12.687  21.278  0.00  0.00    +0.000 A 
ATOM     16  C   UNL     1       0.650  13.947  21.705  0.00  0.00    +0.000 A 
BRANCH  13  17
ATOM     17  C   UNL     1      -3.190  12.369  22.919  0.00  0.00    +0.000 C 
ATOM     18  N   UNL     1      -4.263  12.555  22.089  0.00  0.00    +0.000 N 
ATOM     19  O   UNL     1      -3.326  11.735  23.955  0.00  0.00    +0.000 OA
ATOM     20  H   UNL     1      -4.260  13.085  21.234  0.00  0.00    +0.000 HD
ATOM     21  H   UNL     1      -5.142  12.159  22.395  0.00  0.00    +0.000 HD
ENDBRANCH  13  17
ENDBRANCH   1  16
BRANCH   5  22
ATOM     22  N   UNL     1       5.613  16.015  18.752  0.00  0.00    +0.000 N 
ATOM     23  C   UNL     1       6.397  17.132  18.902  0.00  0.00    +0.000 A 
ATOM     24  N   UNL     1       7.643  16.931  18.545  0.00  0.00    +0.000 NA
ATOM     25  C   UNL     1       7.709  15.598  18.263  0.00  0.00    +0.000 A 
ATOM     26  C   UNL     1       6.476  15.004  18.394  0.00  0.00    +0.000 A 
BRANCH  25  27
ATOM     27  C   UNL     1       8.976  14.977  17.951  0.00  0.00    +0.000 A 
ATOM     28  C   UNL     1      10.165  15.661  17.640  0.00  0.00    +0.000 A 
ATOM     29  N   UNL     1      11.193  14.825  17.457  0.00  0.00    +0.000 NA
ATOM     30  N   UNL     1      10.647  13.611  17.660  0.00  0.00    +0.000 N 
ATOM     31  C   UNL     1      11.477  12.430  17.613  0.00  0.00    +0.000 C 
ATOM     32  C   UNL     1       9.314  13.644  17.940  0.00  0.00    +0.000 A 
ENDBRANCH  25  27
ENDBRANCH   5  22
BRANCH   3  33
ATOM     33  C   UNL     1       5.480  14.406  21.944  0.00  0.00    +0.000 C 
ATOM     34  C   UNL     1       6.068  15.734  22.432  0.00  0.00    +0.000 C 
ATOM     35  C   UNL     1       5.585  13.387  23.088  0.00  0.00    +0.000 C 
ENDBRANCH   3  33
TORSDOF 5
ENDMDL
MODEL 5
REMARK VINA RESULT:      -6.9      6.450      7.993
REMARK  Name = 
REMARK  9 active torsions:
REMARK  status: ('A' for Active; 'I' for Inactive)
REMARK    1  A    between atoms: C_1  and  C_2
REMARK    2  A    between atoms: C_4  and  C_5
REMARK    3  A    between atoms: C_10  and  N_11
REMARK    4  A    between atoms: C_13  and  C_14
REMARK    5  A    between atoms: C_14  and  C_15
REMARK    6  A    between atoms: C_14  and  C_16
REMARK    7  A    between atoms: C_18  and  N_19
REMARK    8  A    between atoms: C_22  and  C_23
REMARK    9  A    between atoms: N_26  and  C_27
REMARK                            x       y       z     vdW  Elec       q    Type
REMARK                         _______ _______ _______ _____ _____    ______ ____
ROOT
ATOM      1  N   UNL     1       2.027  14.242  21.093  0.00  0.00    +0.000 N 
ATOM      2  N   UNL     1       3.108  13.988  21.869  0.00  0.00    +0.000 NA
ATOM      3  C   UNL     1       4.161  14.493  21.214  0.00  0.00    +0.000 A 
ATOM      4  C   UNL     1       3.763  15.135  19.991  0.00  0.00    +0.000 A 
ATOM      5  C   UNL     1       4.318  15.893  18.923  0.00  0.00    +0.000 A 
ATOM      6  C   UNL     1       3.437  16.518  18.024  0.00  0.00    +0.000 A 
ATOM      7  C   UNL     1       2.081  16.304  18.151  0.00  0.00    +0.000 A 
ATOM      8  N   UNL     1       1.508  15.537  19.089  0.00  0.00    +0.000 NA
ATOM      9  C   UNL     1       2.372  14.993  19.978  0.00  0.00    +0.000 A 
ENDROOT
BRANCH   1  16
ATOM     10  C   UNL     1       1.007  11.640  19.998  0.00  0.00    +0.000 C 
ATOM     11  C   UNL     1       0.210  12.554  20.893  0.00  0.00    +0.000 A 
ATOM     12  C   UNL     1      -1.095  12.146  21.251  0.00  0.00    +0.000 A 
ATOM     13  C   UNL     1      -1.874  12.887  22.149  0.00  0.00    +0.000 A 
ATOM     14  C   UNL     1      -1.337  14.054  22.702  0.00  0.00    +0.000 A 
ATOM     15  C   UNL     1      -0.047  14.476  22.361  0.00  0.00    +0.000 A 
ATOM     16  C   UNL     1       0.732  13.745  21.448  0.00  0.00    +0.000 A 
BRANCH  13  17
ATOM     17  C   UNL     1      -3.254  12.492  22.566  0.00  0.00    +0.000 C 
ATOM     18  N   UNL     1      -3.447  12.029  23.840  0.00  0.00    +0.000 N 
ATOM     19  O   UNL     1      -4.202  12.573  21.799  0.00  0.00    +0.000 OA
ATOM     20  H   UNL     1      -2.730  11.897  24.534  0.00  0.00    +0.000 HD
ATOM     21  H   UNL     1      -4.391  11.756  24.081  0.00  0.00    +0.000 HD
ENDBRANCH  13  17
ENDBRANCH   1  16
BRANCH   5  22
ATOM     22  N   UNL     1       5.705  16.066  18.709  0.00  0.00    +0.000 N 
ATOM     23  C   UNL     1       6.450  17.196  18.943  0.00  0.00    +0.000 A 
ATOM     24  N   UNL     1       7.712  17.051  18.611  0.00  0.00    +0.000 NA
ATOM     25  C   UNL     1       7.826  15.739  18.258  0.00  0.00    +0.000 A 
ATOM     26  C   UNL     1       6.608  15.103  18.321  0.00  0.00    +0.000 A 
BRANCH  25  27
ATOM     27  C   UNL     1       9.119  15.173  17.948  0.00  0.00    +0.000 A 
ATOM     28  C   UNL     1      10.245  15.899  17.517  0.00  0.00    +0.000 A 
ATOM     29  N   UNL     1      11.320  15.118  17.368  0.00  0.00    +0.000 NA
ATOM     30  N   UNL     1      10.869  13.897  17.713  0.00  0.00    +0.000 N 
ATOM     31  C   UNL     1      11.775  12.774  17.741  0.00  0.00    +0.000 C 
ATOM     32  C   UNL     1       9.549  13.871  18.051  0.00  0.00    +0.000 A 
ENDBRANCH  25  27
ENDBRANCH   5  22
BRANCH   3  33
ATOM     33  C   UNL     1       5.533  14.363  21.849  0.00  0.00    +0.000 C 
ATOM     34  C   UNL     1       6.071  15.701  22.368  0.00  0.00    +0.000 C 
ATOM     35  C   UNL     1       5.633  13.335  22.986  0.00  0.00    +0.000 C 
ENDBRANCH   3  33
TORSDOF 5
ENDMDL
MODEL 6
REMARK VINA RESULT:      -6.8      4.562      6.713
REMARK  Name = 
REMARK  9 active torsions:
REMARK  status: ('A' for Active; 'I' for Inactive)
REMARK    1  A    between atoms: C_1  and  C_2
REMARK    2  A    between atoms: C_4  and  C_5
REMARK    3  A    between atoms: C_10  and  N_11
REMARK    4  A    between atoms: C_13  and  C_14
REMARK    5  A    between atoms: C_14  and  C_15
REMARK    6  A    between atoms: C_14  and  C_16
REMARK    7  A    between atoms: C_18  and  N_19
REMARK    8  A    between atoms: C_22  and  C_23
REMARK    9  A    between atoms: N_26  and  C_27
REMARK                            x       y       z     vdW  Elec       q    Type
REMARK                         _______ _______ _______ _____ _____    ______ ____
ROOT
ATOM      1  N   UNL     1      -2.140  13.726  21.124  0.00  0.00    +0.000 N 
ATOM      2  N   UNL     1      -1.901  14.972  20.646  0.00  0.00    +0.000 NA
ATOM      3  C   UNL     1      -0.640  14.961  20.197  0.00  0.00    +0.000 A 
ATOM      4  C   UNL     1      -0.039  13.663  20.343  0.00  0.00    +0.000 A 
ATOM      5  C   UNL     1       1.163  12.973  20.026  0.00  0.00    +0.000 A 
ATOM      6  C   UNL     1       1.190  11.577  20.187  0.00  0.00    +0.000 A 
ATOM      7  C   UNL     1       0.094  10.940  20.728  0.00  0.00    +0.000 A 
ATOM      8  N   UNL     1      -1.035  11.549  21.118  0.00  0.00    +0.000 NA
ATOM      9  C   UNL     1      -1.059  12.885  20.898  0.00  0.00    +0.000 A 
ENDROOT
BRANCH   1  16
ATOM     10  C   UNL     1      -4.426  12.498  19.617  0.00  0.00    +0.000 C 
ATOM     11  C   UNL     1      -4.483  12.892  21.071  0.00  0.00    +0.000 A 
ATOM     12  C   UNL     1      -5.687  12.649  21.770  0.00  0.00    +0.000 A 
ATOM     13  C   UNL     1      -5.801  12.900  23.143  0.00  0.00    +0.000 A 
ATOM     14  C   UNL     1      -4.690  13.398  23.831  0.00  0.00    +0.000 A 
ATOM     15  C   UNL     1      -3.488  13.646  23.158  0.00  0.00    +0.000 A 
ATOM     16  C   UNL     1      -3.374  13.412  21.777  0.00  0.00    +0.000 A 
BRANCH  13  17
ATOM     17  C   UNL     1      -7.049  12.649  23.927  0.00  0.00    +0.000 C 
ATOM     18  N   UNL     1      -7.598  13.685  24.634  0.00  0.00    +0.000 N 
ATOM     19  O   UNL     1      -7.581  11.550  23.948  0.00  0.00    +0.000 OA
ATOM     20  H   UNL     1      -7.221  14.616  24.705  0.00  0.00    +0.000 HD
ATOM     21  H   UNL     1      -8.434  13.474  25.165  0.00  0.00    +0.000 HD
ENDBRANCH  13  17
ENDBRANCH   1  16
BRANCH   5  22
ATOM     22  N   UNL     1       2.337  13.601  19.549  0.00  0.00    +0.000 N 
ATOM     23  C   UNL     1       2.881  13.507  18.291  0.00  0.00    +0.000 A 
ATOM     24  N   UNL     1       3.998  14.185  18.168  0.00  0.00    +0.000 NA
ATOM     25  C   UNL     1       4.132  14.846  19.353  0.00  0.00    +0.000 A 
ATOM     26  C   UNL     1       3.116  14.516  20.220  0.00  0.00    +0.000 A 
BRANCH  25  27
ATOM     27  C   UNL     1       5.197  15.804  19.542  0.00  0.00    +0.000 A 
ATOM     28  C   UNL     1       5.177  17.142  19.108  0.00  0.00    +0.000 A 
ATOM     29  N   UNL     1       6.277  17.807  19.479  0.00  0.00    +0.000 NA
ATOM     30  N   UNL     1       6.988  16.883  20.153  0.00  0.00    +0.000 N 
ATOM     31  C   UNL     1       8.237  17.248  20.778  0.00  0.00    +0.000 C 
ATOM     32  C   UNL     1       6.393  15.658  20.204  0.00  0.00    +0.000 A 
ENDBRANCH  25  27
ENDBRANCH   5  22
BRANCH   3  33
ATOM     33  C   UNL     1      -0.081  16.235  19.591  0.00  0.00    +0.000 C 
ATOM     34  C   UNL     1      -1.131  17.018  18.795  0.00  0.00    +0.000 C 
ATOM     35  C   UNL     1       0.580  17.199  20.587  0.00  0.00    +0.000 C 
ENDBRANCH   3  33
TORSDOF 5
ENDMDL
MODEL 7
REMARK VINA RESULT:      -6.8      1.334      1.875
REMARK  Name = 
REMARK  9 active torsions:
REMARK  status: ('A' for Active; 'I' for Inactive)
REMARK    1  A    between atoms: C_1  and  C_2
REMARK    2  A    between atoms: C_4  and  C_5
REMARK    3  A    between atoms: C_10  and  N_11
REMARK    4  A    between atoms: C_13  and  C_14
REMARK    5  A    between atoms: C_14  and  C_15
REMARK    6  A    between atoms: C_14  and  C_16
REMARK    7  A    between atoms: C_18  and  N_19
REMARK    8  A    between atoms: C_22  and  C_23
REMARK    9  A    between atoms: N_26  and  C_27
REMARK                            x       y       z     vdW  Elec       q    Type
REMARK                         _______ _______ _______ _____ _____    ______ ____
ROOT
ATOM      1  N   UNL     1      -0.640  12.848  21.872  0.00  0.00    +0.000 N 
ATOM      2  N   UNL     1      -0.485  13.175  20.566  0.00  0.00    +0.000 NA
ATOM      3  C   UNL     1       0.051  12.100  19.975  0.00  0.00    +0.000 A 
ATOM      4  C   UNL     1       0.218  11.016  20.905  0.00  0.00    +0.000 A 
ATOM      5  C   UNL     1       0.630   9.656  20.934  0.00  0.00    +0.000 A 
ATOM      6  C   UNL     1       0.396   8.916  22.107  0.00  0.00    +0.000 A 
ATOM      7  C   UNL     1      -0.134   9.552  23.209  0.00  0.00    +0.000 A 
ATOM      8  N   UNL     1      -0.466  10.849  23.263  0.00  0.00    +0.000 NA
ATOM      9  C   UNL     1      -0.287  11.526  22.105  0.00  0.00    +0.000 A 
ENDROOT
BRANCH   1  16
ATOM     10  C   UNL     1      -3.335  12.586  23.167  0.00  0.00    +0.000 C 
ATOM     11  C   UNL     1      -2.392  13.739  23.396  0.00  0.00    +0.000 A 
ATOM     12  C   UNL     1      -2.802  14.752  24.293  0.00  0.00    +0.000 A 
ATOM     13  C   UNL     1      -1.955  15.815  24.635  0.00  0.00    +0.000 A 
ATOM     14  C   UNL     1      -0.676  15.863  24.074  0.00  0.00    +0.000 A 
ATOM     15  C   UNL     1      -0.250  14.871  23.183  0.00  0.00    +0.000 A 
ATOM     16  C   UNL     1      -1.102  13.812  22.823  0.00  0.00    +0.000 A 
BRANCH  13  17
ATOM     17  C   UNL     1      -2.339  16.902  25.586  0.00  0.00    +0.000 C 
ATOM     18  N   UNL     1      -3.556  17.509  25.432  0.00  0.00    +0.000 N 
ATOM     19  O   UNL     1      -1.595  17.255  26.489  0.00  0.00    +0.000 OA
ATOM     20  H   UNL     1      -4.225  17.313  24.705  0.00  0.00    +0.000 HD
ATOM     21  H   UNL     1      -3.775  18.251  26.084  0.00  0.00    +0.000 HD
ENDBRANCH  13  17
ENDBRANCH   1  16
BRANCH   5  22
ATOM     22  N   UNL     1       1.254   8.991  19.853  0.00  0.00    +0.000 N 
ATOM     23  C   UNL     1       1.426   9.458  18.574  0.00  0.00    +0.000 A 
ATOM     24  N   UNL     1       2.017   8.587  17.789  0.00  0.00    +0.000 NA
ATOM     25  C   UNL     1       2.355   7.555  18.614  0.00  0.00    +0.000 A 
ATOM     26  C   UNL     1       1.909   7.781  19.895  0.00  0.00    +0.000 A 
BRANCH  25  27
ATOM     27  C   UNL     1       3.145   6.451  18.120  0.00  0.00    +0.000 A 
ATOM     28  C   UNL     1       2.787   5.092  18.198  0.00  0.00    +0.000 A 
ATOM     29  N   UNL     1       3.684   4.300  17.600  0.00  0.00    +0.000 NA
ATOM     30  N   UNL     1       4.606   5.167  17.139  0.00  0.00    +0.000 N 
ATOM     31  C   UNL     1       5.725   4.685  16.363  0.00  0.00    +0.000 C 
ATOM     32  C   UNL     1       4.341   6.469  17.441  0.00  0.00    +0.000 A 
ENDBRANCH  25  27
ENDBRANCH   5  22
BRANCH   3  33
ATOM     33  C   UNL     1       0.340  12.166  18.486  0.00  0.00    +0.000 C 
ATOM     34  C   UNL     1      -0.890  12.567  17.666  0.00  0.00    +0.000 C 
ATOM     35  C   UNL     1       1.502  13.087  18.086  0.00  0.00    +0.000 C 
ENDBRANCH   3  33
TORSDOF 5
ENDMDL
MODEL 8
REMARK VINA RESULT:      -6.8      3.915     10.055
REMARK  Name = 
REMARK  9 active torsions:
REMARK  status: ('A' for Active; 'I' for Inactive)
REMARK    1  A    between atoms: C_1  and  C_2
REMARK    2  A    between atoms: C_4  and  C_5
REMARK    3  A    between atoms: C_10  and  N_11
REMARK    4  A    between atoms: C_13  and  C_14
REMARK    5  A    between atoms: C_14  and  C_15
REMARK    6  A    between atoms: C_14  and  C_16
REMARK    7  A    between atoms: C_18  and  N_19
REMARK    8  A    between atoms: C_22  and  C_23
REMARK    9  A    between atoms: N_26  and  C_27
REMARK                            x       y       z     vdW  Elec       q    Type
REMARK                         _______ _______ _______ _____ _____    ______ ____
ROOT
ATOM      1  N   UNL     1       0.543  10.805  19.097  0.00  0.00    +0.000 N 
ATOM      2  N   UNL     1      -0.790  10.909  19.320  0.00  0.00    +0.000 NA
ATOM      3  C   UNL     1      -1.050  12.220  19.408  0.00  0.00    +0.000 A 
ATOM      4  C   UNL     1       0.135  13.007  19.198  0.00  0.00    +0.000 A 
ATOM      5  C   UNL     1       0.538  14.367  19.085  0.00  0.00    +0.000 A 
ATOM      6  C   UNL     1       1.841  14.637  18.635  0.00  0.00    +0.000 A 
ATOM      7  C   UNL     1       2.707  13.589  18.407  0.00  0.00    +0.000 A 
ATOM      8  N   UNL     1       2.406  12.293  18.573  0.00  0.00    +0.000 NA
ATOM      9  C   UNL     1       1.128  12.055  18.951  0.00  0.00    +0.000 A 
ENDROOT
BRANCH   1  16
ATOM     10  C   UNL     1       0.752   9.080  21.544  0.00  0.00    +0.000 C 
ATOM     11  C   UNL     1       1.347   8.728  20.205  0.00  0.00    +0.000 A 
ATOM     12  C   UNL     1       2.032   7.497  20.096  0.00  0.00    +0.000 A 
ATOM     13  C   UNL     1       2.540   7.047  18.870  0.00  0.00    +0.000 A 
ATOM     14  C   UNL     1       2.355   7.840  17.733  0.00  0.00    +0.000 A 
ATOM     15  C   UNL     1       1.680   9.062  17.819  0.00  0.00    +0.000 A 
ATOM     16  C   UNL     1       1.184   9.526  19.049  0.00  0.00    +0.000 A 
BRANCH  13  17
ATOM     17  C   UNL     1       3.262   5.749  18.702  0.00  0.00    +0.000 C 
ATOM     18  N   UNL     1       3.522   4.994  19.815  0.00  0.00    +0.000 N 
ATOM     19  O   UNL     1       3.620   5.353  17.603  0.00  0.00    +0.000 OA
ATOM     20  H   UNL     1       3.296   5.245  20.763  0.00  0.00    +0.000 HD
ATOM     21  H   UNL     1       4.025   4.129  19.665  0.00  0.00    +0.000 HD
ENDBRANCH  13  17
ENDBRANCH   1  16
BRANCH   5  22
ATOM     22  N   UNL     1      -0.293  15.470  19.390  0.00  0.00    +0.000 N 
ATOM     23  C   UNL     1      -0.666  16.490  18.550  0.00  0.00    +0.000 A 
ATOM     24  N   UNL     1      -1.421  17.386  19.142  0.00  0.00    +0.000 NA
ATOM     25  C   UNL     1      -1.652  16.874  20.384  0.00  0.00    +0.000 A 
ATOM     26  C   UNL     1      -0.980  15.688  20.563  0.00  0.00    +0.000 A 
BRANCH  25  27
ATOM     27  C   UNL     1      -2.561  17.536  21.292  0.00  0.00    +0.000 A 
ATOM     28  C   UNL     1      -3.770  18.156  20.927  0.00  0.00    +0.000 A 
ATOM     29  N   UNL     1      -4.432  18.630  21.989  0.00  0.00    +0.000 NA
ATOM     30  N   UNL     1      -3.638  18.301  23.025  0.00  0.00    +0.000 N 
ATOM     31  C   UNL     1      -4.054  18.594  24.376  0.00  0.00    +0.000 C 
ATOM     32  C   UNL     1      -2.491  17.660  22.660  0.00  0.00    +0.000 A 
ENDBRANCH  25  27
ENDBRANCH   5  22
BRANCH   3  33
ATOM     33  C   UNL     1      -2.483  12.654  19.655  0.00  0.00    +0.000 C 
ATOM     34  C   UNL     1      -3.492  11.849  18.829  0.00  0.00    +0.000 C 
ATOM     35  C   UNL     1      -2.932  12.622  21.123  0.00  0.00    +0.000 C 
ENDBRANCH   3  33
TORSDOF 5
ENDMDL
MODEL 9
REMARK VINA RESULT:      -6.8      2.101      2.797
REMARK  Name = 
REMARK  9 active torsions:
REMARK  status: ('A' for Active; 'I' for Inactive)
REMARK    1  A    between atoms: C_1  and  C_2
REMARK    2  A    between atoms: C_4  and  C_5
REMARK    3  A    between atoms: C_10  and  N_11
REMARK    4  A    between atoms: C_13  and  C_14
REMARK    5  A    between atoms: C_14  and  C_15
REMARK    6  A    between atoms: C_14  and  C_16
REMARK    7  A    between atoms: C_18  and  N_19
REMARK    8  A    between atoms: C_22  and  C_23
REMARK    9  A    between atoms: N_26  and  C_27
REMARK                            x       y       z     vdW  Elec       q    Type
REMARK                         _______ _______ _______ _____ _____    ______ ____
ROOT
ATOM      1  N   UNL     1      -3.236  12.753  20.156  0.00  0.00    +0.000 N 
ATOM      2  N   UNL     1      -3.479  12.095  18.997  0.00  0.00    +0.000 NA
ATOM      3  C   UNL     1      -2.391  11.353  18.755  0.00  0.00    +0.000 A 
ATOM      4  C   UNL     1      -1.416  11.491  19.804  0.00  0.00    +0.000 A 
ATOM      5  C   UNL     1      -0.154  10.968  20.198  0.00  0.00    +0.000 A 
ATOM      6  C   UNL     1       0.318  11.273  21.487  0.00  0.00    +0.000 A 
ATOM      7  C   UNL     1      -0.407  12.135  22.283  0.00  0.00    +0.000 A 
ATOM      8  N   UNL     1      -1.561  12.720  21.932  0.00  0.00    +0.000 NA
ATOM      9  C   UNL     1      -2.024  12.365  20.711  0.00  0.00    +0.000 A 
ENDROOT
BRANCH   1  16
ATOM     10  C   UNL     1      -6.095  12.028  20.709  0.00  0.00    +0.000 C 
ATOM     11  C   UNL     1      -5.526  13.414  20.868  0.00  0.00    +0.000 A 
ATOM     12  C   UNL     1      -6.395  14.431  21.324  0.00  0.00    +0.000 A 
ATOM     13  C   UNL     1      -5.932  15.727  21.587  0.00  0.00    +0.000 A 
ATOM     14  C   UNL     1      -4.576  16.010  21.394  0.00  0.00    +0.000 A 
ATOM     15  C   UNL     1      -3.699  15.018  20.943  0.00  0.00    +0.000 A 
ATOM     16  C   UNL     1      -4.161  13.721  20.661  0.00  0.00    +0.000 A 
BRANCH  13  17
ATOM     17  C   UNL     1      -6.809  16.832  22.080  0.00  0.00    +0.000 C 
ATOM     18  N   UNL     1      -6.550  17.377  23.310  0.00  0.00    +0.000 N 
ATOM     19  O   UNL     1      -7.742  17.255  21.414  0.00  0.00    +0.000 OA
ATOM     20  H   UNL     1      -5.827  17.080  23.945  0.00  0.00    +0.000 HD
ATOM     21  H   UNL     1      -7.174  18.112  23.617  0.00  0.00    +0.000 HD
ENDBRANCH  13  17
ENDBRANCH   1  16
BRANCH   5  22
ATOM     22  N   UNL     1       0.658  10.149  19.380  0.00  0.00    +0.000 N 
ATOM     23  C   UNL     1       1.169  10.453  18.142  0.00  0.00    +0.000 A 
ATOM     24  N   UNL     1       1.861   9.467  17.622  0.00  0.00    +0.000 NA
ATOM     25  C   UNL     1       1.909   8.524  18.605  0.00  0.00    +0.000 A 
ATOM     26  C   UNL     1       1.187   8.921  19.706  0.00  0.00    +0.000 A 
BRANCH  25  27
ATOM     27  C   UNL     1       2.706   7.330  18.437  0.00  0.00    +0.000 A 
ATOM     28  C   UNL     1       3.733   7.162  17.490  0.00  0.00    +0.000 A 
ATOM     29  N   UNL     1       4.338   5.974  17.610  0.00  0.00    +0.000 NA
ATOM     30  N   UNL     1       3.692   5.398  18.642  0.00  0.00    +0.000 N 
ATOM     31  C   UNL     1       4.112   4.104  19.124  0.00  0.00    +0.000 C 
ATOM     32  C   UNL     1       2.690   6.162  19.162  0.00  0.00    +0.000 A 
ENDBRANCH  25  27
ENDBRANCH   5  22
BRANCH   3  33
ATOM     33  C   UNL     1      -2.370  10.489  17.508  0.00  0.00    +0.000 C 
ATOM     34  C   UNL     1      -3.457   9.408  17.523  0.00  0.00    +0.000 C 
ATOM     35  C   UNL     1      -2.475  11.254  16.181  0.00  0.00    +0.000 C 
ENDBRANCH   3  33
TORSDOF 5
ENDMDL
