MODEL 1
REMARK VINA RESULT:      -6.2      0.000      0.000
REMARK  Name = 
REMARK  12 active torsions:
REMARK  status: ('A' for Active; 'I' for Inactive)
REMARK    1  A    between atoms: C_1  and  C_2
REMARK    2  A    between atoms: C_2  and  O_4
REMARK    3  A    between atoms: O_4  and  C_5
REMARK    4  A    between atoms: C_8  and  C_9
REMARK    5  A    between atoms: C_13  and  C_14
REMARK    6  A    between atoms: C_20  and  C_21
REMARK    7  A    between atoms: C_22  and  C_23
REMARK    8  A    between atoms: C_26  and  C_27
REMARK    9  A    between atoms: C_30  and  C_31
REMARK   10  A    between atoms: C_32  and  C_33
REMARK   11  A    between atoms: C_32  and  C_34
REMARK   12  A    between atoms: C_34  and  O_36
REMARK                            x       y       z     vdW  Elec       q    Type
REMARK                         _______ _______ _______ _____ _____    ______ ____
ROOT
ATOM      1  C   UNL     1       1.186  17.064  19.604  0.00  0.00    +0.000 C 
ATOM      2  C   UNL     1       1.992  18.173  20.363  0.00  0.00    +0.000 C 
ATOM      3  C   UNL     1       3.519  17.883  20.601  0.00  0.00    +0.000 C 
ATOM      4  C   UNL     1       3.744  16.425  21.208  0.00  0.00    +0.000 C 
ATOM      5  C   UNL     1       3.165  16.549  22.655  0.00  0.00    +0.000 C 
ATOM      6  C   UNL     1       3.100  15.602  20.095  0.00  0.00    +0.000 C 
ATOM      7  C   UNL     1       4.039  14.508  19.707  0.00  0.00    +0.000 C 
ATOM      8  C   UNL     1       5.457  15.263  19.421  0.00  0.00    +0.000 C 
ATOM      9  C   UNL     1       6.211  16.554  20.573  0.00  0.00    +0.000 C 
ATOM     10  C   UNL     1       7.120  16.660  22.190  0.00  0.00    +0.000 C 
ATOM     11  C   UNL     1       5.258  15.958  21.505  0.00  0.00    +0.000 C 
ATOM     12  C   UNL     1       6.112  14.465  21.698  0.00  0.00    +0.000 C 
ATOM     13  C   UNL     1       7.584  14.279  20.754  0.00  0.00    +0.000 C 
ATOM     14  C   UNL     1       8.171  15.210  19.896  0.00  0.00    +0.000 C 
ATOM     15  C   UNL     1       9.416  15.185  18.924  0.00  0.00    +0.000 C 
ATOM     16  C   UNL     1      10.057  13.868  18.361  0.00  0.00    +0.000 C 
ATOM     17  C   UNL     1       9.006  12.936  17.744  0.00  0.00    +0.000 C 
ATOM     18  C   UNL     1      11.135  14.230  17.269  0.00  0.00    +0.000 C 
ATOM     19  C   UNL     1      11.890  13.021  16.700  0.00  0.00    +0.000 C 
ATOM     20  C   UNL     1      12.212  15.206  17.757  0.00  0.00    +0.000 C 
ATOM     21  C   UNL     1      11.670  16.410  18.470  0.00  0.00    +0.000 C 
ATOM     22  C   UNL     1      10.544  16.139  19.484  0.00  0.00    +0.000 C 
ATOM     23  C   UNL     1      11.131  15.502  20.770  0.00  0.00    +0.000 C 
ATOM     24  C   UNL     1      10.018  17.569  19.769  0.00  0.00    +0.000 C 
ATOM     25  C   UNL     1       8.716  17.578  20.515  0.00  0.00    +0.000 C 
ATOM     26  C   UNL     1       7.592  16.648  19.879  0.00  0.00    +0.000 C 
ATOM     27  C   UNL     1       7.229  17.424  18.573  0.00  0.00    +0.000 C 
ATOM     28  C   UNL     1       1.560  15.596  20.069  0.00  0.00    +0.000 C 
ATOM     29  C   UNL     1       0.989  14.547  19.092  0.00  0.00    +0.000 C 
ENDROOT
BRANCH  28  30
ATOM     30  C   UNL     1       0.881  15.311  21.394  0.00  0.00    +0.000 C 
ATOM     31  O   UNL     1       0.033  16.030  21.930  0.00  0.00    +0.000 OA
BRANCH  30  32
ATOM     32  O   UNL     1       1.237  14.123  21.963  0.00  0.00    +0.000 OA
ATOM     33  H   UNL     1       1.335  13.377  21.341  0.00  0.00    +0.000 HD
ENDBRANCH  30  32
ENDBRANCH  28  30
BRANCH   1  34
ATOM     34  O   UNL     1       1.522  17.167  18.186  0.00  0.00    +0.000 OA
BRANCH  34  36
ATOM     35  C   UNL     1      -0.705  17.809  17.865  0.00  0.00    +0.000 C 
ATOM     36  C   UNL     1       0.711  17.893  17.375  0.00  0.00    +0.000 C 
ATOM     37  O   UNL     1       1.072  18.543  16.407  0.00  0.00    +0.000 OA
ENDBRANCH  34  36
ENDBRANCH   1  34
TORSDOF 4
ENDMDL
MODEL 2
REMARK VINA RESULT:      -5.9      3.582      8.599
REMARK  Name = 
REMARK  12 active torsions:
REMARK  status: ('A' for Active; 'I' for Inactive)
REMARK    1  A    between atoms: C_1  and  C_2
REMARK    2  A    between atoms: C_2  and  O_4
REMARK    3  A    between atoms: O_4  and  C_5
REMARK    4  A    between atoms: C_8  and  C_9
REMARK    5  A    between atoms: C_13  and  C_14
REMARK    6  A    between atoms: C_20  and  C_21
REMARK    7  A    between atoms: C_22  and  C_23
REMARK    8  A    between atoms: C_26  and  C_27
REMARK    9  A    between atoms: C_30  and  C_31
REMARK   10  A    between atoms: C_32  and  C_33
REMARK   11  A    between atoms: C_32  and  C_34
REMARK   12  A    between atoms: C_34  and  O_36
REMARK                            x       y       z     vdW  Elec       q    Type
REMARK                         _______ _______ _______ _____ _____    ______ ____
ROOT
ATOM      1  C   UNL     1      10.608  14.310  19.763  0.00  0.00    +0.000 C 
ATOM      2  C   UNL     1      10.263  15.343  20.889  0.00  0.00    +0.000 C 
ATOM      3  C   UNL     1       8.764  15.813  20.968  0.00  0.00    +0.000 C 
ATOM      4  C   UNL     1       8.219  16.252  19.534  0.00  0.00    +0.000 C 
ATOM      5  C   UNL     1       9.003  17.574  19.245  0.00  0.00    +0.000 C 
ATOM      6  C   UNL     1       8.443  14.942  18.784  0.00  0.00    +0.000 C 
ATOM      7  C   UNL     1       7.187  14.588  18.058  0.00  0.00    +0.000 C 
ATOM      8  C   UNL     1       6.018  14.667  19.193  0.00  0.00    +0.000 C 
ATOM      9  C   UNL     1       5.829  16.098  20.409  0.00  0.00    +0.000 C 
ATOM     10  C   UNL     1       5.220  17.852  20.458  0.00  0.00    +0.000 C 
ATOM     11  C   UNL     1       6.691  16.753  19.431  0.00  0.00    +0.000 C 
ATOM     12  C   UNL     1       5.482  16.899  18.201  0.00  0.00    +0.000 C 
ATOM     13  C   UNL     1       3.903  16.220  18.572  0.00  0.00    +0.000 C 
ATOM     14  C   UNL     1       3.493  15.615  19.762  0.00  0.00    +0.000 C 
ATOM     15  C   UNL     1       2.171  14.890  20.233  0.00  0.00    +0.000 C 
ATOM     16  C   UNL     1       1.110  14.283  19.248  0.00  0.00    +0.000 C 
ATOM     17  C   UNL     1       1.757  13.367  18.201  0.00  0.00    +0.000 C 
ATOM     18  C   UNL     1       0.041  13.463  20.066  0.00  0.00    +0.000 C 
ATOM     19  C   UNL     1      -1.099  12.884  19.215  0.00  0.00    +0.000 C 
ATOM     20  C   UNL     1      -0.636  14.263  21.185  0.00  0.00    +0.000 C 
ATOM     21  C   UNL     1       0.320  15.019  22.061  0.00  0.00    +0.000 C 
ATOM     22  C   UNL     1       1.450  15.767  21.332  0.00  0.00    +0.000 C 
ATOM     23  C   UNL     1       0.888  17.042  20.650  0.00  0.00    +0.000 C 
ATOM     24  C   UNL     1       2.395  16.139  22.502  0.00  0.00    +0.000 C 
ATOM     25  C   UNL     1       3.736  16.632  22.041  0.00  0.00    +0.000 C 
ATOM     26  C   UNL     1       4.450  15.684  20.979  0.00  0.00    +0.000 C 
ATOM     27  C   UNL     1       4.835  14.449  21.855  0.00  0.00    +0.000 C 
ATOM     28  C   UNL     1       9.899  14.635  18.384  0.00  0.00    +0.000 C 
ATOM     29  C   UNL     1      10.007  13.441  17.413  0.00  0.00    +0.000 C 
ENDROOT
BRANCH  28  30
ATOM     30  C   UNL     1      10.644  15.766  17.702  0.00  0.00    +0.000 C 
ATOM     31  O   UNL     1      11.683  16.288  18.117  0.00  0.00    +0.000 OA
BRANCH  30  32
ATOM     32  O   UNL     1      10.104  16.156  16.510  0.00  0.00    +0.000 OA
ATOM     33  H   UNL     1       9.859  17.099  16.453  0.00  0.00    +0.000 HD
ENDBRANCH  30  32
ENDBRANCH  28  30
BRANCH   1  34
ATOM     34  O   UNL     1      10.122  13.002  20.199  0.00  0.00    +0.000 OA
BRANCH  34  36
ATOM     35  C   UNL     1      10.080  10.715  19.707  0.00  0.00    +0.000 C 
ATOM     36  C   UNL     1      10.920  11.919  20.019  0.00  0.00    +0.000 C 
ATOM     37  O   UNL     1      12.139  11.918  20.074  0.00  0.00    +0.000 OA
ENDBRANCH  34  36
ENDBRANCH   1  34
TORSDOF 4
ENDMDL
MODEL 3
REMARK VINA RESULT:      -5.8      4.440      8.611
REMARK  Name = 
REMARK  12 active torsions:
REMARK  status: ('A' for Active; 'I' for Inactive)
REMARK    1  A    between atoms: C_1  and  C_2
REMARK    2  A    between atoms: C_2  and  O_4
REMARK    3  A    between atoms: O_4  and  C_5
REMARK    4  A    between atoms: C_8  and  C_9
REMARK    5  A    between atoms: C_13  and  C_14
REMARK    6  A    between atoms: C_20  and  C_21
REMARK    7  A    between atoms: C_22  and  C_23
REMARK    8  A    between atoms: C_26  and  C_27
REMARK    9  A    between atoms: C_30  and  C_31
REMARK   10  A    between atoms: C_32  and  C_33
REMARK   11  A    between atoms: C_32  and  C_34
REMARK   12  A    between atoms: C_34  and  O_36
REMARK                            x       y       z     vdW  Elec       q    Type
REMARK                         _______ _______ _______ _____ _____    ______ ____
ROOT
ATOM      1  C   UNL     1       9.916  11.548  18.544  0.00  0.00    +0.000 C 
ATOM      2  C   UNL     1      10.954  11.598  19.717  0.00  0.00    +0.000 C 
ATOM      3  C   UNL     1      10.649  12.620  20.872  0.00  0.00    +0.000 C 
ATOM      4  C   UNL     1      10.298  14.064  20.291  0.00  0.00    +0.000 C 
ATOM      5  C   UNL     1      11.665  14.558  19.715  0.00  0.00    +0.000 C 
ATOM      6  C   UNL     1       9.093  13.687  19.432  0.00  0.00    +0.000 C 
ATOM      7  C   UNL     1       7.975  14.627  19.742  0.00  0.00    +0.000 C 
ATOM      8  C   UNL     1       7.839  14.587  21.367  0.00  0.00    +0.000 C 
ATOM      9  C   UNL     1       9.306  14.718  22.547  0.00  0.00    +0.000 C 
ATOM     10  C   UNL     1      10.470  15.992  23.234  0.00  0.00    +0.000 C 
ATOM     11  C   UNL     1       9.947  15.234  21.342  0.00  0.00    +0.000 C 
ATOM     12  C   UNL     1       9.102  16.745  21.326  0.00  0.00    +0.000 C 
ATOM     13  C   UNL     1       7.909  16.986  22.595  0.00  0.00    +0.000 C 
ATOM     14  C   UNL     1       7.592  16.121  23.644  0.00  0.00    +0.000 C 
ATOM     15  C   UNL     1       6.514  16.134  24.799  0.00  0.00    +0.000 C 
ATOM     16  C   UNL     1       5.200  16.991  24.757  0.00  0.00    +0.000 C 
ATOM     17  C   UNL     1       4.427  16.793  23.446  0.00  0.00    +0.000 C 
ATOM     18  C   UNL     1       4.274  16.597  25.970  0.00  0.00    +0.000 C 
ATOM     19  C   UNL     1       2.988  17.427  26.081  0.00  0.00    +0.000 C 
ATOM     20  C   UNL     1       4.961  16.702  27.337  0.00  0.00    +0.000 C 
ATOM     21  C   UNL     1       6.313  16.053  27.395  0.00  0.00    +0.000 C 
ATOM     22  C   UNL     1       7.236  16.319  26.192  0.00  0.00    +0.000 C 
ATOM     23  C   UNL     1       7.799  17.762  26.265  0.00  0.00    +0.000 C 
ATOM     24  C   UNL     1       8.361  15.277  26.416  0.00  0.00    +0.000 C 
ATOM     25  C   UNL     1       9.259  15.117  25.224  0.00  0.00    +0.000 C 
ATOM     26  C   UNL     1       8.488  14.874  23.853  0.00  0.00    +0.000 C 
ATOM     27  C   UNL     1       7.934  13.425  24.045  0.00  0.00    +0.000 C 
ATOM     28  C   UNL     1       9.410  12.982  18.100  0.00  0.00    +0.000 C 
ATOM     29  C   UNL     1       8.176  12.871  17.180  0.00  0.00    +0.000 C 
ENDROOT
BRANCH  28  30
ATOM     30  C   UNL     1      10.478  13.639  17.248  0.00  0.00    +0.000 C 
ATOM     31  O   UNL     1      11.495  13.081  16.824  0.00  0.00    +0.000 OA
BRANCH  30  32
ATOM     32  O   UNL     1      10.209  14.933  16.909  0.00  0.00    +0.000 OA
ATOM     33  H   UNL     1      10.993  15.493  16.747  0.00  0.00    +0.000 HD
ENDBRANCH  30  32
ENDBRANCH  28  30
BRANCH   1  34
ATOM     34  O   UNL     1       8.749  10.807  19.019  0.00  0.00    +0.000 OA
BRANCH  34  36
ATOM     35  C   UNL     1       7.744   9.334  17.503  0.00  0.00    +0.000 C 
ATOM     36  C   UNL     1       8.638   9.493  18.698  0.00  0.00    +0.000 C 
ATOM     37  O   UNL     1       9.197   8.572  19.272  0.00  0.00    +0.000 OA
ENDBRANCH  34  36
ENDBRANCH   1  34
TORSDOF 4
ENDMDL
MODEL 4
REMARK VINA RESULT:      -5.8      1.904      3.029
REMARK  Name = 
REMARK  12 active torsions:
REMARK  status: ('A' for Active; 'I' for Inactive)
REMARK    1  A    between atoms: C_1  and  C_2
REMARK    2  A    between atoms: C_2  and  O_4
REMARK    3  A    between atoms: O_4  and  C_5
REMARK    4  A    between atoms: C_8  and  C_9
REMARK    5  A    between atoms: C_13  and  C_14
REMARK    6  A    between atoms: C_20  and  C_21
REMARK    7  A    between atoms: C_22  and  C_23
REMARK    8  A    between atoms: C_26  and  C_27
REMARK    9  A    between atoms: C_30  and  C_31
REMARK   10  A    between atoms: C_32  and  C_33
REMARK   11  A    between atoms: C_32  and  C_34
REMARK   12  A    between atoms: C_34  and  O_36
REMARK                            x       y       z     vdW  Elec       q    Type
REMARK                         _______ _______ _______ _____ _____    ______ ____
ROOT
ATOM      1  C   UNL     1      -0.038  14.279  19.481  0.00  0.00    +0.000 C 
ATOM      2  C   UNL     1       0.437  15.543  18.687  0.00  0.00    +0.000 C 
ATOM      3  C   UNL     1       1.953  15.931  18.839  0.00  0.00    +0.000 C 
ATOM      4  C   UNL     1       2.393  15.959  20.373  0.00  0.00    +0.000 C 
ATOM      5  C   UNL     1       1.637  17.206  20.937  0.00  0.00    +0.000 C 
ATOM      6  C   UNL     1       2.059  14.515  20.741  0.00  0.00    +0.000 C 
ATOM      7  C   UNL     1       3.237  13.918  21.439  0.00  0.00    +0.000 C 
ATOM      8  C   UNL     1       4.498  14.215  20.449  0.00  0.00    +0.000 C 
ATOM      9  C   UNL     1       4.841  15.896  19.660  0.00  0.00    +0.000 C 
ATOM     10  C   UNL     1       5.516  17.567  20.109  0.00  0.00    +0.000 C 
ATOM     11  C   UNL     1       3.925  16.329  20.711  0.00  0.00    +0.000 C 
ATOM     12  C   UNL     1       5.031  16.087  22.019  0.00  0.00    +0.000 C 
ATOM     13  C   UNL     1       6.610  15.437  21.598  0.00  0.00    +0.000 C 
ATOM     14  C   UNL     1       7.095  15.132  20.325  0.00  0.00    +0.000 C 
ATOM     15  C   UNL     1       8.424  14.476  19.777  0.00  0.00    +0.000 C 
ATOM     16  C   UNL     1       9.376  13.579  20.645  0.00  0.00    +0.000 C 
ATOM     17  C   UNL     1       8.611  12.465  21.372  0.00  0.00    +0.000 C 
ATOM     18  C   UNL     1      10.479  12.934  19.722  0.00  0.00    +0.000 C 
ATOM     19  C   UNL     1      11.521  12.094  20.473  0.00  0.00    +0.000 C 
ATOM     20  C   UNL     1      11.276  13.953  18.898  0.00  0.00    +0.000 C 
ATOM     21  C   UNL     1      10.425  14.960  18.181  0.00  0.00    +0.000 C 
ATOM     22  C   UNL     1       9.266  15.561  18.997  0.00  0.00    +0.000 C 
ATOM     23  C   UNL     1       9.816  16.586  20.022  0.00  0.00    +0.000 C 
ATOM     24  C   UNL     1       8.436  16.273  17.898  0.00  0.00    +0.000 C 
ATOM     25  C   UNL     1       7.080  16.707  18.375  0.00  0.00    +0.000 C 
ATOM     26  C   UNL     1       6.246  15.563  19.102  0.00  0.00    +0.000 C 
ATOM     27  C   UNL     1       5.890  14.615  17.912  0.00  0.00    +0.000 C 
ATOM     28  C   UNL     1       0.565  14.201  20.944  0.00  0.00    +0.000 C 
ATOM     29  C   UNL     1       0.332  12.807  21.564  0.00  0.00    +0.000 C 
ENDROOT
BRANCH  28  30
ATOM     30  C   UNL     1      -0.192  15.162  21.841  0.00  0.00    +0.000 C 
ATOM     31  O   UNL     1      -1.196  15.801  21.513  0.00  0.00    +0.000 OA
BRANCH  30  32
ATOM     32  O   UNL     1       0.290  15.238  23.115  0.00  0.00    +0.000 OA
ATOM     33  H   UNL     1       0.428  16.144  23.454  0.00  0.00    +0.000 HD
ENDBRANCH  30  32
ENDBRANCH  28  30
BRANCH   1  34
ATOM     34  O   UNL     1       0.433  13.100  18.758  0.00  0.00    +0.000 OA
BRANCH  34  36
ATOM     35  C   UNL     1       0.150  10.786  18.556  0.00  0.00    +0.000 C 
ATOM     36  C   UNL     1      -0.467  12.145  18.411  0.00  0.00    +0.000 C 
ATOM     37  O   UNL     1      -1.618  12.350  18.059  0.00  0.00    +0.000 OA
ENDBRANCH  34  36
ENDBRANCH   1  34
TORSDOF 4
ENDMDL
MODEL 5
REMARK VINA RESULT:      -5.7      7.347     10.966
REMARK  Name = 
REMARK  12 active torsions:
REMARK  status: ('A' for Active; 'I' for Inactive)
REMARK    1  A    between atoms: C_1  and  C_2
REMARK    2  A    between atoms: C_2  and  O_4
REMARK    3  A    between atoms: O_4  and  C_5
REMARK    4  A    between atoms: C_8  and  C_9
REMARK    5  A    between atoms: C_13  and  C_14
REMARK    6  A    between atoms: C_20  and  C_21
REMARK    7  A    between atoms: C_22  and  C_23
REMARK    8  A    between atoms: C_26  and  C_27
REMARK    9  A    between atoms: C_30  and  C_31
REMARK   10  A    between atoms: C_32  and  C_33
REMARK   11  A    between atoms: C_32  and  C_34
REMARK   12  A    between atoms: C_34  and  O_36
REMARK                            x       y       z     vdW  Elec       q    Type
REMARK                         _______ _______ _______ _____ _____    ______ ____
ROOT
ATOM      1  C   UNL     1      -6.930  13.053  17.933  0.00  0.00    +0.000 C 
ATOM      2  C   UNL     1      -7.755  13.497  19.189  0.00  0.00    +0.000 C 
ATOM      3  C   UNL     1      -6.925  13.856  20.476  0.00  0.00    +0.000 C 
ATOM      4  C   UNL     1      -5.851  12.723  20.807  0.00  0.00    +0.000 C 
ATOM      5  C   UNL     1      -6.735  11.518  21.265  0.00  0.00    +0.000 C 
ATOM      6  C   UNL     1      -5.060  12.758  19.502  0.00  0.00    +0.000 C 
ATOM      7  C   UNL     1      -3.605  12.846  19.829  0.00  0.00    +0.000 C 
ATOM      8  C   UNL     1      -3.490  14.101  20.864  0.00  0.00    +0.000 C 
ATOM      9  C   UNL     1      -4.630  14.348  22.348  0.00  0.00    +0.000 C 
ATOM     10  C   UNL     1      -4.900  13.682  24.060  0.00  0.00    +0.000 C 
ATOM     11  C   UNL     1      -4.904  12.937  22.093  0.00  0.00    +0.000 C 
ATOM     12  C   UNL     1      -3.372  12.358  22.652  0.00  0.00    +0.000 C 
ATOM     13  C   UNL     1      -2.222  13.577  23.185  0.00  0.00    +0.000 C 
ATOM     14  C   UNL     1      -2.413  14.958  23.252  0.00  0.00    +0.000 C 
ATOM     15  C   UNL     1      -1.486  16.185  23.616  0.00  0.00    +0.000 C 
ATOM     16  C   UNL     1       0.081  16.137  23.572  0.00  0.00    +0.000 C 
ATOM     17  C   UNL     1       0.602  15.582  22.240  0.00  0.00    +0.000 C 
ATOM     18  C   UNL     1       0.660  17.587  23.790  0.00  0.00    +0.000 C 
ATOM     19  C   UNL     1       2.192  17.656  23.847  0.00  0.00    +0.000 C 
ATOM     20  C   UNL     1       0.162  18.270  25.070  0.00  0.00    +0.000 C 
ATOM     21  C   UNL     1      -1.324  18.194  25.266  0.00  0.00    +0.000 C 
ATOM     22  C   UNL     1      -1.970  16.827  24.976  0.00  0.00    +0.000 C 
ATOM     23  C   UNL     1      -1.653  15.837  26.126  0.00  0.00    +0.000 C 
ATOM     24  C   UNL     1      -3.478  17.184  24.956  0.00  0.00    +0.000 C 
ATOM     25  C   UNL     1      -4.335  16.081  24.406  0.00  0.00    +0.000 C 
ATOM     26  C   UNL     1      -3.842  15.506  23.006  0.00  0.00    +0.000 C 
ATOM     27  C   UNL     1      -4.165  16.690  22.038  0.00  0.00    +0.000 C 
ATOM     28  C   UNL     1      -5.730  12.082  18.290  0.00  0.00    +0.000 C 
ATOM     29  C   UNL     1      -4.769  11.928  17.092  0.00  0.00    +0.000 C 
ENDROOT
BRANCH  28  30
ATOM     30  C   UNL     1      -6.278  10.690  18.536  0.00  0.00    +0.000 C 
ATOM     31  O   UNL     1      -7.475  10.384  18.531  0.00  0.00    +0.000 OA
BRANCH  30  32
ATOM     32  O   UNL     1      -5.322   9.733  18.715  0.00  0.00    +0.000 OA
ATOM     33  H   UNL     1      -4.513  10.033  19.172  0.00  0.00    +0.000 HD
ENDBRANCH  30  32
ENDBRANCH  28  30
BRANCH   1  34
ATOM     34  O   UNL     1      -6.349  14.255  17.338  0.00  0.00    +0.000 OA
BRANCH  34  36
ATOM     35  C   UNL     1      -7.144  16.435  17.034  0.00  0.00    +0.000 C 
ATOM     36  C   UNL     1      -7.126  15.021  16.531  0.00  0.00    +0.000 C 
ATOM     37  O   UNL     1      -7.706  14.635  15.529  0.00  0.00    +0.000 OA
ENDBRANCH  34  36
ENDBRANCH   1  34
TORSDOF 4
ENDMDL
MODEL 6
REMARK VINA RESULT:      -5.7      1.754      2.634
REMARK  Name = 
REMARK  12 active torsions:
REMARK  status: ('A' for Active; 'I' for Inactive)
REMARK    1  A    between atoms: C_1  and  C_2
REMARK    2  A    between atoms: C_2  and  O_4
REMARK    3  A    between atoms: O_4  and  C_5
REMARK    4  A    between atoms: C_8  and  C_9
REMARK    5  A    between atoms: C_13  and  C_14
REMARK    6  A    between atoms: C_20  and  C_21
REMARK    7  A    between atoms: C_22  and  C_23
REMARK    8  A    between atoms: C_26  and  C_27
REMARK    9  A    between atoms: C_30  and  C_31
REMARK   10  A    between atoms: C_32  and  C_33
REMARK   11  A    between atoms: C_32  and  C_34
REMARK   12  A    between atoms: C_34  and  O_36
REMARK                            x       y       z     vdW  Elec       q    Type
REMARK                         _______ _______ _______ _____ _____    ______ ____
ROOT
ATOM      1  C   UNL     1       0.744  14.923  19.546  0.00  0.00    +0.000 C 
ATOM      2  C   UNL     1       1.284  16.173  18.769  0.00  0.00    +0.000 C 
ATOM      3  C   UNL     1       2.829  16.445  18.879  0.00  0.00    +0.000 C 
ATOM      4  C   UNL     1       3.319  16.397  20.396  0.00  0.00    +0.000 C 
ATOM      5  C   UNL     1       2.676  17.679  21.019  0.00  0.00    +0.000 C 
ATOM      6  C   UNL     1       2.893  14.972  20.738  0.00  0.00    +0.000 C 
ATOM      7  C   UNL     1       4.046  14.270  21.378  0.00  0.00    +0.000 C 
ATOM      8  C   UNL     1       5.293  14.505  20.353  0.00  0.00    +0.000 C 
ATOM      9  C   UNL     1       5.731  16.178  19.597  0.00  0.00    +0.000 C 
ATOM     10  C   UNL     1       6.542  17.782  20.065  0.00  0.00    +0.000 C 
ATOM     11  C   UNL     1       4.884  16.645  20.690  0.00  0.00    +0.000 C 
ATOM     12  C   UNL     1       6.013  16.287  21.952  0.00  0.00    +0.000 C 
ATOM     13  C   UNL     1       7.525  15.536  21.459  0.00  0.00    +0.000 C 
ATOM     14  C   UNL     1       7.944  15.234  20.162  0.00  0.00    +0.000 C 
ATOM     15  C   UNL     1       9.203  14.499  19.551  0.00  0.00    +0.000 C 
ATOM     16  C   UNL     1      10.114  13.512  20.361  0.00  0.00    +0.000 C 
ATOM     17  C   UNL     1       9.294  12.435  21.084  0.00  0.00    +0.000 C 
ATOM     18  C   UNL     1      11.136  12.815  19.383  0.00  0.00    +0.000 C 
ATOM     19  C   UNL     1      12.138  11.881  20.075  0.00  0.00    +0.000 C 
ATOM     20  C   UNL     1      11.978  13.797  18.559  0.00  0.00    +0.000 C 
ATOM     21  C   UNL     1      11.180  14.884  17.900  0.00  0.00    +0.000 C 
ATOM     22  C   UNL     1      10.096  15.543  18.771  0.00  0.00    +0.000 C 
ATOM     23  C   UNL     1      10.753  16.496  19.803  0.00  0.00    +0.000 C 
ATOM     24  C   UNL     1       9.284  16.344  17.721  0.00  0.00    +0.000 C 
ATOM     25  C   UNL     1       7.981  16.861  18.255  0.00  0.00    +0.000 C 
ATOM     26  C   UNL     1       7.089  15.760  18.981  0.00  0.00    +0.000 C 
ATOM     27  C   UNL     1       6.625  14.875  17.780  0.00  0.00    +0.000 C 
ATOM     28  C   UNL     1       1.387  14.760  20.985  0.00  0.00    +0.000 C 
ATOM     29  C   UNL     1       1.074  13.370  21.575  0.00  0.00    +0.000 C 
ENDROOT
BRANCH  28  30
ATOM     30  C   UNL     1       0.733  15.747  21.932  0.00  0.00    +0.000 C 
ATOM     31  O   UNL     1       1.124  16.005  23.074  0.00  0.00    +0.000 OA
BRANCH  30  32
ATOM     32  O   UNL     1      -0.334  16.412  21.401  0.00  0.00    +0.000 OA
ATOM     33  H   UNL     1      -0.250  16.645  20.456  0.00  0.00    +0.000 HD
ENDBRANCH  30  32
ENDBRANCH  28  30
BRANCH   1  34
ATOM     34  O   UNL     1       1.104  13.735  18.776  0.00  0.00    +0.000 OA
BRANCH  34  36
ATOM     35  C   UNL     1       0.749  11.430  18.575  0.00  0.00    +0.000 C 
ATOM     36  C   UNL     1       0.147  12.804  18.531  0.00  0.00    +0.000 C 
ATOM     37  O   UNL     1      -1.035  13.036  18.330  0.00  0.00    +0.000 OA
ENDBRANCH  34  36
ENDBRANCH   1  34
TORSDOF 4
ENDMDL
MODEL 7
REMARK VINA RESULT:      -5.7      3.660      8.499
REMARK  Name = 
REMARK  12 active torsions:
REMARK  status: ('A' for Active; 'I' for Inactive)
REMARK    1  A    between atoms: C_1  and  C_2
REMARK    2  A    between atoms: C_2  and  O_4
REMARK    3  A    between atoms: O_4  and  C_5
REMARK    4  A    between atoms: C_8  and  C_9
REMARK    5  A    between atoms: C_13  and  C_14
REMARK    6  A    between atoms: C_20  and  C_21
REMARK    7  A    between atoms: C_22  and  C_23
REMARK    8  A    between atoms: C_26  and  C_27
REMARK    9  A    between atoms: C_30  and  C_31
REMARK   10  A    between atoms: C_32  and  C_33
REMARK   11  A    between atoms: C_32  and  C_34
REMARK   12  A    between atoms: C_34  and  O_36
REMARK                            x       y       z     vdW  Elec       q    Type
REMARK                         _______ _______ _______ _____ _____    ______ ____
ROOT
ATOM      1  C   UNL     1      10.248  13.242  19.778  0.00  0.00    +0.000 C 
ATOM      2  C   UNL     1       9.791  13.261  21.277  0.00  0.00    +0.000 C 
ATOM      3  C   UNL     1       8.500  14.099  21.601  0.00  0.00    +0.000 C 
ATOM      4  C   UNL     1       8.580  15.556  20.957  0.00  0.00    +0.000 C 
ATOM      5  C   UNL     1       9.693  16.258  21.800  0.00  0.00    +0.000 C 
ATOM      6  C   UNL     1       8.737  15.160  19.491  0.00  0.00    +0.000 C 
ATOM      7  C   UNL     1       7.750  15.933  18.680  0.00  0.00    +0.000 C 
ATOM      8  C   UNL     1       6.320  15.683  19.423  0.00  0.00    +0.000 C 
ATOM      9  C   UNL     1       6.066  15.826  21.288  0.00  0.00    +0.000 C 
ATOM     10  C   UNL     1       5.890  17.125  22.604  0.00  0.00    +0.000 C 
ATOM     11  C   UNL     1       7.330  16.548  21.182  0.00  0.00    +0.000 C 
ATOM     12  C   UNL     1       6.667  17.952  20.416  0.00  0.00    +0.000 C 
ATOM     13  C   UNL     1       4.944  17.911  20.067  0.00  0.00    +0.000 C 
ATOM     14  C   UNL     1       4.035  16.897  20.374  0.00  0.00    +0.000 C 
ATOM     15  C   UNL     1       2.503  16.658  20.068  0.00  0.00    +0.000 C 
ATOM     16  C   UNL     1       1.723  17.370  18.907  0.00  0.00    +0.000 C 
ATOM     17  C   UNL     1       2.456  17.249  17.565  0.00  0.00    +0.000 C 
ATOM     18  C   UNL     1       0.286  16.737  18.772  0.00  0.00    +0.000 C 
ATOM     19  C   UNL     1      -0.604  17.407  17.717  0.00  0.00    +0.000 C 
ATOM     20  C   UNL     1      -0.525  16.749  20.074  0.00  0.00    +0.000 C 
ATOM     21  C   UNL     1       0.229  16.245  21.269  0.00  0.00    +0.000 C 
ATOM     22  C   UNL     1       1.676  16.749  21.411  0.00  0.00    +0.000 C 
ATOM     23  C   UNL     1       1.679  18.225  21.889  0.00  0.00    +0.000 C 
ATOM     24  C   UNL     1       2.235  15.813  22.513  0.00  0.00    +0.000 C 
ATOM     25  C   UNL     1       3.728  15.893  22.651  0.00  0.00    +0.000 C 
ATOM     26  C   UNL     1       4.520  15.736  21.279  0.00  0.00    +0.000 C 
ATOM     27  C   UNL     1       4.300  14.225  20.949  0.00  0.00    +0.000 C 
ATOM     28  C   UNL     1      10.133  14.658  19.076  0.00  0.00    +0.000 C 
ATOM     29  C   UNL     1      10.285  14.528  17.546  0.00  0.00    +0.000 C 
ENDROOT
BRANCH  28  30
ATOM     30  C   UNL     1      11.299  15.522  19.516  0.00  0.00    +0.000 C 
ATOM     31  O   UNL     1      12.282  15.124  20.148  0.00  0.00    +0.000 OA
BRANCH  30  32
ATOM     32  O   UNL     1      11.224  16.819  19.101  0.00  0.00    +0.000 OA
ATOM     33  H   UNL     1      12.044  17.339  19.209  0.00  0.00    +0.000 HD
ENDBRANCH  30  32
ENDBRANCH  28  30
BRANCH   1  34
ATOM     34  O   UNL     1       9.361  12.330  19.058  0.00  0.00    +0.000 OA
BRANCH  34  36
ATOM     35  C   UNL     1       8.992  10.040  18.753  0.00  0.00    +0.000 C 
ATOM     36  C   UNL     1       9.892  11.214  18.498  0.00  0.00    +0.000 C 
ATOM     37  O   UNL     1      10.931  11.165  17.859  0.00  0.00    +0.000 OA
ENDBRANCH  34  36
ENDBRANCH   1  34
TORSDOF 4
ENDMDL
MODEL 8
REMARK VINA RESULT:      -5.3      1.541      2.038
REMARK  Name = 
REMARK  12 active torsions:
REMARK  status: ('A' for Active; 'I' for Inactive)
REMARK    1  A    between atoms: C_1  and  C_2
REMARK    2  A    between atoms: C_2  and  O_4
REMARK    3  A    between atoms: O_4  and  C_5
REMARK    4  A    between atoms: C_8  and  C_9
REMARK    5  A    between atoms: C_13  and  C_14
REMARK    6  A    between atoms: C_20  and  C_21
REMARK    7  A    between atoms: C_22  and  C_23
REMARK    8  A    between atoms: C_26  and  C_27
REMARK    9  A    between atoms: C_30  and  C_31
REMARK   10  A    between atoms: C_32  and  C_33
REMARK   11  A    between atoms: C_32  and  C_34
REMARK   12  A    between atoms: C_34  and  O_36
REMARK                            x       y       z     vdW  Elec       q    Type
REMARK                         _______ _______ _______ _____ _____    ______ ____
ROOT
ATOM      1  C   UNL     1       1.486  16.525  20.369  0.00  0.00    +0.000 C 
ATOM      2  C   UNL     1       2.221  17.781  19.787  0.00  0.00    +0.000 C 
ATOM      3  C   UNL     1       3.788  17.691  19.696  0.00  0.00    +0.000 C 
ATOM      4  C   UNL     1       4.419  17.184  21.071  0.00  0.00    +0.000 C 
ATOM      5  C   UNL     1       4.176  18.387  22.040  0.00  0.00    +0.000 C 
ATOM      6  C   UNL     1       3.704  15.839  21.179  0.00  0.00    +0.000 C 
ATOM      7  C   UNL     1       4.719  14.782  21.466  0.00  0.00    +0.000 C 
ATOM      8  C   UNL     1       5.862  14.986  20.321  0.00  0.00    +0.000 C 
ATOM      9  C   UNL     1       6.603  16.660  19.862  0.00  0.00    +0.000 C 
ATOM     10  C   UNL     1       7.822  17.902  20.510  0.00  0.00    +0.000 C 
ATOM     11  C   UNL     1       6.021  17.023  21.150  0.00  0.00    +0.000 C 
ATOM     12  C   UNL     1       7.164  16.148  22.111  0.00  0.00    +0.000 C 
ATOM     13  C   UNL     1       8.386  15.237  21.235  0.00  0.00    +0.000 C 
ATOM     14  C   UNL     1       8.573  15.169  19.854  0.00  0.00    +0.000 C 
ATOM     15  C   UNL     1       9.542  14.353  18.909  0.00  0.00    +0.000 C 
ATOM     16  C   UNL     1      10.274  13.034  19.339  0.00  0.00    +0.000 C 
ATOM     17  C   UNL     1       9.306  12.013  19.951  0.00  0.00    +0.000 C 
ATOM     18  C   UNL     1      10.982  12.391  18.087  0.00  0.00    +0.000 C 
ATOM     19  C   UNL     1      11.802  11.131  18.400  0.00  0.00    +0.000 C 
ATOM     20  C   UNL     1      11.938  13.342  17.355  0.00  0.00    +0.000 C 
ATOM     21  C   UNL     1      11.355  14.695  17.071  0.00  0.00    +0.000 C 
ATOM     22  C   UNL     1      10.566  15.342  18.223  0.00  0.00    +0.000 C 
ATOM     23  C   UNL     1      11.544  15.864  19.307  0.00  0.00    +0.000 C 
ATOM     24  C   UNL     1       9.859  16.519  17.506  0.00  0.00    +0.000 C 
ATOM     25  C   UNL     1       8.786  17.156  18.340  0.00  0.00    +0.000 C 
ATOM     26  C   UNL     1       7.743  16.126  18.961  0.00  0.00    +0.000 C 
ATOM     27  C   UNL     1       6.949  15.667  17.696  0.00  0.00    +0.000 C 
ATOM     28  C   UNL     1       2.229  15.895  21.620  0.00  0.00    +0.000 C 
ATOM     29  C   UNL     1       1.658  14.502  21.956  0.00  0.00    +0.000 C 
ENDROOT
BRANCH  28  30
ATOM     30  C   UNL     1       1.941  16.744  22.842  0.00  0.00    +0.000 C 
ATOM     31  O   UNL     1       1.115  17.661  22.895  0.00  0.00    +0.000 OA
BRANCH  30  32
ATOM     32  O   UNL     1       2.640  16.380  23.956  0.00  0.00    +0.000 OA
ATOM     33  H   UNL     1       2.099  16.213  24.751  0.00  0.00    +0.000 HD
ENDBRANCH  30  32
ENDBRANCH  28  30
BRANCH   1  34
ATOM     34  O   UNL     1       1.462  15.504  19.324  0.00  0.00    +0.000 OA
BRANCH  34  36
ATOM     35  C   UNL     1       0.018  13.825  18.565  0.00  0.00    +0.000 C 
ATOM     36  C   UNL     1       0.305  15.296  18.645  0.00  0.00    +0.000 C 
ATOM     37  O   UNL     1      -0.415  16.169  18.186  0.00  0.00    +0.000 OA
ENDBRANCH  34  36
ENDBRANCH   1  34
TORSDOF 4
ENDMDL
MODEL 9
REMARK VINA RESULT:      -5.3      1.665      2.352
REMARK  Name = 
REMARK  12 active torsions:
REMARK  status: ('A' for Active; 'I' for Inactive)
REMARK    1  A    between atoms: C_1  and  C_2
REMARK    2  A    between atoms: C_2  and  O_4
REMARK    3  A    between atoms: O_4  and  C_5
REMARK    4  A    between atoms: C_8  and  C_9
REMARK    5  A    between atoms: C_13  and  C_14
REMARK    6  A    between atoms: C_20  and  C_21
REMARK    7  A    between atoms: C_22  and  C_23
REMARK    8  A    between atoms: C_26  and  C_27
REMARK    9  A    between atoms: C_30  and  C_31
REMARK   10  A    between atoms: C_32  and  C_33
REMARK   11  A    between atoms: C_32  and  C_34
REMARK   12  A    between atoms: C_34  and  O_36
REMARK                            x       y       z     vdW  Elec       q    Type
REMARK                         _______ _______ _______ _____ _____    ______ ____
ROOT
ATOM      1  C   UNL     1       0.824  15.944  20.118  0.00  0.00    +0.000 C 
ATOM      2  C   UNL     1       1.447  17.118  19.288  0.00  0.00    +0.000 C 
ATOM      3  C   UNL     1       3.017  17.196  19.263  0.00  0.00    +0.000 C 
ATOM      4  C   UNL     1       3.626  17.083  20.734  0.00  0.00    +0.000 C 
ATOM      5  C   UNL     1       3.202  18.433  21.399  0.00  0.00    +0.000 C 
ATOM      6  C   UNL     1       3.057  15.721  21.122  0.00  0.00    +0.000 C 
ATOM      7  C   UNL     1       4.164  14.880  21.667  0.00  0.00    +0.000 C 
ATOM      8  C   UNL     1       5.338  14.960  20.538  0.00  0.00    +0.000 C 
ATOM      9  C   UNL     1       5.915  16.568  19.734  0.00  0.00    +0.000 C 
ATOM     10  C   UNL     1       6.955  18.057  20.119  0.00  0.00    +0.000 C 
ATOM     11  C   UNL     1       5.229  17.134  20.891  0.00  0.00    +0.000 C 
ATOM     12  C   UNL     1       6.408  16.635  22.056  0.00  0.00    +0.000 C 
ATOM     13  C   UNL     1       7.767  15.703  21.442  0.00  0.00    +0.000 C 
ATOM     14  C   UNL     1       8.033  15.354  20.117  0.00  0.00    +0.000 C 
ATOM     15  C   UNL     1       9.134  14.471  19.407  0.00  0.00    +0.000 C 
ATOM     16  C   UNL     1       9.982  13.375  20.144  0.00  0.00    +0.000 C 
ATOM     17  C   UNL     1       9.099  12.407  20.943  0.00  0.00    +0.000 C 
ATOM     18  C   UNL     1      10.822  12.559  19.088  0.00  0.00    +0.000 C 
ATOM     19  C   UNL     1      11.756  11.506  19.700  0.00  0.00    +0.000 C 
ATOM     20  C   UNL     1      11.706  13.431  18.188  0.00  0.00    +0.000 C 
ATOM     21  C   UNL     1      10.995  14.610  17.590  0.00  0.00    +0.000 C 
ATOM     22  C   UNL     1      10.080  15.397  18.545  0.00  0.00    +0.000 C 
ATOM     23  C   UNL     1      10.936  16.258  19.510  0.00  0.00    +0.000 C 
ATOM     24  C   UNL     1       9.288  16.296  17.561  0.00  0.00    +0.000 C 
ATOM     25  C   UNL     1       8.109  16.970  18.201  0.00  0.00    +0.000 C 
ATOM     26  C   UNL     1       7.153  15.986  19.009  0.00  0.00    +0.000 C 
ATOM     27  C   UNL     1       6.482  15.169  17.858  0.00  0.00    +0.000 C 
ATOM     28  C   UNL     1       1.563  15.698  21.498  0.00  0.00    +0.000 C 
ATOM     29  C   UNL     1       1.130  14.356  22.123  0.00  0.00    +0.000 C 
ENDROOT
BRANCH  28  30
ATOM     30  C   UNL     1       1.119  16.756  22.489  0.00  0.00    +0.000 C 
ATOM     31  O   UNL     1       0.257  17.614  22.278  0.00  0.00    +0.000 OA
BRANCH  30  32
ATOM     32  O   UNL     1       1.716  16.664  23.713  0.00  0.00    +0.000 OA
ATOM     33  H   UNL     1       2.644  16.964  23.747  0.00  0.00    +0.000 HD
ENDBRANCH  30  32
ENDBRANCH  28  30
BRANCH   1  34
ATOM     34  O   UNL     1       0.966  14.722  19.329  0.00  0.00    +0.000 OA
BRANCH  34  36
ATOM     35  C   UNL     1      -1.344  14.592  19.678  0.00  0.00    +0.000 C 
ATOM     36  C   UNL     1      -0.156  14.077  18.920  0.00  0.00    +0.000 C 
ATOM     37  O   UNL     1      -0.207  13.225  18.048  0.00  0.00    +0.000 OA
ENDBRANCH  34  36
ENDBRANCH   1  34
TORSDOF 4
ENDMDL
