MODEL 1
REMARK VINA RESULT:      -7.1      0.000      0.000
REMARK  Name = 
REMARK  7 active torsions:
REMARK  status: ('A' for Active; 'I' for Inactive)
REMARK    1  A    between atoms: C_1  and  C_2
REMARK    2  A    between atoms: C_2  and  C_3
REMARK    3  A    between atoms: C_3  and  O_4
REMARK    4  A    between atoms: O_4  and  C_5
REMARK    5  A    between atoms: C_11  and  N_12
REMARK    6  A    between atoms: N_15  and  C_16
REMARK    7  A    between atoms: C_16  and  C_17
REMARK                            x       y       z     vdW  Elec       q    Type
REMARK                         _______ _______ _______ _____ _____    ______ ____
ROOT
ATOM      1  C   UNL     1       2.942   5.343  18.857  0.00  0.00    +0.000 A 
ATOM      2  O   UNL     1       3.126   3.940  18.803  0.00  0.00    +0.000 OA
ATOM      3  C   UNL     1       3.808   3.321  17.803  0.00  0.00    +0.000 A 
ATOM      4  O   UNL     1       3.906   2.102  17.755  0.00  0.00    +0.000 OA
ATOM      5  C   UNL     1       4.463   4.203  16.810  0.00  0.00    +0.000 A 
ATOM      6  C   UNL     1       5.257   3.606  15.816  0.00  0.00    +0.000 A 
ATOM      7  C   UNL     1       5.957   4.378  14.887  0.00  0.00    +0.000 A 
ATOM      8  C   UNL     1       5.857   5.768  14.973  0.00  0.00    +0.000 A 
ATOM      9  C   UNL     1       5.034   6.365  15.945  0.00  0.00    +0.000 A 
ATOM     10  C   UNL     1       4.325   5.591  16.879  0.00  0.00    +0.000 A 
ATOM     11  C   UNL     1       3.478   6.156  17.935  0.00  0.00    +0.000 A 
ATOM     12 CL   UNL     1       3.194   7.865  17.986  0.00  0.00    +0.000 Cl
ENDROOT
BRANCH   7  13
ATOM     13  N   UNL     1       6.761   3.805  13.871  0.00  0.00    +0.000 N 
ATOM     14  C   UNL     1       6.269   3.195  12.740  0.00  0.00    +0.000 C 
ATOM     15  O   UNL     1       5.084   3.109  12.444  0.00  0.00    +0.000 OA
ATOM     16  N   UNL     1       7.245   2.711  11.899  0.00  0.00    +0.000 N 
ATOM     17  H   UNL     1       7.743   4.054  13.853  0.00  0.00    +0.000 HD
ATOM     18  H   UNL     1       8.123   2.431  12.320  0.00  0.00    +0.000 HD
BRANCH  16  19
ATOM     19  C   UNL     1       6.790   1.993  10.722  0.00  0.00    +0.000 C 
ATOM     20  C   UNL     1       6.279   0.598  11.011  0.00  0.00    +0.000 C 
ENDBRANCH  16  19
ENDBRANCH   7  13
BRANCH   1  21
ATOM     21  O   UNL     1       2.165   5.858  19.883  0.00  0.00    +0.000 OA
BRANCH  21  22
ATOM     22  C   UNL     1       2.149   5.024  21.045  0.00  0.00    +0.000 C 
BRANCH  22  24
ATOM     23  C   UNL     1       1.464   2.657  21.573  0.00  0.00    +0.000 C 
ATOM     24  C   UNL     1       1.114   3.927  20.819  0.00  0.00    +0.000 C 
ENDBRANCH  22  24
ENDBRANCH  21  22
ENDBRANCH   1  21
TORSDOF 5
ENDMDL
MODEL 2
REMARK VINA RESULT:      -6.9      6.264      8.880
REMARK  Name = 
REMARK  7 active torsions:
REMARK  status: ('A' for Active; 'I' for Inactive)
REMARK    1  A    between atoms: C_1  and  C_2
REMARK    2  A    between atoms: C_2  and  C_3
REMARK    3  A    between atoms: C_3  and  O_4
REMARK    4  A    between atoms: O_4  and  C_5
REMARK    5  A    between atoms: C_11  and  N_12
REMARK    6  A    between atoms: N_15  and  C_16
REMARK    7  A    between atoms: C_16  and  C_17
REMARK                            x       y       z     vdW  Elec       q    Type
REMARK                         _______ _______ _______ _____ _____    ______ ____
ROOT
ATOM      1  C   UNL     1      -0.922  11.936  21.754  0.00  0.00    +0.000 A 
ATOM      2  O   UNL     1      -0.539  11.240  22.926  0.00  0.00    +0.000 OA
ATOM      3  C   UNL     1       0.126  10.054  22.900  0.00  0.00    +0.000 A 
ATOM      4  O   UNL     1       0.398   9.450  23.928  0.00  0.00    +0.000 OA
ATOM      5  C   UNL     1       0.544   9.565  21.565  0.00  0.00    +0.000 A 
ATOM      6  C   UNL     1       1.317   8.393  21.502  0.00  0.00    +0.000 A 
ATOM      7  C   UNL     1       1.800   7.908  20.285  0.00  0.00    +0.000 A 
ATOM      8  C   UNL     1       1.505   8.625  19.125  0.00  0.00    +0.000 A 
ATOM      9  C   UNL     1       0.703   9.778  19.183  0.00  0.00    +0.000 A 
ATOM     10  C   UNL     1       0.210  10.266  20.405  0.00  0.00    +0.000 A 
ATOM     11  C   UNL     1      -0.604  11.480  20.533  0.00  0.00    +0.000 A 
ATOM     12 CL   UNL     1      -1.131  12.316  19.109  0.00  0.00    +0.000 Cl
ENDROOT
BRANCH   7  13
ATOM     13  N   UNL     1       2.577   6.728  20.190  0.00  0.00    +0.000 N 
ATOM     14  C   UNL     1       2.068   5.452  20.270  0.00  0.00    +0.000 C 
ATOM     15  O   UNL     1       0.881   5.173  20.389  0.00  0.00    +0.000 OA
ATOM     16  N   UNL     1       3.019   4.464  20.153  0.00  0.00    +0.000 N 
ATOM     17  H   UNL     1       3.514   6.811  19.815  0.00  0.00    +0.000 HD
ATOM     18  H   UNL     1       3.959   4.686  20.458  0.00  0.00    +0.000 HD
BRANCH  16  19
ATOM     19  C   UNL     1       2.555   3.096  20.300  0.00  0.00    +0.000 C 
ATOM     20  C   UNL     1       2.382   2.656  21.738  0.00  0.00    +0.000 C 
ENDBRANCH  16  19
ENDBRANCH   7  13
BRANCH   1  21
ATOM     21  O   UNL     1      -1.662  13.099  21.900  0.00  0.00    +0.000 OA
BRANCH  21  22
ATOM     22  C   UNL     1      -2.217  13.247  23.210  0.00  0.00    +0.000 C 
BRANCH  22  24
ATOM     23  C   UNL     1      -4.199  12.476  24.562  0.00  0.00    +0.000 C 
ATOM     24  C   UNL     1      -3.653  12.735  23.169  0.00  0.00    +0.000 C 
ENDBRANCH  22  24
ENDBRANCH  21  22
ENDBRANCH   1  21
TORSDOF 5
ENDMDL
MODEL 3
REMARK VINA RESULT:      -6.9      5.132      8.073
REMARK  Name = 
REMARK  7 active torsions:
REMARK  status: ('A' for Active; 'I' for Inactive)
REMARK    1  A    between atoms: C_1  and  C_2
REMARK    2  A    between atoms: C_2  and  C_3
REMARK    3  A    between atoms: C_3  and  O_4
REMARK    4  A    between atoms: O_4  and  C_5
REMARK    5  A    between atoms: C_11  and  N_12
REMARK    6  A    between atoms: N_15  and  C_16
REMARK    7  A    between atoms: C_16  and  C_17
REMARK                            x       y       z     vdW  Elec       q    Type
REMARK                         _______ _______ _______ _____ _____    ______ ____
ROOT
ATOM      1  C   UNL     1       3.797   4.862  19.165  0.00  0.00    +0.000 A 
ATOM      2  O   UNL     1       4.368   5.401  17.986  0.00  0.00    +0.000 OA
ATOM      3  C   UNL     1       3.973   6.586  17.447  0.00  0.00    +0.000 A 
ATOM      4  O   UNL     1       4.447   7.001  16.398  0.00  0.00    +0.000 OA
ATOM      5  C   UNL     1       2.978   7.361  18.223  0.00  0.00    +0.000 A 
ATOM      6  C   UNL     1       2.615   8.633  17.749  0.00  0.00    +0.000 A 
ATOM      7  C   UNL     1       1.733   9.448  18.461  0.00  0.00    +0.000 A 
ATOM      8  C   UNL     1       1.222   8.970  19.669  0.00  0.00    +0.000 A 
ATOM      9  C   UNL     1       1.557   7.683  20.126  0.00  0.00    +0.000 A 
ATOM     10  C   UNL     1       2.441   6.859  19.410  0.00  0.00    +0.000 A 
ATOM     11  C   UNL     1       2.852   5.522  19.851  0.00  0.00    +0.000 A 
ATOM     12 CL   UNL     1       2.126   4.820  21.259  0.00  0.00    +0.000 Cl
ENDROOT
BRANCH   7  13
ATOM     13  N   UNL     1       1.345  10.732  18.007  0.00  0.00    +0.000 N 
ATOM     14  C   UNL     1       1.404  11.877  18.767  0.00  0.00    +0.000 C 
ATOM     15  O   UNL     1       1.836  11.943  19.911  0.00  0.00    +0.000 OA
ATOM     16  N   UNL     1       0.971  13.006  18.109  0.00  0.00    +0.000 N 
ATOM     17  H   UNL     1       1.239  10.864  17.009  0.00  0.00    +0.000 HD
ATOM     18  H   UNL     1       0.278  12.882  17.381  0.00  0.00    +0.000 HD
BRANCH  16  19
ATOM     19  C   UNL     1       0.940  14.236  18.880  0.00  0.00    +0.000 C 
ATOM     20  C   UNL     1      -0.450  14.677  19.282  0.00  0.00    +0.000 C 
ENDBRANCH  16  19
ENDBRANCH   7  13
BRANCH   1  21
ATOM     21  O   UNL     1       4.226   3.611  19.581  0.00  0.00    +0.000 OA
BRANCH  21  22
ATOM     22  C   UNL     1       3.872   2.567  18.670  0.00  0.00    +0.000 C 
BRANCH  22  24
ATOM     23  C   UNL     1       1.363   2.348  18.592  0.00  0.00    +0.000 C 
ATOM     24  C   UNL     1       2.648   1.852  19.232  0.00  0.00    +0.000 C 
ENDBRANCH  22  24
ENDBRANCH  21  22
ENDBRANCH   1  21
TORSDOF 5
ENDMDL
MODEL 4
REMARK VINA RESULT:      -6.9      5.339      8.981
REMARK  Name = 
REMARK  7 active torsions:
REMARK  status: ('A' for Active; 'I' for Inactive)
REMARK    1  A    between atoms: C_1  and  C_2
REMARK    2  A    between atoms: C_2  and  C_3
REMARK    3  A    between atoms: C_3  and  O_4
REMARK    4  A    between atoms: O_4  and  C_5
REMARK    5  A    between atoms: C_11  and  N_12
REMARK    6  A    between atoms: N_15  and  C_16
REMARK    7  A    between atoms: C_16  and  C_17
REMARK                            x       y       z     vdW  Elec       q    Type
REMARK                         _______ _______ _______ _____ _____    ______ ____
ROOT
ATOM      1  C   UNL     1       4.010   5.426  18.279  0.00  0.00    +0.000 A 
ATOM      2  O   UNL     1       3.325   5.082  19.469  0.00  0.00    +0.000 OA
ATOM      3  C   UNL     1       2.483   5.935  20.112  0.00  0.00    +0.000 A 
ATOM      4  O   UNL     1       1.946   5.629  21.168  0.00  0.00    +0.000 OA
ATOM      5  C   UNL     1       2.217   7.228  19.439  0.00  0.00    +0.000 A 
ATOM      6  C   UNL     1       1.280   8.097  20.022  0.00  0.00    +0.000 A 
ATOM      7  C   UNL     1       0.932   9.303  19.409  0.00  0.00    +0.000 A 
ATOM      8  C   UNL     1       1.533   9.623  18.191  0.00  0.00    +0.000 A 
ATOM      9  C   UNL     1       2.497   8.771  17.626  0.00  0.00    +0.000 A 
ATOM     10  C   UNL     1       2.854   7.559  18.241  0.00  0.00    +0.000 A 
ATOM     11  C   UNL     1       3.828   6.614  17.684  0.00  0.00    +0.000 A 
ATOM     12 CL   UNL     1       4.719   7.038  16.258  0.00  0.00    +0.000 Cl
ENDROOT
BRANCH   7  13
ATOM     13  N   UNL     1      -0.007  10.201  19.975  0.00  0.00    +0.000 N 
ATOM     14  C   UNL     1       0.318  11.229  20.830  0.00  0.00    +0.000 C 
ATOM     15  O   UNL     1       1.454  11.526  21.176  0.00  0.00    +0.000 OA
ATOM     16  N   UNL     1      -0.765  11.966  21.252  0.00  0.00    +0.000 N 
ATOM     17  H   UNL     1      -0.928  10.243  19.556  0.00  0.00    +0.000 HD
ATOM     18  H   UNL     1      -1.659  11.492  21.298  0.00  0.00    +0.000 HD
BRANCH  16  19
ATOM     19  C   UNL     1      -0.498  13.021  22.213  0.00  0.00    +0.000 C 
ATOM     20  C   UNL     1      -1.492  13.083  23.352  0.00  0.00    +0.000 C 
ENDBRANCH  16  19
ENDBRANCH   7  13
BRANCH   1  21
ATOM     21  O   UNL     1       4.901   4.504  17.752  0.00  0.00    +0.000 OA
BRANCH  21  22
ATOM     22  C   UNL     1       6.149   4.469  18.450  0.00  0.00    +0.000 C 
BRANCH  22  24
ATOM     23  C   UNL     1       6.866   4.259  16.043  0.00  0.00    +0.000 C 
ATOM     24  C   UNL     1       7.258   4.722  17.435  0.00  0.00    +0.000 C 
ENDBRANCH  22  24
ENDBRANCH  21  22
ENDBRANCH   1  21
TORSDOF 5
ENDMDL
MODEL 5
REMARK VINA RESULT:      -6.8      2.438      3.584
REMARK  Name = 
REMARK  7 active torsions:
REMARK  status: ('A' for Active; 'I' for Inactive)
REMARK    1  A    between atoms: C_1  and  C_2
REMARK    2  A    between atoms: C_2  and  C_3
REMARK    3  A    between atoms: C_3  and  O_4
REMARK    4  A    between atoms: O_4  and  C_5
REMARK    5  A    between atoms: C_11  and  N_12
REMARK    6  A    between atoms: N_15  and  C_16
REMARK    7  A    between atoms: C_16  and  C_17
REMARK                            x       y       z     vdW  Elec       q    Type
REMARK                         _______ _______ _______ _____ _____    ______ ____
ROOT
ATOM      1  C   UNL     1       1.982   6.483  20.203  0.00  0.00    +0.000 A 
ATOM      2  O   UNL     1       2.299   7.383  19.157  0.00  0.00    +0.000 OA
ATOM      3  C   UNL     1       3.182   7.084  18.166  0.00  0.00    +0.000 A 
ATOM      4  O   UNL     1       3.475   7.901  17.304  0.00  0.00    +0.000 OA
ATOM      5  C   UNL     1       3.724   5.706  18.162  0.00  0.00    +0.000 A 
ATOM      6  C   UNL     1       4.564   5.328  17.101  0.00  0.00    +0.000 A 
ATOM      7  C   UNL     1       5.060   4.027  16.998  0.00  0.00    +0.000 A 
ATOM      8  C   UNL     1       4.692   3.100  17.974  0.00  0.00    +0.000 A 
ATOM      9  C   UNL     1       3.881   3.486  19.055  0.00  0.00    +0.000 A 
ATOM     10  C   UNL     1       3.383   4.796  19.165  0.00  0.00    +0.000 A 
ATOM     11  C   UNL     1       2.508   5.250  20.251  0.00  0.00    +0.000 A 
ATOM     12 CL   UNL     1       2.151   4.184  21.571  0.00  0.00    +0.000 Cl
ENDROOT
BRANCH   7  13
ATOM     13  N   UNL     1       5.912   3.618  15.942  0.00  0.00    +0.000 N 
ATOM     14  C   UNL     1       5.711   3.926  14.616  0.00  0.00    +0.000 C 
ATOM     15  O   UNL     1       4.803   4.625  14.184  0.00  0.00    +0.000 OA
ATOM     16  N   UNL     1       6.672   3.415  13.774  0.00  0.00    +0.000 N 
ATOM     17  H   UNL     1       6.835   3.282  16.188  0.00  0.00    +0.000 HD
ATOM     18  H   UNL     1       7.135   2.561  14.062  0.00  0.00    +0.000 HD
BRANCH  16  19
ATOM     19  C   UNL     1       6.479   3.644  12.353  0.00  0.00    +0.000 C 
ATOM     20  C   UNL     1       6.601   2.397  11.505  0.00  0.00    +0.000 C 
ENDBRANCH  16  19
ENDBRANCH   7  13
BRANCH   1  21
ATOM     21  O   UNL     1       1.125   6.922  21.201  0.00  0.00    +0.000 OA
BRANCH  21  22
ATOM     22  C   UNL     1       1.148   8.342  21.372  0.00  0.00    +0.000 C 
BRANCH  22  24
ATOM     23  C   UNL     1      -0.201   9.593  23.094  0.00  0.00    +0.000 C 
ATOM     24  C   UNL     1      -0.245   8.781  21.812  0.00  0.00    +0.000 C 
ENDBRANCH  22  24
ENDBRANCH  21  22
ENDBRANCH   1  21
TORSDOF 5
ENDMDL
MODEL 6
REMARK VINA RESULT:      -6.8      4.495      8.612
REMARK  Name = 
REMARK  7 active torsions:
REMARK  status: ('A' for Active; 'I' for Inactive)
REMARK    1  A    between atoms: C_1  and  C_2
REMARK    2  A    between atoms: C_2  and  C_3
REMARK    3  A    between atoms: C_3  and  O_4
REMARK    4  A    between atoms: O_4  and  C_5
REMARK    5  A    between atoms: C_11  and  N_12
REMARK    6  A    between atoms: N_15  and  C_16
REMARK    7  A    between atoms: C_16  and  C_17
REMARK                            x       y       z     vdW  Elec       q    Type
REMARK                         _______ _______ _______ _____ _____    ______ ____
ROOT
ATOM      1  C   UNL     1       4.604   4.494  16.763  0.00  0.00    +0.000 A 
ATOM      2  O   UNL     1       4.721   5.901  16.651  0.00  0.00    +0.000 OA
ATOM      3  C   UNL     1       4.035   6.766  17.445  0.00  0.00    +0.000 A 
ATOM      4  O   UNL     1       4.116   7.977  17.291  0.00  0.00    +0.000 OA
ATOM      5  C   UNL     1       3.228   6.162  18.531  0.00  0.00    +0.000 A 
ATOM      6  C   UNL     1       2.580   7.025  19.431  0.00  0.00    +0.000 A 
ATOM      7  C   UNL     1       1.856   6.528  20.517  0.00  0.00    +0.000 A 
ATOM      8  C   UNL     1       1.796   5.145  20.694  0.00  0.00    +0.000 A 
ATOM      9  C   UNL     1       2.414   4.281  19.773  0.00  0.00    +0.000 A 
ATOM     10  C   UNL     1       3.140   4.777  18.677  0.00  0.00    +0.000 A 
ATOM     11  C   UNL     1       3.833   3.927  17.702  0.00  0.00    +0.000 A 
ATOM     12 CL   UNL     1       3.658   2.205  17.786  0.00  0.00    +0.000 Cl
ENDROOT
BRANCH   7  13
ATOM     13  N   UNL     1       1.189   7.372  21.438  0.00  0.00    +0.000 N 
ATOM     14  C   UNL     1       0.728   8.635  21.144  0.00  0.00    +0.000 C 
ATOM     15  O   UNL     1       0.794   9.172  20.046  0.00  0.00    +0.000 OA
ATOM     16  N   UNL     1       0.114   9.265  22.204  0.00  0.00    +0.000 N 
ATOM     17  H   UNL     1       0.824   6.950  22.283  0.00  0.00    +0.000 HD
ATOM     18  H   UNL     1       0.419   9.009  23.135  0.00  0.00    +0.000 HD
BRANCH  16  19
ATOM     19  C   UNL     1      -0.330  10.629  21.979  0.00  0.00    +0.000 C 
ATOM     20  C   UNL     1      -1.298  11.141  23.022  0.00  0.00    +0.000 C 
ENDBRANCH  16  19
ENDBRANCH   7  13
BRANCH   1  21
ATOM     21  O   UNL     1       5.294   3.710  15.852  0.00  0.00    +0.000 OA
BRANCH  21  22
ATOM     22  C   UNL     1       6.614   4.193  15.585  0.00  0.00    +0.000 C 
BRANCH  22  24
ATOM     23  C   UNL     1       5.600   3.736  13.324  0.00  0.00    +0.000 C 
ATOM     24  C   UNL     1       6.743   4.391  14.078  0.00  0.00    +0.000 C 
ENDBRANCH  22  24
ENDBRANCH  21  22
ENDBRANCH   1  21
TORSDOF 5
ENDMDL
MODEL 7
REMARK VINA RESULT:      -6.8      4.726      6.532
REMARK  Name = 
REMARK  7 active torsions:
REMARK  status: ('A' for Active; 'I' for Inactive)
REMARK    1  A    between atoms: C_1  and  C_2
REMARK    2  A    between atoms: C_2  and  C_3
REMARK    3  A    between atoms: C_3  and  O_4
REMARK    4  A    between atoms: O_4  and  C_5
REMARK    5  A    between atoms: C_11  and  N_12
REMARK    6  A    between atoms: N_15  and  C_16
REMARK    7  A    between atoms: C_16  and  C_17
REMARK                            x       y       z     vdW  Elec       q    Type
REMARK                         _______ _______ _______ _____ _____    ______ ____
ROOT
ATOM      1  C   UNL     1       0.860  10.636  20.744  0.00  0.00    +0.000 A 
ATOM      2  O   UNL     1       1.134  10.911  19.382  0.00  0.00    +0.000 OA
ATOM      3  C   UNL     1       1.672   9.992  18.535  0.00  0.00    +0.000 A 
ATOM      4  O   UNL     1       1.947  10.274  17.377  0.00  0.00    +0.000 OA
ATOM      5  C   UNL     1       1.857   8.627  19.079  0.00  0.00    +0.000 A 
ATOM      6  C   UNL     1       2.320   7.626  18.208  0.00  0.00    +0.000 A 
ATOM      7  C   UNL     1       2.457   6.303  18.633  0.00  0.00    +0.000 A 
ATOM      8  C   UNL     1       2.112   5.993  19.950  0.00  0.00    +0.000 A 
ATOM      9  C   UNL     1       1.683   7.000  20.831  0.00  0.00    +0.000 A 
ATOM     10  C   UNL     1       1.548   8.334  20.408  0.00  0.00    +0.000 A 
ATOM     11  C   UNL     1       1.075   9.422  21.271  0.00  0.00    +0.000 A 
ATOM     12 CL   UNL     1       0.787   9.121  22.954  0.00  0.00    +0.000 Cl
ENDROOT
BRANCH   7  13
ATOM     13  N   UNL     1       2.925   5.273  17.780  0.00  0.00    +0.000 N 
ATOM     14  C   UNL     1       4.235   5.123  17.388  0.00  0.00    +0.000 C 
ATOM     15  O   UNL     1       5.167   5.827  17.756  0.00  0.00    +0.000 OA
ATOM     16  N   UNL     1       4.448   4.049  16.554  0.00  0.00    +0.000 N 
ATOM     17  H   UNL     1       2.321   4.473  17.635  0.00  0.00    +0.000 HD
ATOM     18  H   UNL     1       3.675   3.758  15.966  0.00  0.00    +0.000 HD
BRANCH  16  19
ATOM     19  C   UNL     1       5.797   3.878  16.046  0.00  0.00    +0.000 C 
ATOM     20  C   UNL     1       5.928   4.101  14.555  0.00  0.00    +0.000 C 
ENDBRANCH  16  19
ENDBRANCH   7  13
BRANCH   1  21
ATOM     21  O   UNL     1       0.381  11.671  21.532  0.00  0.00    +0.000 OA
BRANCH  21  22
ATOM     22  C   UNL     1      -1.015  11.918  21.344  0.00  0.00    +0.000 C 
BRANCH  22  24
ATOM     23  C   UNL     1      -2.626  11.919  23.282  0.00  0.00    +0.000 C 
ATOM     24  C   UNL     1      -1.523  12.677  22.566  0.00  0.00    +0.000 C 
ENDBRANCH  22  24
ENDBRANCH  21  22
ENDBRANCH   1  21
TORSDOF 5
ENDMDL
MODEL 8
REMARK VINA RESULT:      -6.8      5.463      8.640
REMARK  Name = 
REMARK  7 active torsions:
REMARK  status: ('A' for Active; 'I' for Inactive)
REMARK    1  A    between atoms: C_1  and  C_2
REMARK    2  A    between atoms: C_2  and  C_3
REMARK    3  A    between atoms: C_3  and  O_4
REMARK    4  A    between atoms: O_4  and  C_5
REMARK    5  A    between atoms: C_11  and  N_12
REMARK    6  A    between atoms: N_15  and  C_16
REMARK    7  A    between atoms: C_16  and  C_17
REMARK                            x       y       z     vdW  Elec       q    Type
REMARK                         _______ _______ _______ _____ _____    ______ ____
ROOT
ATOM      1  C   UNL     1       3.908   5.375  18.255  0.00  0.00    +0.000 A 
ATOM      2  O   UNL     1       3.159   5.089  19.422  0.00  0.00    +0.000 OA
ATOM      3  C   UNL     1       2.365   6.007  20.036  0.00  0.00    +0.000 A 
ATOM      4  O   UNL     1       1.771   5.746  21.073  0.00  0.00    +0.000 OA
ATOM      5  C   UNL     1       2.224   7.314  19.355  0.00  0.00    +0.000 A 
ATOM      6  C   UNL     1       1.339   8.256  19.906  0.00  0.00    +0.000 A 
ATOM      7  C   UNL     1       1.107   9.484  19.283  0.00  0.00    +0.000 A 
ATOM      8  C   UNL     1       1.772   9.753  18.086  0.00  0.00    +0.000 A 
ATOM      9  C   UNL     1       2.685   8.827  17.553  0.00  0.00    +0.000 A 
ATOM     10  C   UNL     1       2.925   7.592  18.179  0.00  0.00    +0.000 A 
ATOM     11  C   UNL     1       3.840   6.573  17.655  0.00  0.00    +0.000 A 
ATOM     12 CL   UNL     1       4.808   6.922  16.260  0.00  0.00    +0.000 Cl
ENDROOT
BRANCH   7  13
ATOM     13  N   UNL     1       0.223  10.454  19.817  0.00  0.00    +0.000 N 
ATOM     14  C   UNL     1      -1.008  10.762  19.286  0.00  0.00    +0.000 C 
ATOM     15  O   UNL     1      -1.516  10.211  18.317  0.00  0.00    +0.000 OA
ATOM     16  N   UNL     1      -1.685  11.741  19.978  0.00  0.00    +0.000 N 
ATOM     17  H   UNL     1       0.394  10.775  20.762  0.00  0.00    +0.000 HD
ATOM     18  H   UNL     1      -1.128  12.427  20.474  0.00  0.00    +0.000 HD
BRANCH  16  19
ATOM     19  C   UNL     1      -2.960  12.162  19.426  0.00  0.00    +0.000 C 
ATOM     20  C   UNL     1      -3.890  12.795  20.438  0.00  0.00    +0.000 C 
ENDBRANCH  16  19
ENDBRANCH   7  13
BRANCH   1  21
ATOM     21  O   UNL     1       4.741   4.385  17.758  0.00  0.00    +0.000 OA
BRANCH  21  22
ATOM     22  C   UNL     1       5.886   4.151  18.582  0.00  0.00    +0.000 C 
BRANCH  22  24
ATOM     23  C   UNL     1       7.713   5.865  18.855  0.00  0.00    +0.000 C 
ATOM     24  C   UNL     1       7.079   4.842  17.930  0.00  0.00    +0.000 C 
ENDBRANCH  22  24
ENDBRANCH  21  22
ENDBRANCH   1  21
TORSDOF 5
ENDMDL
MODEL 9
REMARK VINA RESULT:      -6.7      4.282      8.452
REMARK  Name = 
REMARK  7 active torsions:
REMARK  status: ('A' for Active; 'I' for Inactive)
REMARK    1  A    between atoms: C_1  and  C_2
REMARK    2  A    between atoms: C_2  and  C_3
REMARK    3  A    between atoms: C_3  and  O_4
REMARK    4  A    between atoms: O_4  and  C_5
REMARK    5  A    between atoms: C_11  and  N_12
REMARK    6  A    between atoms: N_15  and  C_16
REMARK    7  A    between atoms: C_16  and  C_17
REMARK                            x       y       z     vdW  Elec       q    Type
REMARK                         _______ _______ _______ _____ _____    ______ ____
ROOT
ATOM      1  C   UNL     1       5.256   4.572  17.058  0.00  0.00    +0.000 A 
ATOM      2  O   UNL     1       4.866   3.669  18.076  0.00  0.00    +0.000 OA
ATOM      3  C   UNL     1       4.020   4.011  19.085  0.00  0.00    +0.000 A 
ATOM      4  O   UNL     1       3.741   3.225  19.980  0.00  0.00    +0.000 OA
ATOM      5  C   UNL     1       3.422   5.364  19.010  0.00  0.00    +0.000 A 
ATOM      6  C   UNL     1       2.470   5.721  19.981  0.00  0.00    +0.000 A 
ATOM      7  C   UNL     1       1.818   6.955  19.936  0.00  0.00    +0.000 A 
ATOM      8  C   UNL     1       2.127   7.828  18.892  0.00  0.00    +0.000 A 
ATOM      9  C   UNL     1       3.105   7.486  17.941  0.00  0.00    +0.000 A 
ATOM     10  C   UNL     1       3.767   6.248  17.986  0.00  0.00    +0.000 A 
ATOM     11  C   UNL     1       4.772   5.821  17.005  0.00  0.00    +0.000 A 
ATOM     12 CL   UNL     1       5.306   6.930  15.784  0.00  0.00    +0.000 Cl
ENDROOT
BRANCH   7  13
ATOM     13  N   UNL     1       0.858   7.344  20.902  0.00  0.00    +0.000 N 
ATOM     14  C   UNL     1       0.894   8.529  21.601  0.00  0.00    +0.000 C 
ATOM     15  O   UNL     1       1.728   9.412  21.450  0.00  0.00    +0.000 OA
ATOM     16  N   UNL     1      -0.147   8.684  22.489  0.00  0.00    +0.000 N 
ATOM     17  H   UNL     1      -0.022   6.843  20.918  0.00  0.00    +0.000 HD
ATOM     18  H   UNL     1      -0.552   7.842  22.881  0.00  0.00    +0.000 HD
BRANCH  16  19
ATOM     19  C   UNL     1      -0.127   9.881  23.310  0.00  0.00    +0.000 C 
ATOM     20  C   UNL     1      -1.206  10.884  22.963  0.00  0.00    +0.000 C 
ENDBRANCH  16  19
ENDBRANCH   7  13
BRANCH   1  21
ATOM     21  O   UNL     1       6.182   4.136  16.122  0.00  0.00    +0.000 OA
BRANCH  21  22
ATOM     22  C   UNL     1       5.575   3.618  14.935  0.00  0.00    +0.000 C 
BRANCH  22  24
ATOM     23  C   UNL     1       5.971   3.397  12.456  0.00  0.00    +0.000 C 
ATOM     24  C   UNL     1       6.429   4.051  13.748  0.00  0.00    +0.000 C 
ENDBRANCH  22  24
ENDBRANCH  21  22
ENDBRANCH   1  21
TORSDOF 5
ENDMDL
