MODEL 1
REMARK VINA RESULT:      -6.9      0.000      0.000
REMARK  Name = 
REMARK  5 active torsions:
REMARK  status: ('A' for Active; 'I' for Inactive)
REMARK    1  A    between atoms: C_1  and  C_2
REMARK    2  A    between atoms: C_2  and  C_3
REMARK    3  A    between atoms: C_23  and  C_24
REMARK    4  A    between atoms: C_24  and  N_25
REMARK    5  A    between atoms: N_28  and  C_29
REMARK                            x       y       z     vdW  Elec       q    Type
REMARK                         _______ _______ _______ _____ _____    ______ ____
ROOT
ATOM      1  C   UNL     1       0.450   9.291  20.030  0.00  0.00    +0.000 A 
ATOM      2  N   UNL     1      -0.056  10.505  20.150  0.00  0.00    +0.000 NA
ATOM      3  C   UNL     1       0.704  11.310  19.358  0.00  0.00    +0.000 A 
ATOM      4  C   UNL     1       0.595  12.696  19.170  0.00  0.00    +0.000 A 
ATOM      5  C   UNL     1       1.492  13.338  18.311  0.00  0.00    +0.000 A 
ATOM      6  C   UNL     1       2.473  12.607  17.648  0.00  0.00    +0.000 A 
ATOM      7  C   UNL     1       2.594  11.222  17.821  0.00  0.00    +0.000 A 
ATOM      8  C   UNL     1       1.697  10.589  18.698  0.00  0.00    +0.000 A 
ATOM      9  N   UNL     1       1.519   9.271  19.121  0.00  0.00    +0.000 N 
ATOM     10  C   UNL     1       2.295   8.122  18.733  0.00  0.00    +0.000 A 
ATOM     11  N   UNL     1       1.878   6.928  19.196  0.00  0.00    +0.000 NA
ATOM     12  C   UNL     1       2.561   5.796  18.933  0.00  0.00    +0.000 A 
ATOM     13  N   UNL     1       2.103   4.608  19.437  0.00  0.00    +0.000 N 
ATOM     14  C   UNL     1       1.356   4.554  20.692  0.00  0.00    +0.000 C 
ATOM     15  C   UNL     1       1.892   3.355  21.500  0.00  0.00    +0.000 C 
ATOM     16  O   UNL     1       1.850   2.125  20.751  0.00  0.00    +0.000 OA
ATOM     17  C   UNL     1       2.597   2.243  19.525  0.00  0.00    +0.000 C 
ATOM     18  C   UNL     1       2.036   3.375  18.655  0.00  0.00    +0.000 C 
ATOM     19  C   UNL     1       3.769   5.938  18.241  0.00  0.00    +0.000 A 
ATOM     20  S   UNL     1       4.999   4.777  17.937  0.00  0.00    +0.000 S 
ATOM     21  C   UNL     1       5.931   5.860  17.010  0.00  0.00    +0.000 A 
ATOM     22  C   UNL     1       5.369   7.125  17.022  0.00  0.00    +0.000 A 
ATOM     23  C   UNL     1       4.135   7.186  17.755  0.00  0.00    +0.000 A 
ATOM     24  N   UNL     1       3.388   8.300  17.969  0.00  0.00    +0.000 NA
ENDROOT
BRANCH   1  26
ATOM     25  C   UNL     1      -0.408   8.442  22.248  0.00  0.00    +0.000 C 
ATOM     26  C   UNL     1      -0.029   8.106  20.813  0.00  0.00    +0.000 C 
ENDBRANCH   1  26
BRANCH  21  27
ATOM     27  C   UNL     1       7.174   5.357  16.322  0.00  0.00    +0.000 C 
BRANCH  27  28
ATOM     28  N   UNL     1       6.760   4.757  15.061  0.00  0.00    +0.000 N 
ATOM     29  C   UNL     1       5.821   3.642  15.058  0.00  0.00    +0.000 C 
ATOM     30  C   UNL     1       4.903   3.668  13.833  0.00  0.00    +0.000 C 
ATOM     31  N   UNL     1       5.628   3.815  12.565  0.00  0.00    +0.000 NA
ATOM     32  C   UNL     1       6.346   2.608  12.172  0.00  0.00    +0.000 C 
ATOM     33  C   UNL     1       6.525   4.991  12.605  0.00  0.00    +0.000 C 
ATOM     34  C   UNL     1       7.369   5.151  13.880  0.00  0.00    +0.000 C 
ATOM     35  O   UNL     1       8.440   5.757  13.859  0.00  0.00    +0.000 OA
ENDBRANCH  27  28
ENDBRANCH  21  27
TORSDOF 3
ENDMDL
MODEL 2
REMARK VINA RESULT:      -6.8      4.154     10.408
REMARK  Name = 
REMARK  5 active torsions:
REMARK  status: ('A' for Active; 'I' for Inactive)
REMARK    1  A    between atoms: C_1  and  C_2
REMARK    2  A    between atoms: C_2  and  C_3
REMARK    3  A    between atoms: C_23  and  C_24
REMARK    4  A    between atoms: C_24  and  N_25
REMARK    5  A    between atoms: N_28  and  C_29
REMARK                            x       y       z     vdW  Elec       q    Type
REMARK                         _______ _______ _______ _____ _____    ______ ____
ROOT
ATOM      1  C   UNL     1       3.181   6.611  18.346  0.00  0.00    +0.000 A 
ATOM      2  N   UNL     1       3.607   5.369  18.204  0.00  0.00    +0.000 NA
ATOM      3  C   UNL     1       2.978   4.643  19.170  0.00  0.00    +0.000 A 
ATOM      4  C   UNL     1       3.121   3.277  19.460  0.00  0.00    +0.000 A 
ATOM      5  C   UNL     1       2.383   2.726  20.511  0.00  0.00    +0.000 A 
ATOM      6  C   UNL     1       1.514   3.522  21.253  0.00  0.00    +0.000 A 
ATOM      7  C   UNL     1       1.357   4.886  20.974  0.00  0.00    +0.000 A 
ATOM      8  C   UNL     1       2.115   5.434  19.924  0.00  0.00    +0.000 A 
ATOM      9  N   UNL     1       2.233   6.711  19.376  0.00  0.00    +0.000 N 
ATOM     10  C   UNL     1       1.547   7.905  19.799  0.00  0.00    +0.000 A 
ATOM     11  N   UNL     1       1.747   9.010  19.055  0.00  0.00    +0.000 NA
ATOM     12  C   UNL     1       1.192  10.192  19.391  0.00  0.00    +0.000 A 
ATOM     13  N   UNL     1       1.434  11.290  18.610  0.00  0.00    +0.000 N 
ATOM     14  C   UNL     1       2.683  11.430  17.865  0.00  0.00    +0.000 C 
ATOM     15  C   UNL     1       3.162  12.886  18.030  0.00  0.00    +0.000 C 
ATOM     16  O   UNL     1       2.154  13.842  17.649  0.00  0.00    +0.000 OA
ATOM     17  C   UNL     1       0.947  13.650  18.413  0.00  0.00    +0.000 C 
ATOM     18  C   UNL     1       0.394  12.234  18.205  0.00  0.00    +0.000 C 
ATOM     19  C   UNL     1       0.483  10.231  20.598  0.00  0.00    +0.000 A 
ATOM     20  S   UNL     1      -0.150  11.583  21.452  0.00  0.00    +0.000 S 
ATOM     21  C   UNL     1      -0.854  10.614  22.662  0.00  0.00    +0.000 A 
ATOM     22  C   UNL     1      -0.519   9.283  22.482  0.00  0.00    +0.000 A 
ATOM     23  C   UNL     1       0.277   9.056  21.308  0.00  0.00    +0.000 A 
ATOM     24  N   UNL     1       0.783   7.862  20.905  0.00  0.00    +0.000 NA
ENDROOT
BRANCH   1  26
ATOM     25  C   UNL     1       4.806   7.383  16.573  0.00  0.00    +0.000 C 
ATOM     26  C   UNL     1       3.697   7.766  17.543  0.00  0.00    +0.000 C 
ENDBRANCH   1  26
BRANCH  21  27
ATOM     27  C   UNL     1      -1.709  11.264  23.719  0.00  0.00    +0.000 C 
BRANCH  27  28
ATOM     28  N   UNL     1      -2.351  12.420  23.109  0.00  0.00    +0.000 N 
ATOM     29  C   UNL     1      -3.311  12.235  22.027  0.00  0.00    +0.000 C 
ATOM     30  C   UNL     1      -4.424  13.286  22.061  0.00  0.00    +0.000 C 
ATOM     31  N   UNL     1      -3.922  14.662  22.157  0.00  0.00    +0.000 NA
ATOM     32  C   UNL     1      -3.320  15.141  20.918  0.00  0.00    +0.000 C 
ATOM     33  C   UNL     1      -2.996  14.805  23.301  0.00  0.00    +0.000 C 
ATOM     34  C   UNL     1      -1.942  13.698  23.458  0.00  0.00    +0.000 C 
ATOM     35  O   UNL     1      -0.871  13.916  24.025  0.00  0.00    +0.000 OA
ENDBRANCH  27  28
ENDBRANCH  21  27
TORSDOF 3
ENDMDL
MODEL 3
REMARK VINA RESULT:      -6.8      4.046     10.430
REMARK  Name = 
REMARK  5 active torsions:
REMARK  status: ('A' for Active; 'I' for Inactive)
REMARK    1  A    between atoms: C_1  and  C_2
REMARK    2  A    between atoms: C_2  and  C_3
REMARK    3  A    between atoms: C_23  and  C_24
REMARK    4  A    between atoms: C_24  and  N_25
REMARK    5  A    between atoms: N_28  and  C_29
REMARK                            x       y       z     vdW  Elec       q    Type
REMARK                         _______ _______ _______ _____ _____    ______ ____
ROOT
ATOM      1  C   UNL     1       3.201   6.586  18.354  0.00  0.00    +0.000 A 
ATOM      2  N   UNL     1       3.643   5.349  18.226  0.00  0.00    +0.000 NA
ATOM      3  C   UNL     1       3.019   4.622  19.193  0.00  0.00    +0.000 A 
ATOM      4  C   UNL     1       3.177   3.261  19.495  0.00  0.00    +0.000 A 
ATOM      5  C   UNL     1       2.440   2.708  20.546  0.00  0.00    +0.000 A 
ATOM      6  C   UNL     1       1.556   3.499  21.275  0.00  0.00    +0.000 A 
ATOM      7  C   UNL     1       1.383   4.857  20.984  0.00  0.00    +0.000 A 
ATOM      8  C   UNL     1       2.140   5.407  19.935  0.00  0.00    +0.000 A 
ATOM      9  N   UNL     1       2.244   6.682  19.378  0.00  0.00    +0.000 N 
ATOM     10  C   UNL     1       1.540   7.870  19.786  0.00  0.00    +0.000 A 
ATOM     11  N   UNL     1       1.729   8.971  19.035  0.00  0.00    +0.000 NA
ATOM     12  C   UNL     1       1.157  10.148  19.358  0.00  0.00    +0.000 A 
ATOM     13  N   UNL     1       1.389  11.243  18.570  0.00  0.00    +0.000 N 
ATOM     14  C   UNL     1       2.641  11.393  17.831  0.00  0.00    +0.000 C 
ATOM     15  C   UNL     1       3.099  12.857  17.988  0.00  0.00    +0.000 C 
ATOM     16  O   UNL     1       2.081  13.797  17.593  0.00  0.00    +0.000 OA
ATOM     17  C   UNL     1       0.872  13.594  18.349  0.00  0.00    +0.000 C 
ATOM     18  C   UNL     1       0.339  12.169  18.150  0.00  0.00    +0.000 C 
ATOM     19  C   UNL     1       0.439  10.188  20.559  0.00  0.00    +0.000 A 
ATOM     20  S   UNL     1      -0.217  11.537  21.398  0.00  0.00    +0.000 S 
ATOM     21  C   UNL     1      -0.916  10.569  22.612  0.00  0.00    +0.000 A 
ATOM     22  C   UNL     1      -0.563   9.241  22.444  0.00  0.00    +0.000 A 
ATOM     23  C   UNL     1       0.245   9.016  21.278  0.00  0.00    +0.000 A 
ATOM     24  N   UNL     1       0.769   7.825  20.887  0.00  0.00    +0.000 NA
ENDROOT
BRANCH   1  26
ATOM     25  C   UNL     1       4.832   7.367  16.591  0.00  0.00    +0.000 C 
ATOM     26  C   UNL     1       3.706   7.742  17.546  0.00  0.00    +0.000 C 
ENDBRANCH   1  26
BRANCH  21  27
ATOM     27  C   UNL     1      -1.787  11.216  23.658  0.00  0.00    +0.000 C 
BRANCH  27  28
ATOM     28  N   UNL     1      -2.065  12.574  23.212  0.00  0.00    +0.000 N 
ATOM     29  C   UNL     1      -1.145  13.654  23.548  0.00  0.00    +0.000 C 
ATOM     30  C   UNL     1      -1.073  14.712  22.442  0.00  0.00    +0.000 C 
ATOM     31  N   UNL     1      -2.392  15.191  22.009  0.00  0.00    +0.000 NA
ATOM     32  C   UNL     1      -3.037  16.059  22.987  0.00  0.00    +0.000 C 
ATOM     33  C   UNL     1      -3.264  14.058  21.631  0.00  0.00    +0.000 C 
ATOM     34  C   UNL     1      -3.273  12.862  22.595  0.00  0.00    +0.000 C 
ATOM     35  O   UNL     1      -4.246  12.112  22.668  0.00  0.00    +0.000 OA
ENDBRANCH  27  28
ENDBRANCH  21  27
TORSDOF 3
ENDMDL
MODEL 4
REMARK VINA RESULT:      -6.6      9.440     11.725
REMARK  Name = 
REMARK  5 active torsions:
REMARK  status: ('A' for Active; 'I' for Inactive)
REMARK    1  A    between atoms: C_1  and  C_2
REMARK    2  A    between atoms: C_2  and  C_3
REMARK    3  A    between atoms: C_23  and  C_24
REMARK    4  A    between atoms: C_24  and  N_25
REMARK    5  A    between atoms: N_28  and  C_29
REMARK                            x       y       z     vdW  Elec       q    Type
REMARK                         _______ _______ _______ _____ _____    ______ ____
ROOT
ATOM      1  C   UNL     1      -5.569  13.182  22.396  0.00  0.00    +0.000 A 
ATOM      2  N   UNL     1      -6.445  12.274  22.007  0.00  0.00    +0.000 NA
ATOM      3  C   UNL     1      -6.080  11.913  20.746  0.00  0.00    +0.000 A 
ATOM      4  C   UNL     1      -6.714  11.004  19.885  0.00  0.00    +0.000 A 
ATOM      5  C   UNL     1      -6.175  10.784  18.614  0.00  0.00    +0.000 A 
ATOM      6  C   UNL     1      -5.021  11.452  18.216  0.00  0.00    +0.000 A 
ATOM      7  C   UNL     1      -4.373  12.358  19.064  0.00  0.00    +0.000 A 
ATOM      8  C   UNL     1      -4.931  12.585  20.334  0.00  0.00    +0.000 A 
ATOM      9  N   UNL     1      -4.588  13.397  21.415  0.00  0.00    +0.000 N 
ATOM     10  C   UNL     1      -3.470  14.301  21.502  0.00  0.00    +0.000 A 
ATOM     11  N   UNL     1      -3.281  14.913  22.687  0.00  0.00    +0.000 NA
ATOM     12  C   UNL     1      -2.295  15.816  22.860  0.00  0.00    +0.000 A 
ATOM     13  N   UNL     1      -2.150  16.421  24.080  0.00  0.00    +0.000 N 
ATOM     14  C   UNL     1      -3.297  16.642  24.958  0.00  0.00    +0.000 C 
ATOM     15  C   UNL     1      -3.170  18.065  25.537  0.00  0.00    +0.000 C 
ATOM     16  O   UNL     1      -1.901  18.284  26.183  0.00  0.00    +0.000 OA
ATOM     17  C   UNL     1      -0.811  18.044  25.271  0.00  0.00    +0.000 C 
ATOM     18  C   UNL     1      -0.858  16.606  24.737  0.00  0.00    +0.000 C 
ATOM     19  C   UNL     1      -1.546  16.153  21.727  0.00  0.00    +0.000 A 
ATOM     20  S   UNL     1      -0.389  17.406  21.512  0.00  0.00    +0.000 S 
ATOM     21  C   UNL     1      -0.030  16.937  19.915  0.00  0.00    +0.000 A 
ATOM     22  C   UNL     1      -0.860  15.907  19.508  0.00  0.00    +0.000 A 
ATOM     23  C   UNL     1      -1.759  15.467  20.538  0.00  0.00    +0.000 A 
ATOM     24  N   UNL     1      -2.710  14.505  20.412  0.00  0.00    +0.000 NA
ENDROOT
BRANCH   1  26
ATOM     25  C   UNL     1      -6.841  14.874  23.773  0.00  0.00    +0.000 C 
ATOM     26  C   UNL     1      -5.655  13.922  23.696  0.00  0.00    +0.000 C 
ENDBRANCH   1  26
BRANCH  21  27
ATOM     27  C   UNL     1       1.078  17.641  19.174  0.00  0.00    +0.000 C 
BRANCH  27  28
ATOM     28  N   UNL     1       2.182  16.700  19.047  0.00  0.00    +0.000 N 
ATOM     29  C   UNL     1       2.672  15.989  20.221  0.00  0.00    +0.000 C 
ATOM     30  C   UNL     1       3.160  14.579  19.876  0.00  0.00    +0.000 C 
ATOM     31  N   UNL     1       4.100  14.547  18.748  0.00  0.00    +0.000 NA
ATOM     32  C   UNL     1       5.419  15.070  19.087  0.00  0.00    +0.000 C 
ATOM     33  C   UNL     1       3.529  15.237  17.570  0.00  0.00    +0.000 C 
ATOM     34  C   UNL     1       2.857  16.591  17.841  0.00  0.00    +0.000 C 
ATOM     35  O   UNL     1       2.779  17.449  16.961  0.00  0.00    +0.000 OA
ENDBRANCH  27  28
ENDBRANCH  21  27
TORSDOF 3
ENDMDL
MODEL 5
REMARK VINA RESULT:      -6.5      8.732     11.229
REMARK  Name = 
REMARK  5 active torsions:
REMARK  status: ('A' for Active; 'I' for Inactive)
REMARK    1  A    between atoms: C_1  and  C_2
REMARK    2  A    between atoms: C_2  and  C_3
REMARK    3  A    between atoms: C_23  and  C_24
REMARK    4  A    between atoms: C_24  and  N_25
REMARK    5  A    between atoms: N_28  and  C_29
REMARK                            x       y       z     vdW  Elec       q    Type
REMARK                         _______ _______ _______ _____ _____    ______ ____
ROOT
ATOM      1  C   UNL     1      -5.028  12.205  19.527  0.00  0.00    +0.000 A 
ATOM      2  N   UNL     1      -5.399  11.383  18.563  0.00  0.00    +0.000 NA
ATOM      3  C   UNL     1      -4.252  10.978  17.950  0.00  0.00    +0.000 A 
ATOM      4  C   UNL     1      -4.113  10.128  16.842  0.00  0.00    +0.000 A 
ATOM      5  C   UNL     1      -2.832   9.847  16.359  0.00  0.00    +0.000 A 
ATOM      6  C   UNL     1      -1.713  10.398  16.976  0.00  0.00    +0.000 A 
ATOM      7  C   UNL     1      -1.833  11.244  18.085  0.00  0.00    +0.000 A 
ATOM      8  C   UNL     1      -3.126  11.533  18.554  0.00  0.00    +0.000 A 
ATOM      9  N   UNL     1      -3.630  12.317  19.592  0.00  0.00    +0.000 N 
ATOM     10  C   UNL     1      -2.875  13.111  20.527  0.00  0.00    +0.000 A 
ATOM     11  N   UNL     1      -3.573  13.711  21.510  0.00  0.00    +0.000 NA
ATOM     12  C   UNL     1      -2.971  14.516  22.408  0.00  0.00    +0.000 A 
ATOM     13  N   UNL     1      -3.725  15.114  23.382  0.00  0.00    +0.000 N 
ATOM     14  C   UNL     1      -5.128  15.451  23.154  0.00  0.00    +0.000 C 
ATOM     15  C   UNL     1      -5.367  16.860  23.733  0.00  0.00    +0.000 C 
ATOM     16  O   UNL     1      -4.967  16.961  25.114  0.00  0.00    +0.000 OA
ATOM     17  C   UNL     1      -3.579  16.610  25.275  0.00  0.00    +0.000 C 
ATOM     18  C   UNL     1      -3.321  15.179  24.785  0.00  0.00    +0.000 C 
ATOM     19  C   UNL     1      -1.609  14.771  22.208  0.00  0.00    +0.000 A 
ATOM     20  S   UNL     1      -0.580  15.905  22.989  0.00  0.00    +0.000 S 
ATOM     21  C   UNL     1       0.801  15.392  22.136  0.00  0.00    +0.000 A 
ATOM     22  C   UNL     1       0.466  14.442  21.186  0.00  0.00    +0.000 A 
ATOM     23  C   UNL     1      -0.929  14.099  21.200  0.00  0.00    +0.000 A 
ATOM     24  N   UNL     1      -1.547  13.232  20.356  0.00  0.00    +0.000 NA
ENDROOT
BRANCH   1  26
ATOM     25  C   UNL     1      -7.230  12.162  20.764  0.00  0.00    +0.000 C 
ATOM     26  C   UNL     1      -5.988  12.961  20.395  0.00  0.00    +0.000 C 
ENDBRANCH   1  26
BRANCH  21  27
ATOM     27  C   UNL     1       2.143  15.980  22.489  0.00  0.00    +0.000 C 
BRANCH  27  28
ATOM     28  N   UNL     1       2.922  16.053  21.261  0.00  0.00    +0.000 N 
ATOM     29  C   UNL     1       3.924  15.034  20.971  0.00  0.00    +0.000 C 
ATOM     30  C   UNL     1       4.035  14.749  19.471  0.00  0.00    +0.000 C 
ATOM     31  N   UNL     1       4.193  15.961  18.657  0.00  0.00    +0.000 NA
ATOM     32  C   UNL     1       5.514  16.566  18.780  0.00  0.00    +0.000 C 
ATOM     33  C   UNL     1       3.121  16.936  18.954  0.00  0.00    +0.000 C 
ATOM     34  C   UNL     1       2.810  17.165  20.441  0.00  0.00    +0.000 C 
ATOM     35  O   UNL     1       2.324  18.227  20.832  0.00  0.00    +0.000 OA
ENDBRANCH  27  28
ENDBRANCH  21  27
TORSDOF 3
ENDMDL
MODEL 6
REMARK VINA RESULT:      -6.5      9.167     10.041
REMARK  Name = 
REMARK  5 active torsions:
REMARK  status: ('A' for Active; 'I' for Inactive)
REMARK    1  A    between atoms: C_1  and  C_2
REMARK    2  A    between atoms: C_2  and  C_3
REMARK    3  A    between atoms: C_23  and  C_24
REMARK    4  A    between atoms: C_24  and  N_25
REMARK    5  A    between atoms: N_28  and  C_29
REMARK                            x       y       z     vdW  Elec       q    Type
REMARK                         _______ _______ _______ _____ _____    ______ ____
ROOT
ATOM      1  C   UNL     1       1.299  16.951  20.701  0.00  0.00    +0.000 A 
ATOM      2  N   UNL     1       0.151  17.404  20.230  0.00  0.00    +0.000 NA
ATOM      3  C   UNL     1       0.379  17.727  18.927  0.00  0.00    +0.000 A 
ATOM      4  C   UNL     1      -0.516  18.284  18.001  0.00  0.00    +0.000 A 
ATOM      5  C   UNL     1      -0.072  18.550  16.703  0.00  0.00    +0.000 A 
ATOM      6  C   UNL     1       1.238  18.258  16.335  0.00  0.00    +0.000 A 
ATOM      7  C   UNL     1       2.143  17.698  17.245  0.00  0.00    +0.000 A 
ATOM      8  C   UNL     1       1.692  17.448  18.553  0.00  0.00    +0.000 A 
ATOM      9  N   UNL     1       2.285  16.925  19.702  0.00  0.00    +0.000 N 
ATOM     10  C   UNL     1       3.646  16.478  19.850  0.00  0.00    +0.000 A 
ATOM     11  N   UNL     1       3.971  15.919  21.032  0.00  0.00    +0.000 NA
ATOM     12  C   UNL     1       5.230  15.512  21.293  0.00  0.00    +0.000 A 
ATOM     13  N   UNL     1       5.514  14.960  22.513  0.00  0.00    +0.000 N 
ATOM     14  C   UNL     1       4.771  15.345  23.711  0.00  0.00    +0.000 C 
ATOM     15  C   UNL     1       5.792  15.523  24.853  0.00  0.00    +0.000 C 
ATOM     16  O   UNL     1       6.618  14.356  25.037  0.00  0.00    +0.000 OA
ATOM     17  C   UNL     1       7.317  14.022  23.822  0.00  0.00    +0.000 C 
ATOM     18  C   UNL     1       6.326  13.757  22.682  0.00  0.00    +0.000 C 
ATOM     19  C   UNL     1       6.194  15.788  20.316  0.00  0.00    +0.000 A 
ATOM     20  S   UNL     1       7.904  15.635  20.392  0.00  0.00    +0.000 S 
ATOM     21  C   UNL     1       8.119  16.111  18.771  0.00  0.00    +0.000 A 
ATOM     22  C   UNL     1       6.912  16.490  18.208  0.00  0.00    +0.000 A 
ATOM     23  C   UNL     1       5.799  16.335  19.102  0.00  0.00    +0.000 A 
ATOM     24  N   UNL     1       4.509  16.664  18.836  0.00  0.00    +0.000 NA
ENDROOT
BRANCH   1  26
ATOM     25  C   UNL     1       0.233  16.412  22.926  0.00  0.00    +0.000 C 
ATOM     26  C   UNL     1       1.522  16.572  22.133  0.00  0.00    +0.000 C 
ENDBRANCH   1  26
BRANCH  21  27
ATOM     27  C   UNL     1       9.499  16.065  18.168  0.00  0.00    +0.000 C 
BRANCH  27  28
ATOM     28  N   UNL     1      10.012  14.715  18.358  0.00  0.00    +0.000 N 
ATOM     29  C   UNL     1       9.202  13.566  17.971  0.00  0.00    +0.000 C 
ATOM     30  C   UNL     1      10.060  12.406  17.459  0.00  0.00    +0.000 C 
ATOM     31  N   UNL     1      11.165  12.056  18.361  0.00  0.00    +0.000 NA
ATOM     32  C   UNL     1      10.722  11.375  19.572  0.00  0.00    +0.000 C 
ATOM     33  C   UNL     1      11.983  13.247  18.677  0.00  0.00    +0.000 C 
ATOM     34  C   UNL     1      11.205  14.522  19.037  0.00  0.00    +0.000 C 
ATOM     35  O   UNL     1      11.707  15.392  19.749  0.00  0.00    +0.000 OA
ENDBRANCH  27  28
ENDBRANCH  21  27
TORSDOF 3
ENDMDL
MODEL 7
REMARK VINA RESULT:      -6.5      9.487     11.626
REMARK  Name = 
REMARK  5 active torsions:
REMARK  status: ('A' for Active; 'I' for Inactive)
REMARK    1  A    between atoms: C_1  and  C_2
REMARK    2  A    between atoms: C_2  and  C_3
REMARK    3  A    between atoms: C_23  and  C_24
REMARK    4  A    between atoms: C_24  and  N_25
REMARK    5  A    between atoms: N_28  and  C_29
REMARK                            x       y       z     vdW  Elec       q    Type
REMARK                         _______ _______ _______ _____ _____    ______ ____
ROOT
ATOM      1  C   UNL     1      -5.908  13.012  22.385  0.00  0.00    +0.000 A 
ATOM      2  N   UNL     1      -6.897  12.232  21.989  0.00  0.00    +0.000 NA
ATOM      3  C   UNL     1      -6.546  11.775  20.754  0.00  0.00    +0.000 A 
ATOM      4  C   UNL     1      -7.279  10.942  19.896  0.00  0.00    +0.000 A 
ATOM      5  C   UNL     1      -6.735  10.598  18.656  0.00  0.00    +0.000 A 
ATOM      6  C   UNL     1      -5.481  11.072  18.284  0.00  0.00    +0.000 A 
ATOM      7  C   UNL     1      -4.734  11.901  19.130  0.00  0.00    +0.000 A 
ATOM      8  C   UNL     1      -5.296  12.253  20.369  0.00  0.00    +0.000 A 
ATOM      9  N   UNL     1      -4.872  13.043  21.438  0.00  0.00    +0.000 N 
ATOM     10  C   UNL     1      -3.635  13.774  21.542  0.00  0.00    +0.000 A 
ATOM     11  N   UNL     1      -3.398  14.393  22.714  0.00  0.00    +0.000 NA
ATOM     12  C   UNL     1      -2.294  15.145  22.900  0.00  0.00    +0.000 A 
ATOM     13  N   UNL     1      -2.103  15.764  24.106  0.00  0.00    +0.000 N 
ATOM     14  C   UNL     1      -3.234  16.185  24.930  0.00  0.00    +0.000 C 
ATOM     15  C   UNL     1      -2.914  17.593  25.471  0.00  0.00    +0.000 C 
ATOM     16  O   UNL     1      -1.650  17.643  26.159  0.00  0.00    +0.000 OA
ATOM     17  C   UNL     1      -0.577  17.211  25.299  0.00  0.00    +0.000 C 
ATOM     18  C   UNL     1      -0.821  15.778  24.808  0.00  0.00    +0.000 C 
ATOM     19  C   UNL     1      -1.464  15.325  21.787  0.00  0.00    +0.000 A 
ATOM     20  S   UNL     1      -0.125  16.383  21.581  0.00  0.00    +0.000 S 
ATOM     21  C   UNL     1       0.215  15.809  20.015  0.00  0.00    +0.000 A 
ATOM     22  C   UNL     1      -0.745  14.900  19.606  0.00  0.00    +0.000 A 
ATOM     23  C   UNL     1      -1.736  14.637  20.613  0.00  0.00    +0.000 A 
ATOM     24  N   UNL     1      -2.815  13.823  20.477  0.00  0.00    +0.000 NA
ENDROOT
BRANCH   1  26
ATOM     25  C   UNL     1      -6.938  14.943  23.647  0.00  0.00    +0.000 C 
ATOM     26  C   UNL     1      -5.928  13.804  23.657  0.00  0.00    +0.000 C 
ENDBRANCH   1  26
BRANCH  21  27
ATOM     27  C   UNL     1       1.441  16.313  19.298  0.00  0.00    +0.000 C 
BRANCH  27  28
ATOM     28  N   UNL     1       2.600  15.917  20.085  0.00  0.00    +0.000 N 
ATOM     29  C   UNL     1       3.406  16.930  20.756  0.00  0.00    +0.000 C 
ATOM     30  C   UNL     1       3.978  16.422  22.083  0.00  0.00    +0.000 C 
ATOM     31  N   UNL     1       4.659  15.127  21.967  0.00  0.00    +0.000 NA
ATOM     32  C   UNL     1       5.946  15.214  21.288  0.00  0.00    +0.000 C 
ATOM     33  C   UNL     1       3.776  14.125  21.329  0.00  0.00    +0.000 C 
ATOM     34  C   UNL     1       3.016  14.595  20.079  0.00  0.00    +0.000 C 
ATOM     35  O   UNL     1       2.653  13.793  19.218  0.00  0.00    +0.000 OA
ENDBRANCH  27  28
ENDBRANCH  21  27
TORSDOF 3
ENDMDL
MODEL 8
REMARK VINA RESULT:      -6.4      5.220      8.655
REMARK  Name = 
REMARK  5 active torsions:
REMARK  status: ('A' for Active; 'I' for Inactive)
REMARK    1  A    between atoms: C_1  and  C_2
REMARK    2  A    between atoms: C_2  and  C_3
REMARK    3  A    between atoms: C_23  and  C_24
REMARK    4  A    between atoms: C_24  and  N_25
REMARK    5  A    between atoms: N_28  and  C_29
REMARK                            x       y       z     vdW  Elec       q    Type
REMARK                         _______ _______ _______ _____ _____    ______ ____
ROOT
ATOM      1  C   UNL     1      -1.962  11.916  23.025  0.00  0.00    +0.000 A 
ATOM      2  N   UNL     1      -2.780  12.321  23.978  0.00  0.00    +0.000 NA
ATOM      3  C   UNL     1      -2.775  13.682  23.926  0.00  0.00    +0.000 A 
ATOM      4  C   UNL     1      -3.456  14.586  24.756  0.00  0.00    +0.000 A 
ATOM      5  C   UNL     1      -3.304  15.957  24.535  0.00  0.00    +0.000 A 
ATOM      6  C   UNL     1      -2.494  16.417  23.500  0.00  0.00    +0.000 A 
ATOM      7  C   UNL     1      -1.811  15.529  22.660  0.00  0.00    +0.000 A 
ATOM      8  C   UNL     1      -1.958  14.152  22.899  0.00  0.00    +0.000 A 
ATOM      9  N   UNL     1      -1.443  13.002  22.301  0.00  0.00    +0.000 N 
ATOM     10  C   UNL     1      -0.535  12.934  21.185  0.00  0.00    +0.000 A 
ATOM     11  N   UNL     1      -0.249  11.706  20.714  0.00  0.00    +0.000 NA
ATOM     12  C   UNL     1       0.628  11.528  19.705  0.00  0.00    +0.000 A 
ATOM     13  N   UNL     1       0.896  10.258  19.269  0.00  0.00    +0.000 N 
ATOM     14  C   UNL     1       0.816   9.113  20.173  0.00  0.00    +0.000 C 
ATOM     15  C   UNL     1       2.040   8.217  19.897  0.00  0.00    +0.000 C 
ATOM     16  O   UNL     1       2.148   7.848  18.509  0.00  0.00    +0.000 OA
ATOM     17  C   UNL     1       2.216   9.017  17.668  0.00  0.00    +0.000 C 
ATOM     18  C   UNL     1       0.970   9.892  17.856  0.00  0.00    +0.000 C 
ATOM     19  C   UNL     1       1.291  12.670  19.242  0.00  0.00    +0.000 A 
ATOM     20  S   UNL     1       2.617  12.800  18.155  0.00  0.00    +0.000 S 
ATOM     21  C   UNL     1       2.606  14.502  18.189  0.00  0.00    +0.000 A 
ATOM     22  C   UNL     1       1.677  14.969  19.103  0.00  0.00    +0.000 A 
ATOM     23  C   UNL     1       0.933  13.917  19.738  0.00  0.00    +0.000 A 
ATOM     24  N   UNL     1      -0.011  14.074  20.701  0.00  0.00    +0.000 NA
ENDROOT
BRANCH   1  26
ATOM     25  C   UNL     1      -0.351  10.043  23.552  0.00  0.00    +0.000 C 
ATOM     26  C   UNL     1      -1.596  10.481  22.793  0.00  0.00    +0.000 C 
ENDBRANCH   1  26
BRANCH  21  27
ATOM     27  C   UNL     1       3.538  15.262  17.281  0.00  0.00    +0.000 C 
BRANCH  27  28
ATOM     28  N   UNL     1       4.785  15.463  18.006  0.00  0.00    +0.000 N 
ATOM     29  C   UNL     1       5.771  14.390  18.072  0.00  0.00    +0.000 C 
ATOM     30  C   UNL     1       7.204  14.929  18.091  0.00  0.00    +0.000 C 
ATOM     31  N   UNL     1       7.420  15.974  19.099  0.00  0.00    +0.000 NA
ATOM     32  C   UNL     1       7.450  15.458  20.463  0.00  0.00    +0.000 C 
ATOM     33  C   UNL     1       6.426  17.060  18.952  0.00  0.00    +0.000 C 
ATOM     34  C   UNL     1       4.969  16.617  18.751  0.00  0.00    +0.000 C 
ATOM     35  O   UNL     1       4.032  17.345  19.081  0.00  0.00    +0.000 OA
ENDBRANCH  27  28
ENDBRANCH  21  27
TORSDOF 3
ENDMDL
MODEL 9
REMARK VINA RESULT:      -6.4      8.902     11.959
REMARK  Name = 
REMARK  5 active torsions:
REMARK  status: ('A' for Active; 'I' for Inactive)
REMARK    1  A    between atoms: C_1  and  C_2
REMARK    2  A    between atoms: C_2  and  C_3
REMARK    3  A    between atoms: C_23  and  C_24
REMARK    4  A    between atoms: C_24  and  N_25
REMARK    5  A    between atoms: N_28  and  C_29
REMARK                            x       y       z     vdW  Elec       q    Type
REMARK                         _______ _______ _______ _____ _____    ______ ____
ROOT
ATOM      1  C   UNL     1      10.300  13.357  20.189  0.00  0.00    +0.000 A 
ATOM      2  N   UNL     1      11.218  13.340  19.240  0.00  0.00    +0.000 NA
ATOM      3  C   UNL     1      10.948  14.404  18.434  0.00  0.00    +0.000 A 
ATOM      4  C   UNL     1      11.614  14.799  17.265  0.00  0.00    +0.000 A 
ATOM      5  C   UNL     1      11.164  15.928  16.575  0.00  0.00    +0.000 A 
ATOM      6  C   UNL     1      10.074  16.652  17.050  0.00  0.00    +0.000 A 
ATOM      7  C   UNL     1       9.400  16.275  18.218  0.00  0.00    +0.000 A 
ATOM      8  C   UNL     1       9.851  15.129  18.896  0.00  0.00    +0.000 A 
ATOM      9  N   UNL     1       9.441  14.458  20.048  0.00  0.00    +0.000 N 
ATOM     10  C   UNL     1       8.338  14.802  20.908  0.00  0.00    +0.000 A 
ATOM     11  N   UNL     1       8.189  14.062  22.023  0.00  0.00    +0.000 NA
ATOM     12  C   UNL     1       7.161  14.268  22.870  0.00  0.00    +0.000 A 
ATOM     13  N   UNL     1       7.045  13.481  23.985  0.00  0.00    +0.000 N 
ATOM     14  C   UNL     1       7.535  12.105  23.995  0.00  0.00    +0.000 C 
ATOM     15  C   UNL     1       6.469  11.238  24.696  0.00  0.00    +0.000 C 
ATOM     16  O   UNL     1       6.128  11.738  26.004  0.00  0.00    +0.000 OA
ATOM     17  C   UNL     1       5.660  13.099  25.929  0.00  0.00    +0.000 C 
ATOM     18  C   UNL     1       6.730  14.008  25.312  0.00  0.00    +0.000 C 
ATOM     19  C   UNL     1       6.210  15.220  22.483  0.00  0.00    +0.000 A 
ATOM     20  S   UNL     1       4.677  15.579  23.173  0.00  0.00    +0.000 S 
ATOM     21  C   UNL     1       4.377  16.856  22.088  0.00  0.00    +0.000 A 
ATOM     22  C   UNL     1       5.381  16.940  21.139  0.00  0.00    +0.000 A 
ATOM     23  C   UNL     1       6.429  15.979  21.341  0.00  0.00    +0.000 A 
ATOM     24  N   UNL     1       7.516  15.803  20.546  0.00  0.00    +0.000 NA
ENDROOT
BRANCH   1  26
ATOM     25  C   UNL     1       9.393  11.073  20.773  0.00  0.00    +0.000 C 
ATOM     26  C   UNL     1      10.167  12.297  21.240  0.00  0.00    +0.000 C 
ENDBRANCH   1  26
BRANCH  21  27
ATOM     27  C   UNL     1       3.141  17.700  22.270  0.00  0.00    +0.000 C 
BRANCH  27  28
ATOM     28  N   UNL     1       2.161  17.254  21.291  0.00  0.00    +0.000 N 
ATOM     29  C   UNL     1       1.978  17.998  20.050  0.00  0.00    +0.000 C 
ATOM     30  C   UNL     1       1.621  17.081  18.878  0.00  0.00    +0.000 C 
ATOM     31  N   UNL     1       0.510  16.167  19.171  0.00  0.00    +0.000 NA
ATOM     32  C   UNL     1      -0.785  16.836  19.221  0.00  0.00    +0.000 C 
ATOM     33  C   UNL     1       0.773  15.401  20.409  0.00  0.00    +0.000 C 
ATOM     34  C   UNL     1       1.305  16.209  21.602  0.00  0.00    +0.000 C 
ATOM     35  O   UNL     1       1.118  15.832  22.759  0.00  0.00    +0.000 OA
ENDBRANCH  27  28
ENDBRANCH  21  27
TORSDOF 3
ENDMDL
