MODEL 1
REMARK VINA RESULT:      -8.5      0.000      0.000
REMARK  Name = 
REMARK  6 active torsions:
REMARK  status: ('A' for Active; 'I' for Inactive)
REMARK    1  A    between atoms: C_2  and  C_3
REMARK    2  A    between atoms: C_3  and  S_4
REMARK    3  A    between atoms: S_4  and  C_5
REMARK    4  A    between atoms: C_8  and  C_9
REMARK    5  A    between atoms: N_15  and  C_16
REMARK    6  A    between atoms: N_22  and  C_23
REMARK                            x       y       z     vdW  Elec       q    Type
REMARK                         _______ _______ _______ _____ _____    ______ ____
ROOT
ATOM      1  C   UNL     1       5.727   5.643  18.136  0.00  0.00    +0.000 A 
ATOM      2  N   UNL     1       6.367   4.547  18.478  0.00  0.00    +0.000 NA
ATOM      3  N   UNL     1       5.506   3.750  19.185  0.00  0.00    +0.000 NA
ATOM      4  C   UNL     1       4.324   4.343  19.238  0.00  0.00    +0.000 A 
ATOM      5  N   UNL     1       4.442   5.626  18.678  0.00  0.00    +0.000 N 
ENDROOT
BRANCH   4   6
ATOM      6  C   UNL     1       3.095   3.682  19.722  0.00  0.00    +0.000 A 
ATOM      7  C   UNL     1       2.117   3.264  18.816  0.00  0.00    +0.000 A 
ATOM      8  C   UNL     1       0.991   2.613  19.301  0.00  0.00    +0.000 A 
ATOM      9  N   UNL     1       0.780   2.346  20.608  0.00  0.00    +0.000 NA
ATOM     10  C   UNL     1       1.712   2.787  21.473  0.00  0.00    +0.000 A 
ATOM     11  C   UNL     1       2.850   3.476  21.086  0.00  0.00    +0.000 A 
ENDBRANCH   4   6
BRANCH   5  12
ATOM     12  C   UNL     1       3.431   6.633  18.650  0.00  0.00    +0.000 A 
ATOM     13  C   UNL     1       3.282   7.442  17.511  0.00  0.00    +0.000 A 
ATOM     14  C   UNL     1       2.438   8.554  17.542  0.00  0.00    +0.000 A 
ATOM     15  C   UNL     1       1.700   8.835  18.687  0.00  0.00    +0.000 A 
ATOM     16  C   UNL     1       1.792   7.999  19.798  0.00  0.00    +0.000 A 
ATOM     17  C   UNL     1       2.659   6.904  19.786  0.00  0.00    +0.000 A 
ENDBRANCH   5  12
BRANCH   1  18
ATOM     18  S   UNL     1       6.454   6.967  17.271  0.00  0.00    +0.000 S 
BRANCH  18  19
ATOM     19  C   UNL     1       7.914   7.314  18.295  0.00  0.00    +0.000 C 
BRANCH  19  21
ATOM     20  O   UNL     1       7.742   9.572  17.538  0.00  0.00    +0.000 OA
ATOM     21  C   UNL     1       8.304   8.791  18.309  0.00  0.00    +0.000 C 
ATOM     22  N   UNL     1       9.232   9.164  19.269  0.00  0.00    +0.000 N 
ATOM     23  H   UNL     1       9.746   8.406  19.702  0.00  0.00    +0.000 HD
BRANCH  22  24
ATOM     24  C   UNL     1       9.636  10.482  19.595  0.00  0.00    +0.000 A 
ATOM     25  C   UNL     1      10.429  11.276  18.760  0.00  0.00    +0.000 A 
ATOM     26  C   UNL     1      10.776  12.583  19.126  0.00  0.00    +0.000 A 
ATOM     27  C   UNL     1      10.341  13.113  20.339  0.00  0.00    +0.000 A 
ATOM     28 CL   UNL     1      10.805  14.732  20.727  0.00  0.00    +0.000 Cl
ATOM     29  C   UNL     1       9.550  12.330  21.183  0.00  0.00    +0.000 A 
ATOM     30 CL   UNL     1       8.986  12.908  22.713  0.00  0.00    +0.000 Cl
ATOM     31  C   UNL     1       9.192  11.026  20.807  0.00  0.00    +0.000 A 
ENDBRANCH  22  24
ENDBRANCH  19  21
ENDBRANCH  18  19
ENDBRANCH   1  18
TORSDOF 6
ENDMDL
MODEL 2
REMARK VINA RESULT:      -8.3      0.740      1.649
REMARK  Name = 
REMARK  6 active torsions:
REMARK  status: ('A' for Active; 'I' for Inactive)
REMARK    1  A    between atoms: C_2  and  C_3
REMARK    2  A    between atoms: C_3  and  S_4
REMARK    3  A    between atoms: S_4  and  C_5
REMARK    4  A    between atoms: C_8  and  C_9
REMARK    5  A    between atoms: N_15  and  C_16
REMARK    6  A    between atoms: N_22  and  C_23
REMARK                            x       y       z     vdW  Elec       q    Type
REMARK                         _______ _______ _______ _____ _____    ______ ____
ROOT
ATOM      1  C   UNL     1       5.722   5.569  18.038  0.00  0.00    +0.000 A 
ATOM      2  N   UNL     1       6.281   4.416  18.328  0.00  0.00    +0.000 NA
ATOM      3  N   UNL     1       5.397   3.688  19.079  0.00  0.00    +0.000 NA
ATOM      4  C   UNL     1       4.278   4.382  19.212  0.00  0.00    +0.000 A 
ATOM      5  N   UNL     1       4.476   5.658  18.658  0.00  0.00    +0.000 N 
ENDROOT
BRANCH   4   6
ATOM      6  C   UNL     1       3.027   3.825  19.764  0.00  0.00    +0.000 A 
ATOM      7  C   UNL     1       1.981   3.460  18.912  0.00  0.00    +0.000 A 
ATOM      8  C   UNL     1       0.833   2.906  19.460  0.00  0.00    +0.000 A 
ATOM      9  N   UNL     1       0.662   2.685  20.781  0.00  0.00    +0.000 NA
ATOM     10  C   UNL     1       1.661   3.074  21.594  0.00  0.00    +0.000 A 
ATOM     11  C   UNL     1       2.828   3.667  21.142  0.00  0.00    +0.000 A 
ENDBRANCH   4   6
BRANCH   5  12
ATOM     12  C   UNL     1       3.559   6.751  18.703  0.00  0.00    +0.000 A 
ATOM     13  C   UNL     1       2.808   6.983  19.867  0.00  0.00    +0.000 A 
ATOM     14  C   UNL     1       1.770   7.917  19.860  0.00  0.00    +0.000 A 
ATOM     15  C   UNL     1       1.510   8.661  18.714  0.00  0.00    +0.000 A 
ATOM     16  C   UNL     1       2.295   8.483  17.576  0.00  0.00    +0.000 A 
ATOM     17  C   UNL     1       3.313   7.527  17.564  0.00  0.00    +0.000 A 
ENDBRANCH   5  12
BRANCH   1  18
ATOM     18  S   UNL     1       6.511   6.837  17.143  0.00  0.00    +0.000 S 
BRANCH  18  19
ATOM     19  C   UNL     1       7.880   7.271  18.255  0.00  0.00    +0.000 C 
BRANCH  19  21
ATOM     20  O   UNL     1       7.681   9.493  17.401  0.00  0.00    +0.000 OA
ATOM     21  C   UNL     1       8.244   8.755  18.212  0.00  0.00    +0.000 C 
ATOM     22  N   UNL     1       9.150   9.185  19.170  0.00  0.00    +0.000 N 
ATOM     23  H   UNL     1       9.670   8.454  19.642  0.00  0.00    +0.000 HD
BRANCH  22  24
ATOM     24  C   UNL     1       9.525  10.522  19.447  0.00  0.00    +0.000 A 
ATOM     25  C   UNL     1       9.537  11.070  20.733  0.00  0.00    +0.000 A 
ATOM     26  C   UNL     1       9.942  12.394  20.948  0.00  0.00    +0.000 A 
ATOM     27  C   UNL     1      10.335  13.193  19.876  0.00  0.00    +0.000 A 
ATOM     28 CL   UNL     1      10.824  14.815  20.212  0.00  0.00    +0.000 Cl
ATOM     29  C   UNL     1      10.326  12.657  18.585  0.00  0.00    +0.000 A 
ATOM     30 CL   UNL     1      10.781  13.589  17.200  0.00  0.00    +0.000 Cl
ATOM     31  C   UNL     1       9.934  11.327  18.375  0.00  0.00    +0.000 A 
ENDBRANCH  22  24
ENDBRANCH  19  21
ENDBRANCH  18  19
ENDBRANCH   1  18
TORSDOF 6
ENDMDL
MODEL 3
REMARK VINA RESULT:      -8.3      0.776      1.657
REMARK  Name = 
REMARK  6 active torsions:
REMARK  status: ('A' for Active; 'I' for Inactive)
REMARK    1  A    between atoms: C_2  and  C_3
REMARK    2  A    between atoms: C_3  and  S_4
REMARK    3  A    between atoms: S_4  and  C_5
REMARK    4  A    between atoms: C_8  and  C_9
REMARK    5  A    between atoms: N_15  and  C_16
REMARK    6  A    between atoms: N_22  and  C_23
REMARK                            x       y       z     vdW  Elec       q    Type
REMARK                         _______ _______ _______ _____ _____    ______ ____
ROOT
ATOM      1  C   UNL     1       5.529   5.653  18.063  0.00  0.00    +0.000 A 
ATOM      2  N   UNL     1       6.166   4.531  18.313  0.00  0.00    +0.000 NA
ATOM      3  N   UNL     1       5.318   3.698  18.993  0.00  0.00    +0.000 NA
ATOM      4  C   UNL     1       4.145   4.298  19.122  0.00  0.00    +0.000 A 
ATOM      5  N   UNL     1       4.261   5.614  18.642  0.00  0.00    +0.000 N 
ENDROOT
BRANCH   4   6
ATOM      6  C   UNL     1       2.924   3.619  19.600  0.00  0.00    +0.000 A 
ATOM      7  C   UNL     1       2.719   3.419  20.968  0.00  0.00    +0.000 A 
ATOM      8  C   UNL     1       1.544   2.811  21.386  0.00  0.00    +0.000 A 
ATOM      9  N   UNL     1       0.568   2.403  20.548  0.00  0.00    +0.000 NA
ATOM     10  C   UNL     1       0.794   2.568  19.231  0.00  0.00    +0.000 A 
ATOM     11  C   UNL     1       1.950   3.132  18.718  0.00  0.00    +0.000 A 
ENDBRANCH   4   6
BRANCH   5  12
ATOM     12  C   UNL     1       3.262   6.630  18.712  0.00  0.00    +0.000 A 
ATOM     13  C   UNL     1       3.000   7.429  17.587  0.00  0.00    +0.000 A 
ATOM     14  C   UNL     1       2.174   8.550  17.696  0.00  0.00    +0.000 A 
ATOM     15  C   UNL     1       1.564   8.850  18.910  0.00  0.00    +0.000 A 
ATOM     16  C   UNL     1       1.767   8.023  20.013  0.00  0.00    +0.000 A 
ATOM     17  C   UNL     1       2.618   6.919  19.921  0.00  0.00    +0.000 A 
ENDBRANCH   5  12
BRANCH   1  18
ATOM     18  S   UNL     1       6.246   7.024  17.264  0.00  0.00    +0.000 S 
BRANCH  18  19
ATOM     19  C   UNL     1       7.767   7.255  18.228  0.00  0.00    +0.000 C 
BRANCH  19  21
ATOM     20  O   UNL     1       8.109   9.347  17.130  0.00  0.00    +0.000 OA
ATOM     21  C   UNL     1       8.330   8.673  18.137  0.00  0.00    +0.000 C 
ATOM     22  N   UNL     1       9.001   9.132  19.260  0.00  0.00    +0.000 N 
ATOM     23  H   UNL     1       9.273   8.423  19.931  0.00  0.00    +0.000 HD
BRANCH  22  24
ATOM     24  C   UNL     1       9.471  10.448  19.491  0.00  0.00    +0.000 A 
ATOM     25  C   UNL     1       9.470  11.058  20.750  0.00  0.00    +0.000 A 
ATOM     26  C   UNL     1       9.971  12.355  20.922  0.00  0.00    +0.000 A 
ATOM     27  C   UNL     1      10.473  13.065  19.833  0.00  0.00    +0.000 A 
ATOM     28 CL   UNL     1      11.076  14.660  20.116  0.00  0.00    +0.000 Cl
ATOM     29  C   UNL     1      10.478  12.468  18.570  0.00  0.00    +0.000 A 
ATOM     30 CL   UNL     1      11.066  13.290  17.166  0.00  0.00    +0.000 Cl
ATOM     31  C   UNL     1       9.989  11.163  18.404  0.00  0.00    +0.000 A 
ENDBRANCH  22  24
ENDBRANCH  19  21
ENDBRANCH  18  19
ENDBRANCH   1  18
TORSDOF 6
ENDMDL
MODEL 4
REMARK VINA RESULT:      -7.9      2.301      4.313
REMARK  Name = 
REMARK  6 active torsions:
REMARK  status: ('A' for Active; 'I' for Inactive)
REMARK    1  A    between atoms: C_2  and  C_3
REMARK    2  A    between atoms: C_3  and  S_4
REMARK    3  A    between atoms: S_4  and  C_5
REMARK    4  A    between atoms: C_8  and  C_9
REMARK    5  A    between atoms: N_15  and  C_16
REMARK    6  A    between atoms: N_22  and  C_23
REMARK                            x       y       z     vdW  Elec       q    Type
REMARK                         _______ _______ _______ _____ _____    ______ ____
ROOT
ATOM      1  C   UNL     1       4.377   6.141  17.578  0.00  0.00    +0.000 A 
ATOM      2  N   UNL     1       4.649   7.230  16.894  0.00  0.00    +0.000 NA
ATOM      3  N   UNL     1       3.675   8.156  17.158  0.00  0.00    +0.000 NA
ATOM      4  C   UNL     1       2.829   7.646  18.039  0.00  0.00    +0.000 A 
ATOM      5  N   UNL     1       3.169   6.300  18.256  0.00  0.00    +0.000 N 
ENDROOT
BRANCH   4   6
ATOM      6  C   UNL     1       1.784   8.433  18.725  0.00  0.00    +0.000 A 
ATOM      7  C   UNL     1       0.975   9.311  18.000  0.00  0.00    +0.000 A 
ATOM      8  C   UNL     1      -0.022  10.008  18.670  0.00  0.00    +0.000 A 
ATOM      9  N   UNL     1      -0.269   9.883  19.991  0.00  0.00    +0.000 NA
ATOM     10  C   UNL     1       0.541   9.062  20.683  0.00  0.00    +0.000 A 
ATOM     11  C   UNL     1       1.583   8.352  20.109  0.00  0.00    +0.000 A 
ENDBRANCH   4   6
BRANCH   5  12
ATOM     12  C   UNL     1       2.436   5.359  19.041  0.00  0.00    +0.000 A 
ATOM     13  C   UNL     1       2.664   5.278  20.424  0.00  0.00    +0.000 A 
ATOM     14  C   UNL     1       2.107   4.237  21.169  0.00  0.00    +0.000 A 
ATOM     15  C   UNL     1       1.280   3.304  20.553  0.00  0.00    +0.000 A 
ATOM     16  C   UNL     1       0.997   3.417  19.193  0.00  0.00    +0.000 A 
ATOM     17  C   UNL     1       1.577   4.437  18.434  0.00  0.00    +0.000 A 
ENDBRANCH   5  12
BRANCH   1  18
ATOM     18  S   UNL     1       5.323   4.681  17.503  0.00  0.00    +0.000 S 
BRANCH  18  19
ATOM     19  C   UNL     1       6.961   5.330  17.059  0.00  0.00    +0.000 C 
BRANCH  19  21
ATOM     20  O   UNL     1       7.718   6.247  19.130  0.00  0.00    +0.000 OA
ATOM     21  C   UNL     1       7.418   6.479  17.957  0.00  0.00    +0.000 C 
ATOM     22  N   UNL     1       7.538   7.717  17.344  0.00  0.00    +0.000 N 
ATOM     23  H   UNL     1       7.086   7.807  16.442  0.00  0.00    +0.000 HD
BRANCH  22  24
ATOM     24  C   UNL     1       8.090   8.894  17.905  0.00  0.00    +0.000 A 
ATOM     25  C   UNL     1       8.985   8.891  18.980  0.00  0.00    +0.000 A 
ATOM     26  C   UNL     1       9.518  10.087  19.477  0.00  0.00    +0.000 A 
ATOM     27  C   UNL     1       9.157  11.308  18.910  0.00  0.00    +0.000 A 
ATOM     28 CL   UNL     1       9.852  12.745  19.571  0.00  0.00    +0.000 Cl
ATOM     29  C   UNL     1       8.261  11.325  17.838  0.00  0.00    +0.000 A 
ATOM     30 CL   UNL     1       7.748  12.799  17.092  0.00  0.00    +0.000 Cl
ATOM     31  C   UNL     1       7.741  10.124  17.332  0.00  0.00    +0.000 A 
ENDBRANCH  22  24
ENDBRANCH  19  21
ENDBRANCH  18  19
ENDBRANCH   1  18
TORSDOF 6
ENDMDL
MODEL 5
REMARK VINA RESULT:      -7.8      2.237      4.204
REMARK  Name = 
REMARK  6 active torsions:
REMARK  status: ('A' for Active; 'I' for Inactive)
REMARK    1  A    between atoms: C_2  and  C_3
REMARK    2  A    between atoms: C_3  and  S_4
REMARK    3  A    between atoms: S_4  and  C_5
REMARK    4  A    between atoms: C_8  and  C_9
REMARK    5  A    between atoms: N_15  and  C_16
REMARK    6  A    between atoms: N_22  and  C_23
REMARK                            x       y       z     vdW  Elec       q    Type
REMARK                         _______ _______ _______ _____ _____    ______ ____
ROOT
ATOM      1  C   UNL     1       4.392   6.294  17.526  0.00  0.00    +0.000 A 
ATOM      2  N   UNL     1       4.531   7.431  16.882  0.00  0.00    +0.000 NA
ATOM      3  N   UNL     1       3.522   8.271  17.272  0.00  0.00    +0.000 NA
ATOM      4  C   UNL     1       2.789   7.660  18.189  0.00  0.00    +0.000 A 
ATOM      5  N   UNL     1       3.236   6.333  18.306  0.00  0.00    +0.000 N 
ENDROOT
BRANCH   4   6
ATOM      6  C   UNL     1       1.755   8.336  18.997  0.00  0.00    +0.000 A 
ATOM      7  C   UNL     1       1.618   8.039  20.356  0.00  0.00    +0.000 A 
ATOM      8  C   UNL     1       0.660   8.718  21.096  0.00  0.00    +0.000 A 
ATOM      9  N   UNL     1      -0.153   9.667  20.583  0.00  0.00    +0.000 NA
ATOM     10  C   UNL     1      -0.036   9.916  19.266  0.00  0.00    +0.000 A 
ATOM     11  C   UNL     1       0.866   9.265  18.441  0.00  0.00    +0.000 A 
ENDBRANCH   4   6
BRANCH   5  12
ATOM     12  C   UNL     1       2.637   5.305  19.095  0.00  0.00    +0.000 A 
ATOM     13  C   UNL     1       1.651   4.479  18.532  0.00  0.00    +0.000 A 
ATOM     14  C   UNL     1       0.918   3.607  19.339  0.00  0.00    +0.000 A 
ATOM     15  C   UNL     1       1.198   3.515  20.699  0.00  0.00    +0.000 A 
ATOM     16  C   UNL     1       2.220   4.285  21.252  0.00  0.00    +0.000 A 
ATOM     17  C   UNL     1       2.936   5.184  20.457  0.00  0.00    +0.000 A 
ENDBRANCH   5  12
BRANCH   1  18
ATOM     18  S   UNL     1       5.425   4.911  17.298  0.00  0.00    +0.000 S 
BRANCH  18  19
ATOM     19  C   UNL     1       6.976   5.697  16.772  0.00  0.00    +0.000 C 
BRANCH  19  21
ATOM     20  O   UNL     1       7.859   6.393  18.878  0.00  0.00    +0.000 OA
ATOM     21  C   UNL     1       7.485   6.747  17.759  0.00  0.00    +0.000 C 
ATOM     22  N   UNL     1       7.562   8.045  17.277  0.00  0.00    +0.000 N 
ATOM     23  H   UNL     1       7.053   8.227  16.420  0.00  0.00    +0.000 HD
BRANCH  22  24
ATOM     24  C   UNL     1       8.145   9.160  17.927  0.00  0.00    +0.000 A 
ATOM     25  C   UNL     1       8.974   9.054  19.048  0.00  0.00    +0.000 A 
ATOM     26  C   UNL     1       9.542  10.192  19.634  0.00  0.00    +0.000 A 
ATOM     27  C   UNL     1       9.282  11.457  19.111  0.00  0.00    +0.000 A 
ATOM     28 CL   UNL     1      10.016  12.819  19.881  0.00  0.00    +0.000 Cl
ATOM     29  C   UNL     1       8.453  11.578  17.992  0.00  0.00    +0.000 A 
ATOM     30 CL   UNL     1       8.067  13.113  17.294  0.00  0.00    +0.000 Cl
ATOM     31  C   UNL     1       7.898  10.434  17.398  0.00  0.00    +0.000 A 
ENDBRANCH  22  24
ENDBRANCH  19  21
ENDBRANCH  18  19
ENDBRANCH   1  18
TORSDOF 6
ENDMDL
MODEL 6
REMARK VINA RESULT:      -7.8      4.317      7.351
REMARK  Name = 
REMARK  6 active torsions:
REMARK  status: ('A' for Active; 'I' for Inactive)
REMARK    1  A    between atoms: C_2  and  C_3
REMARK    2  A    between atoms: C_3  and  S_4
REMARK    3  A    between atoms: S_4  and  C_5
REMARK    4  A    between atoms: C_8  and  C_9
REMARK    5  A    between atoms: N_15  and  C_16
REMARK    6  A    between atoms: N_22  and  C_23
REMARK                            x       y       z     vdW  Elec       q    Type
REMARK                         _______ _______ _______ _____ _____    ______ ____
ROOT
ATOM      1  C   UNL     1       4.709   3.963  18.190  0.00  0.00    +0.000 A 
ATOM      2  N   UNL     1       3.922   3.135  17.541  0.00  0.00    +0.000 NA
ATOM      3  N   UNL     1       4.230   3.204  16.209  0.00  0.00    +0.000 NA
ATOM      4  C   UNL     1       5.239   4.045  16.048  0.00  0.00    +0.000 A 
ATOM      5  N   UNL     1       5.511   4.657  17.284  0.00  0.00    +0.000 N 
ENDROOT
BRANCH   4   6
ATOM      6  C   UNL     1       5.985   4.202  14.783  0.00  0.00    +0.000 A 
ATOM      7  C   UNL     1       5.531   3.580  13.617  0.00  0.00    +0.000 A 
ATOM      8  C   UNL     1       6.235   3.777  12.437  0.00  0.00    +0.000 A 
ATOM      9  N   UNL     1       7.338   4.548  12.339  0.00  0.00    +0.000 NA
ATOM     10  C   UNL     1       7.785   5.111  13.477  0.00  0.00    +0.000 A 
ATOM     11  C   UNL     1       7.170   4.944  14.706  0.00  0.00    +0.000 A 
ENDBRANCH   4   6
BRANCH   5  12
ATOM     12  C   UNL     1       6.442   5.713  17.517  0.00  0.00    +0.000 A 
ATOM     13  C   UNL     1       7.530   5.505  18.381  0.00  0.00    +0.000 A 
ATOM     14  C   UNL     1       8.332   6.579  18.774  0.00  0.00    +0.000 A 
ATOM     15  C   UNL     1       8.088   7.852  18.269  0.00  0.00    +0.000 A 
ATOM     16  C   UNL     1       7.051   8.052  17.360  0.00  0.00    +0.000 A 
ATOM     17  C   UNL     1       6.223   6.990  16.988  0.00  0.00    +0.000 A 
ENDBRANCH   5  12
BRANCH   1  18
ATOM     18  S   UNL     1       4.629   4.243  19.906  0.00  0.00    +0.000 S 
BRANCH  18  19
ATOM     19  C   UNL     1       2.899   3.820  20.264  0.00  0.00    +0.000 C 
BRANCH  19  21
ATOM     20  O   UNL     1       0.766   4.872  20.471  0.00  0.00    +0.000 OA
ATOM     21  C   UNL     1       1.960   5.024  20.210  0.00  0.00    +0.000 C 
ATOM     22  N   UNL     1       2.557   6.246  19.939  0.00  0.00    +0.000 N 
ATOM     23  H   UNL     1       3.497   6.203  19.562  0.00  0.00    +0.000 HD
BRANCH  22  24
ATOM     24  C   UNL     1       1.945   7.523  19.992  0.00  0.00    +0.000 A 
ATOM     25  C   UNL     1       1.858   8.383  18.894  0.00  0.00    +0.000 A 
ATOM     26  C   UNL     1       1.217   9.624  19.001  0.00  0.00    +0.000 A 
ATOM     27  C   UNL     1       0.662  10.028  20.213  0.00  0.00    +0.000 A 
ATOM     28 CL   UNL     1      -0.114  11.571  20.275  0.00  0.00    +0.000 Cl
ATOM     29  C   UNL     1       0.745   9.178  21.319  0.00  0.00    +0.000 A 
ATOM     30 CL   UNL     1       0.098   9.613  22.864  0.00  0.00    +0.000 Cl
ATOM     31  C   UNL     1       1.373   7.929  21.205  0.00  0.00    +0.000 A 
ENDBRANCH  22  24
ENDBRANCH  19  21
ENDBRANCH  18  19
ENDBRANCH   1  18
TORSDOF 6
ENDMDL
MODEL 7
REMARK VINA RESULT:      -7.7      7.359     10.798
REMARK  Name = 
REMARK  6 active torsions:
REMARK  status: ('A' for Active; 'I' for Inactive)
REMARK    1  A    between atoms: C_2  and  C_3
REMARK    2  A    between atoms: C_3  and  S_4
REMARK    3  A    between atoms: S_4  and  C_5
REMARK    4  A    between atoms: C_8  and  C_9
REMARK    5  A    between atoms: N_15  and  C_16
REMARK    6  A    between atoms: N_22  and  C_23
REMARK                            x       y       z     vdW  Elec       q    Type
REMARK                         _______ _______ _______ _____ _____    ______ ____
ROOT
ATOM      1  C   UNL     1      -0.465  12.692  21.826  0.00  0.00    +0.000 A 
ATOM      2  N   UNL     1       0.347  13.523  22.440  0.00  0.00    +0.000 NA
ATOM      3  N   UNL     1       0.361  14.702  21.744  0.00  0.00    +0.000 NA
ATOM      4  C   UNL     1      -0.478  14.606  20.725  0.00  0.00    +0.000 A 
ATOM      5  N   UNL     1      -0.951  13.284  20.661  0.00  0.00    +0.000 N 
ENDROOT
BRANCH   4   6
ATOM      6  C   UNL     1      -0.891  15.751  19.890  0.00  0.00    +0.000 A 
ATOM      7  C   UNL     1      -1.974  16.547  20.274  0.00  0.00    +0.000 A 
ATOM      8  C   UNL     1      -2.314  17.638  19.486  0.00  0.00    +0.000 A 
ATOM      9  N   UNL     1      -1.652  17.991  18.364  0.00  0.00    +0.000 NA
ATOM     10  C   UNL     1      -0.634  17.195  17.986  0.00  0.00    +0.000 A 
ATOM     11  C   UNL     1      -0.245  16.066  18.688  0.00  0.00    +0.000 A 
ENDBRANCH   4   6
BRANCH   5  12
ATOM     12  C   UNL     1      -1.780  12.732  19.638  0.00  0.00    +0.000 A 
ATOM     13  C   UNL     1      -3.165  12.617  19.849  0.00  0.00    +0.000 A 
ATOM     14  C   UNL     1      -3.957  11.903  18.948  0.00  0.00    +0.000 A 
ATOM     15  C   UNL     1      -3.386  11.346  17.808  0.00  0.00    +0.000 A 
ATOM     16  C   UNL     1      -2.025  11.513  17.560  0.00  0.00    +0.000 A 
ATOM     17  C   UNL     1      -1.219  12.197  18.473  0.00  0.00    +0.000 A 
ENDBRANCH   5  12
BRANCH   1  18
ATOM     18  S   UNL     1      -0.747  11.050  22.333  0.00  0.00    +0.000 S 
BRANCH  18  19
ATOM     19  C   UNL     1       0.850  10.272  21.953  0.00  0.00    +0.000 C 
BRANCH  19  21
ATOM     20  O   UNL     1      -0.097   9.192  20.047  0.00  0.00    +0.000 OA
ATOM     21  C   UNL     1       0.739   9.126  20.949  0.00  0.00    +0.000 C 
ATOM     22  N   UNL     1       1.669   8.106  21.088  0.00  0.00    +0.000 N 
ATOM     23  H   UNL     1       2.167   8.082  21.970  0.00  0.00    +0.000 HD
BRANCH  22  24
ATOM     24  C   UNL     1       1.883   7.024  20.200  0.00  0.00    +0.000 A 
ATOM     25  C   UNL     1       2.465   7.165  18.937  0.00  0.00    +0.000 A 
ATOM     26  C   UNL     1       2.674   6.052  18.112  0.00  0.00    +0.000 A 
ATOM     27  C   UNL     1       2.296   4.780  18.536  0.00  0.00    +0.000 A 
ATOM     28 CL   UNL     1       2.584   3.452  17.469  0.00  0.00    +0.000 Cl
ATOM     29  C   UNL     1       1.711   4.626  19.796  0.00  0.00    +0.000 A 
ATOM     30 CL   UNL     1       1.197   3.084  20.388  0.00  0.00    +0.000 Cl
ATOM     31  C   UNL     1       1.517   5.740  20.626  0.00  0.00    +0.000 A 
ENDBRANCH  22  24
ENDBRANCH  19  21
ENDBRANCH  18  19
ENDBRANCH   1  18
TORSDOF 6
ENDMDL
MODEL 8
REMARK VINA RESULT:      -7.7      2.010      2.335
REMARK  Name = 
REMARK  6 active torsions:
REMARK  status: ('A' for Active; 'I' for Inactive)
REMARK    1  A    between atoms: C_2  and  C_3
REMARK    2  A    between atoms: C_3  and  S_4
REMARK    3  A    between atoms: S_4  and  C_5
REMARK    4  A    between atoms: C_8  and  C_9
REMARK    5  A    between atoms: N_15  and  C_16
REMARK    6  A    between atoms: N_22  and  C_23
REMARK                            x       y       z     vdW  Elec       q    Type
REMARK                         _______ _______ _______ _____ _____    ______ ____
ROOT
ATOM      1  C   UNL     1       6.575   6.418  17.935  0.00  0.00    +0.000 A 
ATOM      2  N   UNL     1       7.444   5.437  18.035  0.00  0.00    +0.000 NA
ATOM      3  N   UNL     1       6.763   4.291  18.349  0.00  0.00    +0.000 NA
ATOM      4  C   UNL     1       5.470   4.564  18.399  0.00  0.00    +0.000 A 
ATOM      5  N   UNL     1       5.300   5.952  18.256  0.00  0.00    +0.000 N 
ENDROOT
BRANCH   4   6
ATOM      6  C   UNL     1       4.415   3.534  18.488  0.00  0.00    +0.000 A 
ATOM      7  C   UNL     1       4.206   2.843  19.685  0.00  0.00    +0.000 A 
ATOM      8  C   UNL     1       3.183   1.906  19.745  0.00  0.00    +0.000 A 
ATOM      9  N   UNL     1       2.360   1.623  18.714  0.00  0.00    +0.000 NA
ATOM     10  C   UNL     1       2.596   2.270  17.557  0.00  0.00    +0.000 A 
ATOM     11  C   UNL     1       3.614   3.194  17.391  0.00  0.00    +0.000 A 
ENDBRANCH   4   6
BRANCH   5  12
ATOM     12  C   UNL     1       4.073   6.671  18.373  0.00  0.00    +0.000 A 
ATOM     13  C   UNL     1       3.704   7.589  17.376  0.00  0.00    +0.000 A 
ATOM     14  C   UNL     1       2.614   8.440  17.571  0.00  0.00    +0.000 A 
ATOM     15  C   UNL     1       1.856   8.345  18.734  0.00  0.00    +0.000 A 
ATOM     16  C   UNL     1       2.177   7.391  19.698  0.00  0.00    +0.000 A 
ATOM     17  C   UNL     1       3.286   6.559  19.525  0.00  0.00    +0.000 A 
ENDBRANCH   5  12
BRANCH   1  18
ATOM     18  S   UNL     1       7.006   8.072  17.604  0.00  0.00    +0.000 S 
BRANCH  18  19
ATOM     19  C   UNL     1       8.563   8.235  18.525  0.00  0.00    +0.000 C 
BRANCH  19  21
ATOM     20  O   UNL     1       8.988  10.035  20.034  0.00  0.00    +0.000 OA
ATOM     21  C   UNL     1       8.919   9.684  18.855  0.00  0.00    +0.000 C 
ATOM     22  N   UNL     1       9.221  10.496  17.773  0.00  0.00    +0.000 N 
ATOM     23  H   UNL     1       8.944  10.140  16.865  0.00  0.00    +0.000 HD
BRANCH  22  24
ATOM     24  C   UNL     1       9.732  11.816  17.816  0.00  0.00    +0.000 A 
ATOM     25  C   UNL     1      11.097  12.117  17.781  0.00  0.00    +0.000 A 
ATOM     26  C   UNL     1      11.543  13.444  17.802  0.00  0.00    +0.000 A 
ATOM     27  C   UNL     1      10.628  14.493  17.866  0.00  0.00    +0.000 A 
ATOM     28 CL   UNL     1      11.246  16.107  17.887  0.00  0.00    +0.000 Cl
ATOM     29  C   UNL     1       9.261  14.206  17.903  0.00  0.00    +0.000 A 
ATOM     30 CL   UNL     1       8.062  15.450  18.002  0.00  0.00    +0.000 Cl
ATOM     31  C   UNL     1       8.817  12.876  17.867  0.00  0.00    +0.000 A 
ENDBRANCH  22  24
ENDBRANCH  19  21
ENDBRANCH  18  19
ENDBRANCH   1  18
TORSDOF 6
ENDMDL
MODEL 9
REMARK VINA RESULT:      -7.6      4.282      7.157
REMARK  Name = 
REMARK  6 active torsions:
REMARK  status: ('A' for Active; 'I' for Inactive)
REMARK    1  A    between atoms: C_2  and  C_3
REMARK    2  A    between atoms: C_3  and  S_4
REMARK    3  A    between atoms: S_4  and  C_5
REMARK    4  A    between atoms: C_8  and  C_9
REMARK    5  A    between atoms: N_15  and  C_16
REMARK    6  A    between atoms: N_22  and  C_23
REMARK                            x       y       z     vdW  Elec       q    Type
REMARK                         _______ _______ _______ _____ _____    ______ ____
ROOT
ATOM      1  C   UNL     1       4.664   3.652  18.412  0.00  0.00    +0.000 A 
ATOM      2  N   UNL     1       3.992   2.741  17.745  0.00  0.00    +0.000 NA
ATOM      3  N   UNL     1       4.301   2.868  16.416  0.00  0.00    +0.000 NA
ATOM      4  C   UNL     1       5.196   3.832  16.277  0.00  0.00    +0.000 A 
ATOM      5  N   UNL     1       5.379   4.455  17.524  0.00  0.00    +0.000 N 
ENDROOT
BRANCH   4   6
ATOM      6  C   UNL     1       5.927   4.099  15.022  0.00  0.00    +0.000 A 
ATOM      7  C   UNL     1       5.466   3.573  13.813  0.00  0.00    +0.000 A 
ATOM      8  C   UNL     1       6.155   3.873  12.646  0.00  0.00    +0.000 A 
ATOM      9  N   UNL     1       7.252   4.660  12.602  0.00  0.00    +0.000 NA
ATOM     10  C   UNL     1       7.706   5.131  13.778  0.00  0.00    +0.000 A 
ATOM     11  C   UNL     1       7.106   4.856  14.995  0.00  0.00    +0.000 A 
ENDBRANCH   4   6
BRANCH   5  12
ATOM     12  C   UNL     1       6.168   5.616  17.781  0.00  0.00    +0.000 A 
ATOM     13  C   UNL     1       5.811   6.844  17.199  0.00  0.00    +0.000 A 
ATOM     14  C   UNL     1       6.675   7.938  17.278  0.00  0.00    +0.000 A 
ATOM     15  C   UNL     1       7.872   7.831  17.979  0.00  0.00    +0.000 A 
ATOM     16  C   UNL     1       8.201   6.635  18.614  0.00  0.00    +0.000 A 
ATOM     17  C   UNL     1       7.357   5.526  18.513  0.00  0.00    +0.000 A 
ENDBRANCH   5  12
BRANCH   1  18
ATOM     18  S   UNL     1       4.534   3.894  20.131  0.00  0.00    +0.000 S 
BRANCH  18  19
ATOM     19  C   UNL     1       2.751   3.674  20.397  0.00  0.00    +0.000 C 
BRANCH  19  21
ATOM     20  O   UNL     1       0.715   4.912  20.247  0.00  0.00    +0.000 OA
ATOM     21  C   UNL     1       1.932   4.919  20.056  0.00  0.00    +0.000 C 
ATOM     22  N   UNL     1       2.655   6.018  19.619  0.00  0.00    +0.000 N 
ATOM     23  H   UNL     1       3.608   5.832  19.330  0.00  0.00    +0.000 HD
BRANCH  22  24
ATOM     24  C   UNL     1       2.161   7.327  19.395  0.00  0.00    +0.000 A 
ATOM     25  C   UNL     1       2.200   7.965  18.152  0.00  0.00    +0.000 A 
ATOM     26  C   UNL     1       1.672   9.252  17.986  0.00  0.00    +0.000 A 
ATOM     27  C   UNL     1       1.105   9.924  19.066  0.00  0.00    +0.000 A 
ATOM     28 CL   UNL     1       0.472  11.509  18.792  0.00  0.00    +0.000 Cl
ATOM     29  C   UNL     1       1.062   9.299  20.315  0.00  0.00    +0.000 A 
ATOM     30 CL   UNL     1       0.391  10.073  21.709  0.00  0.00    +0.000 Cl
ATOM     31  C   UNL     1       1.577   8.003  20.474  0.00  0.00    +0.000 A 
ENDBRANCH  22  24
ENDBRANCH  19  21
ENDBRANCH  18  19
ENDBRANCH   1  18
TORSDOF 6
ENDMDL
