MODEL 1
REMARK VINA RESULT:      -8.5      0.000      0.000
REMARK  Name = 
REMARK  6 active torsions:
REMARK  status: ('A' for Active; 'I' for Inactive)
REMARK    1  A    between atoms: C_2  and  SE_4
REMARK    2  A    between atoms: SE_4  and  C_5
REMARK    3  A    between atoms: C_5  and  C_6
REMARK    4  A    between atoms: C_9  and  C_10
REMARK    5  A    between atoms: C_10  and  N_11
REMARK    6  A    between atoms: C_18  and  C_19
REMARK                            x       y       z     vdW  Elec       q    Type
REMARK                         _______ _______ _______ _____ _____    ______ ____
ROOT
ATOM      1  C   UNL     1       2.076   6.735  20.286  0.00  0.00    +0.000 C 
ENDROOT
BRANCH   1   2
ATOM      2  N   UNL     1       2.344   5.743  19.220  0.00  0.00    +0.000 N 
ATOM      3  C   UNL     1       1.810   4.489  19.295  0.00  0.00    +0.000 C 
ATOM      4  O   UNL     1       0.956   4.154  20.103  0.00  0.00    +0.000 OA
ATOM      5  C   UNL     1       2.428   3.577  18.365  0.00  0.00    +0.000 C 
ATOM      6  O   UNL     1       2.233   2.378  18.264  0.00  0.00    +0.000 OA
ATOM      7  C   UNL     1       3.372   4.362  17.637  0.00  0.00    +0.000 A 
ATOM      8  C   UNL     1       4.194   3.928  16.616  0.00  0.00    +0.000 A 
ATOM      9  C   UNL     1       5.019   4.847  15.968  0.00  0.00    +0.000 A 
ATOM     10  C   UNL     1       5.024   6.198  16.435  0.00  0.00    +0.000 A 
ATOM     11  C   UNL     1       4.191   6.618  17.532  0.00  0.00    +0.000 A 
ATOM     12  C   UNL     1       3.324   5.664  18.126  0.00  0.00    +0.000 A 
BRANCH   9  13
ATOM     13  C   UNL     1       5.838   4.375  14.768  0.00  0.00    +0.000 C 
ATOM     14  F   UNL     1       5.066   4.301  13.616  0.00  0.00    +0.000 F 
ATOM     15  F   UNL     1       6.857   5.277  14.525  0.00  0.00    +0.000 F 
ATOM     16  F   UNL     1       6.382   3.125  14.992  0.00  0.00    +0.000 F 
ENDBRANCH   9  13
ENDBRANCH   1   2
BRANCH   1  20
ATOM     17  C   UNL     1       0.303  10.711  19.816  0.00  0.00    +0.000 A 
ATOM     18  C   UNL     1       0.992  10.137  18.731  0.00  0.00    +0.000 A 
ATOM     19  C   UNL     1       1.600   8.862  18.842  0.00  0.00    +0.000 A 
ATOM     20  C   UNL     1       1.551   8.156  20.058  0.00  0.00    +0.000 A 
ATOM     21  C   UNL     1       0.819   8.730  21.126  0.00  0.00    +0.000 A 
ATOM     22  C   UNL     1       0.207   9.987  21.009  0.00  0.00    +0.000 A 
BRANCH  17  23
ATOM     23  C   UNL     1      -0.286  12.112  19.736  0.00  0.00    +0.000 C 
BRANCH  23  24
ATOM     24 SE   UNL     1      -2.238  12.214  19.497  0.00  0.00    +0.000 Se
BRANCH  24  26
ATOM     25  N   UNL     1      -2.019  11.914  16.720  0.00  0.00    +0.000 NA
ATOM     26  C   UNL     1      -2.376  11.311  17.802  0.00  0.00    +0.000 C 
ATOM     27  N   UNL     1      -2.766   9.951  17.768  0.00  0.00    +0.000 N 
ATOM     28  H   UNL     1      -2.033  11.436  15.805  0.00  0.00    +0.000 HD
ATOM     29  H   UNL     1      -2.778   9.423  16.885  0.00  0.00    +0.000 HD
ATOM     30  H   UNL     1      -3.018   9.472  18.642  0.00  0.00    +0.000 HD
ENDBRANCH  24  26
ENDBRANCH  23  24
ENDBRANCH  17  23
ENDBRANCH   1  20
TORSDOF 6
ENDMDL
MODEL 2
REMARK VINA RESULT:      -8.4      0.917      1.553
REMARK  Name = 
REMARK  6 active torsions:
REMARK  status: ('A' for Active; 'I' for Inactive)
REMARK    1  A    between atoms: C_2  and  SE_4
REMARK    2  A    between atoms: SE_4  and  C_5
REMARK    3  A    between atoms: C_5  and  C_6
REMARK    4  A    between atoms: C_9  and  C_10
REMARK    5  A    between atoms: C_10  and  N_11
REMARK    6  A    between atoms: C_18  and  C_19
REMARK                            x       y       z     vdW  Elec       q    Type
REMARK                         _______ _______ _______ _____ _____    ______ ____
ROOT
ATOM      1  C   UNL     1       2.144   7.443  20.206  0.00  0.00    +0.000 C 
ENDROOT
BRANCH   1   2
ATOM      2  N   UNL     1       2.450   6.298  19.319  0.00  0.00    +0.000 N 
ATOM      3  C   UNL     1       2.025   5.042  19.643  0.00  0.00    +0.000 C 
ATOM      4  O   UNL     1       1.235   4.795  20.543  0.00  0.00    +0.000 OA
ATOM      5  C   UNL     1       2.679   4.026  18.857  0.00  0.00    +0.000 C 
ATOM      6  O   UNL     1       2.580   2.817  18.980  0.00  0.00    +0.000 OA
ATOM      7  C   UNL     1       3.524   4.735  17.951  0.00  0.00    +0.000 A 
ATOM      8  C   UNL     1       4.337   4.186  16.980  0.00  0.00    +0.000 A 
ATOM      9  C   UNL     1       5.056   5.032  16.135  0.00  0.00    +0.000 A 
ATOM     10  C   UNL     1       4.968   6.441  16.355  0.00  0.00    +0.000 A 
ATOM     11  C   UNL     1       4.148   6.989  17.405  0.00  0.00    +0.000 A 
ATOM     12  C   UNL     1       3.388   6.096  18.205  0.00  0.00    +0.000 A 
BRANCH   9  13
ATOM     13  C   UNL     1       5.864   4.413  14.996  0.00  0.00    +0.000 C 
ATOM     14  F   UNL     1       6.234   3.105  15.281  0.00  0.00    +0.000 F 
ATOM     15  F   UNL     1       5.091   4.381  13.850  0.00  0.00    +0.000 F 
ATOM     16  F   UNL     1       7.016   5.133  14.747  0.00  0.00    +0.000 F 
ENDBRANCH   9  13
ENDBRANCH   1   2
BRANCH   1  20
ATOM     17  C   UNL     1      -0.335  10.864  19.054  0.00  0.00    +0.000 A 
ATOM     18  C   UNL     1      -0.452  10.343  20.356  0.00  0.00    +0.000 A 
ATOM     19  C   UNL     1       0.313   9.225  20.768  0.00  0.00    +0.000 A 
ATOM     20  C   UNL     1       1.189   8.592  19.866  0.00  0.00    +0.000 A 
ATOM     21  C   UNL     1       1.324   9.155  18.573  0.00  0.00    +0.000 A 
ATOM     22  C   UNL     1       0.573  10.270  18.172  0.00  0.00    +0.000 A 
BRANCH  17  23
ATOM     23  C   UNL     1      -1.209  12.014  18.573  0.00  0.00    +0.000 C 
BRANCH  23  24
ATOM     24 SE   UNL     1      -3.153  11.739  18.720  0.00  0.00    +0.000 Se
BRANCH  24  26
ATOM     25  N   UNL     1      -4.756  11.178  16.492  0.00  0.00    +0.000 NA
ATOM     26  C   UNL     1      -3.535  11.333  16.877  0.00  0.00    +0.000 C 
ATOM     27  N   UNL     1      -2.480  11.319  15.935  0.00  0.00    +0.000 N 
ATOM     28  H   UNL     1      -4.993  11.012  15.502  0.00  0.00    +0.000 HD
ATOM     29  H   UNL     1      -2.664  11.179  14.932  0.00  0.00    +0.000 HD
ATOM     30  H   UNL     1      -1.514  11.477  16.250  0.00  0.00    +0.000 HD
ENDBRANCH  24  26
ENDBRANCH  23  24
ENDBRANCH  17  23
ENDBRANCH   1  20
TORSDOF 6
ENDMDL
MODEL 3
REMARK VINA RESULT:      -8.4      0.893      1.142
REMARK  Name = 
REMARK  6 active torsions:
REMARK  status: ('A' for Active; 'I' for Inactive)
REMARK    1  A    between atoms: C_2  and  SE_4
REMARK    2  A    between atoms: SE_4  and  C_5
REMARK    3  A    between atoms: C_5  and  C_6
REMARK    4  A    between atoms: C_9  and  C_10
REMARK    5  A    between atoms: C_10  and  N_11
REMARK    6  A    between atoms: C_18  and  C_19
REMARK                            x       y       z     vdW  Elec       q    Type
REMARK                         _______ _______ _______ _____ _____    ______ ____
ROOT
ATOM      1  C   UNL     1       2.131   7.405  20.164  0.00  0.00    +0.000 C 
ENDROOT
BRANCH   1   2
ATOM      2  N   UNL     1       2.461   6.254  19.292  0.00  0.00    +0.000 N 
ATOM      3  C   UNL     1       2.057   4.994  19.630  0.00  0.00    +0.000 C 
ATOM      4  O   UNL     1       1.267   4.745  20.529  0.00  0.00    +0.000 OA
ATOM      5  C   UNL     1       2.732   3.981  18.860  0.00  0.00    +0.000 C 
ATOM      6  O   UNL     1       2.654   2.772  18.997  0.00  0.00    +0.000 OA
ATOM      7  C   UNL     1       3.569   4.693  17.949  0.00  0.00    +0.000 A 
ATOM      8  C   UNL     1       4.396   4.146  16.988  0.00  0.00    +0.000 A 
ATOM      9  C   UNL     1       5.104   4.994  16.136  0.00  0.00    +0.000 A 
ATOM     10  C   UNL     1       4.991   6.404  16.338  0.00  0.00    +0.000 A 
ATOM     11  C   UNL     1       4.156   6.951  17.377  0.00  0.00    +0.000 A 
ATOM     12  C   UNL     1       3.408   6.055  18.185  0.00  0.00    +0.000 A 
BRANCH   9  13
ATOM     13  C   UNL     1       5.928   4.376  15.008  0.00  0.00    +0.000 C 
ATOM     14  F   UNL     1       6.246   3.049  15.273  0.00  0.00    +0.000 F 
ATOM     15  F   UNL     1       5.192   4.398  13.838  0.00  0.00    +0.000 F 
ATOM     16  F   UNL     1       7.110   5.062  14.814  0.00  0.00    +0.000 F 
ENDBRANCH   9  13
ENDBRANCH   1   2
BRANCH   1  20
ATOM     17  C   UNL     1      -0.383  10.827  19.094  0.00  0.00    +0.000 A 
ATOM     18  C   UNL     1       0.498  10.298  18.132  0.00  0.00    +0.000 A 
ATOM     19  C   UNL     1       1.345   9.205  18.438  0.00  0.00    +0.000 A 
ATOM     20  C   UNL     1       1.343   8.644  19.728  0.00  0.00    +0.000 A 
ATOM     21  C   UNL     1       0.422   9.162  20.671  0.00  0.00    +0.000 A 
ATOM     22  C   UNL     1      -0.425  10.237  20.362  0.00  0.00    +0.000 A 
BRANCH  17  23
ATOM     23  C   UNL     1      -1.241  12.050  18.804  0.00  0.00    +0.000 C 
BRANCH  23  24
ATOM     24 SE   UNL     1      -3.187  11.756  18.799  0.00  0.00    +0.000 Se
BRANCH  24  26
ATOM     25  N   UNL     1      -2.414  11.397  16.130  0.00  0.00    +0.000 NA
ATOM     26  C   UNL     1      -3.436  11.448  16.914  0.00  0.00    +0.000 C 
ATOM     27  N   UNL     1      -4.732  11.168  16.421  0.00  0.00    +0.000 N 
ATOM     28  H   UNL     1      -2.514  11.182  15.126  0.00  0.00    +0.000 HD
ATOM     29  H   UNL     1      -4.884  10.927  15.432  0.00  0.00    +0.000 HD
ATOM     30  H   UNL     1      -5.535  11.179  17.063  0.00  0.00    +0.000 HD
ENDBRANCH  24  26
ENDBRANCH  23  24
ENDBRANCH  17  23
ENDBRANCH   1  20
TORSDOF 6
ENDMDL
MODEL 4
REMARK VINA RESULT:      -8.4      0.392      1.272
REMARK  Name = 
REMARK  6 active torsions:
REMARK  status: ('A' for Active; 'I' for Inactive)
REMARK    1  A    between atoms: C_2  and  SE_4
REMARK    2  A    between atoms: SE_4  and  C_5
REMARK    3  A    between atoms: C_5  and  C_6
REMARK    4  A    between atoms: C_9  and  C_10
REMARK    5  A    between atoms: C_10  and  N_11
REMARK    6  A    between atoms: C_18  and  C_19
REMARK                            x       y       z     vdW  Elec       q    Type
REMARK                         _______ _______ _______ _____ _____    ______ ____
ROOT
ATOM      1  C   UNL     1       2.425   6.593  20.127  0.00  0.00    +0.000 C 
ENDROOT
BRANCH   1   2
ATOM      2  N   UNL     1       2.639   5.636  19.018  0.00  0.00    +0.000 N 
ATOM      3  C   UNL     1       2.090   4.387  19.069  0.00  0.00    +0.000 C 
ATOM      4  O   UNL     1       1.261   4.035  19.896  0.00  0.00    +0.000 OA
ATOM      5  C   UNL     1       2.660   3.500  18.087  0.00  0.00    +0.000 C 
ATOM      6  O   UNL     1       2.444   2.308  17.951  0.00  0.00    +0.000 OA
ATOM      7  C   UNL     1       3.588   4.297  17.351  0.00  0.00    +0.000 A 
ATOM      8  C   UNL     1       4.365   3.888  16.286  0.00  0.00    +0.000 A 
ATOM      9  C   UNL     1       5.179   4.819  15.639  0.00  0.00    +0.000 A 
ATOM     10  C   UNL     1       5.221   6.151  16.152  0.00  0.00    +0.000 A 
ATOM     11  C   UNL     1       4.435   6.544  17.293  0.00  0.00    +0.000 A 
ATOM     12  C   UNL     1       3.577   5.582  17.886  0.00  0.00    +0.000 A 
BRANCH   9  13
ATOM     13  C   UNL     1       5.947   4.377  14.395  0.00  0.00    +0.000 C 
ATOM     14  F   UNL     1       6.689   3.227  14.631  0.00  0.00    +0.000 F 
ATOM     15  F   UNL     1       5.053   4.090  13.381  0.00  0.00    +0.000 F 
ATOM     16  F   UNL     1       6.819   5.360  13.967  0.00  0.00    +0.000 F 
ENDBRANCH   9  13
ENDBRANCH   1   2
BRANCH   1  20
ATOM     17  C   UNL     1       0.664  10.561  19.550  0.00  0.00    +0.000 A 
ATOM     18  C   UNL     1       0.620   9.972  20.828  0.00  0.00    +0.000 A 
ATOM     19  C   UNL     1       1.157   8.682  21.058  0.00  0.00    +0.000 A 
ATOM     20  C   UNL     1       1.723   7.949  19.999  0.00  0.00    +0.000 A 
ATOM     21  C   UNL     1       1.796   8.573  18.729  0.00  0.00    +0.000 A 
ATOM     22  C   UNL     1       1.273   9.855  18.506  0.00  0.00    +0.000 A 
BRANCH  17  23
ATOM     23  C   UNL     1       0.020  11.911  19.270  0.00  0.00    +0.000 C 
BRANCH  23  24
ATOM     24 SE   UNL     1      -1.947  11.959  19.343  0.00  0.00    +0.000 Se
BRANCH  24  26
ATOM     25  N   UNL     1      -2.047  11.702  16.555  0.00  0.00    +0.000 NA
ATOM     26  C   UNL     1      -2.327  11.101  17.661  0.00  0.00    +0.000 C 
ATOM     27  N   UNL     1      -2.809   9.772  17.652  0.00  0.00    +0.000 N 
ATOM     28  H   UNL     1      -2.192  11.245  15.641  0.00  0.00    +0.000 HD
ATOM     29  H   UNL     1      -2.950   9.263  16.768  0.00  0.00    +0.000 HD
ATOM     30  H   UNL     1      -2.998   9.292  18.542  0.00  0.00    +0.000 HD
ENDBRANCH  24  26
ENDBRANCH  23  24
ENDBRANCH  17  23
ENDBRANCH   1  20
TORSDOF 6
ENDMDL
MODEL 5
REMARK VINA RESULT:      -8.3      0.704      1.018
REMARK  Name = 
REMARK  6 active torsions:
REMARK  status: ('A' for Active; 'I' for Inactive)
REMARK    1  A    between atoms: C_2  and  SE_4
REMARK    2  A    between atoms: SE_4  and  C_5
REMARK    3  A    between atoms: C_5  and  C_6
REMARK    4  A    between atoms: C_9  and  C_10
REMARK    5  A    between atoms: C_10  and  N_11
REMARK    6  A    between atoms: C_18  and  C_19
REMARK                            x       y       z     vdW  Elec       q    Type
REMARK                         _______ _______ _______ _____ _____    ______ ____
ROOT
ATOM      1  C   UNL     1       1.975   6.503  20.519  0.00  0.00    +0.000 C 
ENDROOT
BRANCH   1   2
ATOM      2  N   UNL     1       2.256   5.570  19.404  0.00  0.00    +0.000 N 
ATOM      3  C   UNL     1       1.709   4.318  19.398  0.00  0.00    +0.000 C 
ATOM      4  O   UNL     1       0.836   3.947  20.169  0.00  0.00    +0.000 OA
ATOM      5  C   UNL     1       2.338   3.454  18.431  0.00  0.00    +0.000 C 
ATOM      6  O   UNL     1       2.135   2.265  18.258  0.00  0.00    +0.000 OA
ATOM      7  C   UNL     1       3.304   4.270  17.767  0.00  0.00    +0.000 A 
ATOM      8  C   UNL     1       4.142   3.886  16.740  0.00  0.00    +0.000 A 
ATOM      9  C   UNL     1       4.988   4.832  16.161  0.00  0.00    +0.000 A 
ATOM     10  C   UNL     1       4.996   6.153  16.703  0.00  0.00    +0.000 A 
ATOM     11  C   UNL     1       4.144   6.520  17.805  0.00  0.00    +0.000 A 
ATOM     12  C   UNL     1       3.257   5.543  18.328  0.00  0.00    +0.000 A 
BRANCH   9  13
ATOM     13  C   UNL     1       5.828   4.419  14.953  0.00  0.00    +0.000 C 
ATOM     14  F   UNL     1       6.276   3.109  15.064  0.00  0.00    +0.000 F 
ATOM     15  F   UNL     1       5.056   4.496  13.809  0.00  0.00    +0.000 F 
ATOM     16  F   UNL     1       6.935   5.232  14.810  0.00  0.00    +0.000 F 
ENDBRANCH   9  13
ENDBRANCH   1   2
BRANCH   1  20
ATOM     17  C   UNL     1       0.424  10.589  20.245  0.00  0.00    +0.000 A 
ATOM     18  C   UNL     1       1.063  10.024  19.126  0.00  0.00    +0.000 A 
ATOM     19  C   UNL     1       1.599   8.713  19.173  0.00  0.00    +0.000 A 
ATOM     20  C   UNL     1       1.528   7.960  20.359  0.00  0.00    +0.000 A 
ATOM     21  C   UNL     1       0.845   8.528  21.463  0.00  0.00    +0.000 A 
ATOM     22  C   UNL     1       0.305   9.822  21.409  0.00  0.00    +0.000 A 
BRANCH  17  23
ATOM     23  C   UNL     1      -0.085  12.023  20.234  0.00  0.00    +0.000 C 
BRANCH  23  24
ATOM     24 SE   UNL     1      -0.313  12.842  18.458  0.00  0.00    +0.000 Se
BRANCH  24  26
ATOM     25  N   UNL     1      -1.717  10.935  16.962  0.00  0.00    +0.000 NA
ATOM     26  C   UNL     1      -1.850  11.844  17.866  0.00  0.00    +0.000 C 
ATOM     27  N   UNL     1      -3.096  12.040  18.508  0.00  0.00    +0.000 N 
ATOM     28  H   UNL     1      -2.514  10.350  16.664  0.00  0.00    +0.000 HD
ATOM     29  H   UNL     1      -3.916  11.468  18.263  0.00  0.00    +0.000 HD
ATOM     30  H   UNL     1      -3.181  12.746  19.251  0.00  0.00    +0.000 HD
ENDBRANCH  24  26
ENDBRANCH  23  24
ENDBRANCH  17  23
ENDBRANCH   1  20
TORSDOF 6
ENDMDL
MODEL 6
REMARK VINA RESULT:      -8.1      1.365      1.728
REMARK  Name = 
REMARK  6 active torsions:
REMARK  status: ('A' for Active; 'I' for Inactive)
REMARK    1  A    between atoms: C_2  and  SE_4
REMARK    2  A    between atoms: SE_4  and  C_5
REMARK    3  A    between atoms: C_5  and  C_6
REMARK    4  A    between atoms: C_9  and  C_10
REMARK    5  A    between atoms: C_10  and  N_11
REMARK    6  A    between atoms: C_18  and  C_19
REMARK                            x       y       z     vdW  Elec       q    Type
REMARK                         _______ _______ _______ _____ _____    ______ ____
ROOT
ATOM      1  C   UNL     1       2.749   6.008  20.117  0.00  0.00    +0.000 C 
ENDROOT
BRANCH   1   2
ATOM      2  N   UNL     1       3.002   5.099  18.977  0.00  0.00    +0.000 N 
ATOM      3  C   UNL     1       2.647   3.782  19.053  0.00  0.00    +0.000 C 
ATOM      4  O   UNL     1       1.956   3.308  19.942  0.00  0.00    +0.000 OA
ATOM      5  C   UNL     1       3.251   2.994  18.009  0.00  0.00    +0.000 C 
ATOM      6  O   UNL     1       3.201   1.784  17.871  0.00  0.00    +0.000 OA
ATOM      7  C   UNL     1       3.984   3.923  17.210  0.00  0.00    +0.000 A 
ATOM      8  C   UNL     1       4.715   3.639  16.074  0.00  0.00    +0.000 A 
ATOM      9  C   UNL     1       5.324   4.682  15.376  0.00  0.00    +0.000 A 
ATOM     10  C   UNL     1       5.217   6.004  15.908  0.00  0.00    +0.000 A 
ATOM     11  C   UNL     1       4.486   6.271  17.120  0.00  0.00    +0.000 A 
ATOM     12  C   UNL     1       3.833   5.190  17.767  0.00  0.00    +0.000 A 
BRANCH   9  13
ATOM     13  C   UNL     1       6.035   4.365  14.062  0.00  0.00    +0.000 C 
ATOM     14  F   UNL     1       7.013   5.307  13.768  0.00  0.00    +0.000 F 
ATOM     15  F   UNL     1       6.663   3.138  14.164  0.00  0.00    +0.000 F 
ATOM     16  F   UNL     1       5.147   4.335  13.004  0.00  0.00    +0.000 F 
ENDBRANCH   9  13
ENDBRANCH   1   2
BRANCH   1  20
ATOM     17  C   UNL     1       0.507   9.769  20.019  0.00  0.00    +0.000 A 
ATOM     18  C   UNL     1       1.251   9.387  18.887  0.00  0.00    +0.000 A 
ATOM     19  C   UNL     1       2.009   8.190  18.879  0.00  0.00    +0.000 A 
ATOM     20  C   UNL     1       2.055   7.371  20.023  0.00  0.00    +0.000 A 
ATOM     21  C   UNL     1       1.268   7.749  21.138  0.00  0.00    +0.000 A 
ATOM     22  C   UNL     1       0.509   8.930  21.138  0.00  0.00    +0.000 A 
BRANCH  17  23
ATOM     23  C   UNL     1      -0.246  11.090  20.070  0.00  0.00    +0.000 C 
BRANCH  23  24
ATOM     24 SE   UNL     1       0.826  12.706  19.732  0.00  0.00    +0.000 Se
BRANCH  24  26
ATOM     25  N   UNL     1      -0.530  14.900  18.637  0.00  0.00    +0.000 NA
ATOM     26  C   UNL     1      -0.383  13.622  18.545  0.00  0.00    +0.000 C 
ATOM     27  N   UNL     1      -1.020  12.901  17.508  0.00  0.00    +0.000 N 
ATOM     28  H   UNL     1      -1.131  15.423  17.981  0.00  0.00    +0.000 HD
ATOM     29  H   UNL     1      -1.612  13.377  16.815  0.00  0.00    +0.000 HD
ATOM     30  H   UNL     1      -0.869  11.887  17.426  0.00  0.00    +0.000 HD
ENDBRANCH  24  26
ENDBRANCH  23  24
ENDBRANCH  17  23
ENDBRANCH   1  20
TORSDOF 6
ENDMDL
MODEL 7
REMARK VINA RESULT:      -8.1      1.089      1.581
REMARK  Name = 
REMARK  6 active torsions:
REMARK  status: ('A' for Active; 'I' for Inactive)
REMARK    1  A    between atoms: C_2  and  SE_4
REMARK    2  A    between atoms: SE_4  and  C_5
REMARK    3  A    between atoms: C_5  and  C_6
REMARK    4  A    between atoms: C_9  and  C_10
REMARK    5  A    between atoms: C_10  and  N_11
REMARK    6  A    between atoms: C_18  and  C_19
REMARK                            x       y       z     vdW  Elec       q    Type
REMARK                         _______ _______ _______ _____ _____    ______ ____
ROOT
ATOM      1  C   UNL     1       1.864   6.061  20.373  0.00  0.00    +0.000 C 
ENDROOT
BRANCH   1   2
ATOM      2  N   UNL     1       2.274   5.253  19.201  0.00  0.00    +0.000 N 
ATOM      3  C   UNL     1       1.730   4.019  18.990  0.00  0.00    +0.000 C 
ATOM      4  O   UNL     1       0.770   3.578  19.605  0.00  0.00    +0.000 OA
ATOM      5  C   UNL     1       2.468   3.258  18.014  0.00  0.00    +0.000 C 
ATOM      6  O   UNL     1       2.284   2.098  17.686  0.00  0.00    +0.000 OA
ATOM      7  C   UNL     1       3.508   4.127  17.565  0.00  0.00    +0.000 A 
ATOM      8  C   UNL     1       4.462   3.846  16.607  0.00  0.00    +0.000 A 
ATOM      9  C   UNL     1       5.373   4.837  16.242  0.00  0.00    +0.000 A 
ATOM     10  C   UNL     1       5.319   6.090  16.926  0.00  0.00    +0.000 A 
ATOM     11  C   UNL     1       4.342   6.345  17.954  0.00  0.00    +0.000 A 
ATOM     12  C   UNL     1       3.397   5.330  18.255  0.00  0.00    +0.000 A 
BRANCH   9  13
ATOM     13  C   UNL     1       6.350   4.548  15.104  0.00  0.00    +0.000 C 
ATOM     14  F   UNL     1       7.661   4.474  15.560  0.00  0.00    +0.000 F 
ATOM     15  F   UNL     1       6.042   3.327  14.534  0.00  0.00    +0.000 F 
ATOM     16  F   UNL     1       6.296   5.529  14.134  0.00  0.00    +0.000 F 
ENDBRANCH   9  13
ENDBRANCH   1   2
BRANCH   1  20
ATOM     17  C   UNL     1       0.851  10.318  20.536  0.00  0.00    +0.000 A 
ATOM     18  C   UNL     1       1.252   9.757  19.310  0.00  0.00    +0.000 A 
ATOM     19  C   UNL     1       1.609   8.390  19.212  0.00  0.00    +0.000 A 
ATOM     20  C   UNL     1       1.598   7.570  20.355  0.00  0.00    +0.000 A 
ATOM     21  C   UNL     1       1.154   8.140  21.572  0.00  0.00    +0.000 A 
ATOM     22  C   UNL     1       0.789   9.492  21.664  0.00  0.00    +0.000 A 
BRANCH  17  23
ATOM     23  C   UNL     1       0.542  11.802  20.673  0.00  0.00    +0.000 C 
BRANCH  23  24
ATOM     24 SE   UNL     1      -1.291  12.346  20.205  0.00  0.00    +0.000 Se
BRANCH  24  26
ATOM     25  N   UNL     1      -1.167  12.610  17.419  0.00  0.00    +0.000 NA
ATOM     26  C   UNL     1      -0.923  13.219  18.528  0.00  0.00    +0.000 C 
ATOM     27  N   UNL     1      -0.490  14.566  18.526  0.00  0.00    +0.000 N 
ATOM     28  H   UNL     1      -1.029  13.074  16.507  0.00  0.00    +0.000 HD
ATOM     29  H   UNL     1      -0.357  15.080  17.645  0.00  0.00    +0.000 HD
ATOM     30  H   UNL     1      -0.330  15.051  19.419  0.00  0.00    +0.000 HD
ENDBRANCH  24  26
ENDBRANCH  23  24
ENDBRANCH  17  23
ENDBRANCH   1  20
TORSDOF 6
ENDMDL
MODEL 8
REMARK VINA RESULT:      -8.1      1.722      2.065
REMARK  Name = 
REMARK  6 active torsions:
REMARK  status: ('A' for Active; 'I' for Inactive)
REMARK    1  A    between atoms: C_2  and  SE_4
REMARK    2  A    between atoms: SE_4  and  C_5
REMARK    3  A    between atoms: C_5  and  C_6
REMARK    4  A    between atoms: C_9  and  C_10
REMARK    5  A    between atoms: C_10  and  N_11
REMARK    6  A    between atoms: C_18  and  C_19
REMARK                            x       y       z     vdW  Elec       q    Type
REMARK                         _______ _______ _______ _____ _____    ______ ____
ROOT
ATOM      1  C   UNL     1       2.066   6.584  20.496  0.00  0.00    +0.000 C 
ENDROOT
BRANCH   1   2
ATOM      2  N   UNL     1       2.301   5.639  19.380  0.00  0.00    +0.000 N 
ATOM      3  C   UNL     1       1.718   4.404  19.388  0.00  0.00    +0.000 C 
ATOM      4  O   UNL     1       0.848   4.061  20.175  0.00  0.00    +0.000 OA
ATOM      5  C   UNL     1       2.305   3.519  18.415  0.00  0.00    +0.000 C 
ATOM      6  O   UNL     1       2.065   2.335  18.250  0.00  0.00    +0.000 OA
ATOM      7  C   UNL     1       3.282   4.303  17.731  0.00  0.00    +0.000 A 
ATOM      8  C   UNL     1       4.091   3.891  16.691  0.00  0.00    +0.000 A 
ATOM      9  C   UNL     1       4.955   4.810  16.093  0.00  0.00    +0.000 A 
ATOM     10  C   UNL     1       5.010   6.133  16.630  0.00  0.00    +0.000 A 
ATOM     11  C   UNL     1       4.188   6.528  17.745  0.00  0.00    +0.000 A 
ATOM     12  C   UNL     1       3.282   5.579  18.287  0.00  0.00    +0.000 A 
BRANCH   9  13
ATOM     13  C   UNL     1       5.761   4.368  14.874  0.00  0.00    +0.000 C 
ATOM     14  F   UNL     1       6.792   5.256  14.592  0.00  0.00    +0.000 F 
ATOM     15  F   UNL     1       6.336   3.136  15.125  0.00  0.00    +0.000 F 
ATOM     16  F   UNL     1       4.964   4.278  13.750  0.00  0.00    +0.000 F 
ENDBRANCH   9  13
ENDBRANCH   1   2
BRANCH   1  20
ATOM     17  C   UNL     1       0.369  10.614  20.275  0.00  0.00    +0.000 A 
ATOM     18  C   UNL     1       0.885  10.026  19.106  0.00  0.00    +0.000 A 
ATOM     19  C   UNL     1       1.463   8.732  19.132  0.00  0.00    +0.000 A 
ATOM     20  C   UNL     1       1.558   8.022  20.343  0.00  0.00    +0.000 A 
ATOM     21  C   UNL     1       0.997   8.612  21.501  0.00  0.00    +0.000 A 
ATOM     22  C   UNL     1       0.414   9.888  21.470  0.00  0.00    +0.000 A 
BRANCH  17  23
ATOM     23  C   UNL     1      -0.182  12.034  20.278  0.00  0.00    +0.000 C 
BRANCH  23  24
ATOM     24 SE   UNL     1      -0.015  13.025  18.585  0.00  0.00    +0.000 Se
BRANCH  24  26
ATOM     25  N   UNL     1       2.506  13.705  19.600  0.00  0.00    +0.000 NA
ATOM     26  C   UNL     1       1.898  13.248  18.560  0.00  0.00    +0.000 C 
ATOM     27  N   UNL     1       2.634  12.805  17.436  0.00  0.00    +0.000 N 
ATOM     28  H   UNL     1       3.534  13.786  19.632  0.00  0.00    +0.000 HD
ATOM     29  H   UNL     1       3.662  12.843  17.426  0.00  0.00    +0.000 HD
ATOM     30  H   UNL     1       2.139  12.412  16.625  0.00  0.00    +0.000 HD
ENDBRANCH  24  26
ENDBRANCH  23  24
ENDBRANCH  17  23
ENDBRANCH   1  20
TORSDOF 6
ENDMDL
MODEL 9
REMARK VINA RESULT:      -8.1      1.927      2.278
REMARK  Name = 
REMARK  6 active torsions:
REMARK  status: ('A' for Active; 'I' for Inactive)
REMARK    1  A    between atoms: C_2  and  SE_4
REMARK    2  A    between atoms: SE_4  and  C_5
REMARK    3  A    between atoms: C_5  and  C_6
REMARK    4  A    between atoms: C_9  and  C_10
REMARK    5  A    between atoms: C_10  and  N_11
REMARK    6  A    between atoms: C_18  and  C_19
REMARK                            x       y       z     vdW  Elec       q    Type
REMARK                         _______ _______ _______ _____ _____    ______ ____
ROOT
ATOM      1  C   UNL     1       1.957   6.357  20.148  0.00  0.00    +0.000 C 
ENDROOT
BRANCH   1   2
ATOM      2  N   UNL     1       2.379   5.449  19.057  0.00  0.00    +0.000 N 
ATOM      3  C   UNL     1       1.874   4.183  18.979  0.00  0.00    +0.000 C 
ATOM      4  O   UNL     1       0.938   3.775  19.651  0.00  0.00    +0.000 OA
ATOM      5  C   UNL     1       2.624   3.352  18.072  0.00  0.00    +0.000 C 
ATOM      6  O   UNL     1       2.476   2.160  17.865  0.00  0.00    +0.000 OA
ATOM      7  C   UNL     1       3.628   4.205  17.521  0.00  0.00    +0.000 A 
ATOM      8  C   UNL     1       4.578   3.861  16.580  0.00  0.00    +0.000 A 
ATOM      9  C   UNL     1       5.450   4.840  16.103  0.00  0.00    +0.000 A 
ATOM     10  C   UNL     1       5.362   6.152  16.659  0.00  0.00    +0.000 A 
ATOM     11  C   UNL     1       4.391   6.477  17.672  0.00  0.00    +0.000 A 
ATOM     12  C   UNL     1       3.486   5.467  18.089  0.00  0.00    +0.000 A 
BRANCH   9  13
ATOM     13  C   UNL     1       6.422   4.470  14.983  0.00  0.00    +0.000 C 
ATOM     14  F   UNL     1       6.426   5.423  13.972  0.00  0.00    +0.000 F 
ATOM     15  F   UNL     1       7.705   4.403  15.493  0.00  0.00    +0.000 F 
ATOM     16  F   UNL     1       6.095   3.254  14.415  0.00  0.00    +0.000 F 
ENDBRANCH   9  13
ENDBRANCH   1   2
BRANCH   1  20
ATOM     17  C   UNL     1       0.894  10.598  19.912  0.00  0.00    +0.000 A 
ATOM     18  C   UNL     1       1.336   9.938  18.750  0.00  0.00    +0.000 A 
ATOM     19  C   UNL     1       1.711   8.572  18.782  0.00  0.00    +0.000 A 
ATOM     20  C   UNL     1       1.676   7.855  19.991  0.00  0.00    +0.000 A 
ATOM     21  C   UNL     1       1.190   8.522  21.142  0.00  0.00    +0.000 A 
ATOM     22  C   UNL     1       0.808   9.872  21.105  0.00  0.00    +0.000 A 
BRANCH  17  23
ATOM     23  C   UNL     1       0.565  12.084  19.910  0.00  0.00    +0.000 C 
BRANCH  23  24
ATOM     24 SE   UNL     1       2.070  13.300  20.274  0.00  0.00    +0.000 Se
BRANCH  24  26
ATOM     25  N   UNL     1       2.453  12.946  17.521  0.00  0.00    +0.000 NA
ATOM     26  C   UNL     1       2.472  13.824  18.465  0.00  0.00    +0.000 C 
ATOM     27  N   UNL     1       2.677  15.192  18.167  0.00  0.00    +0.000 N 
ATOM     28  H   UNL     1       2.614  13.209  16.536  0.00  0.00    +0.000 HD
ATOM     29  H   UNL     1       2.820  15.510  17.198  0.00  0.00    +0.000 HD
ATOM     30  H   UNL     1       2.657  15.887  18.925  0.00  0.00    +0.000 HD
ENDBRANCH  24  26
ENDBRANCH  23  24
ENDBRANCH  17  23
ENDBRANCH   1  20
TORSDOF 6
ENDMDL
