MODEL 1
REMARK VINA RESULT:      -7.7      0.000      0.000
REMARK  Name = 
REMARK  16 active torsions:
REMARK  status: ('A' for Active; 'I' for Inactive)
REMARK    1  A    between atoms: C_1  and  C_2
REMARK    2  A    between atoms: C_2  and  C_3
REMARK    3  A    between atoms: C_3  and  C_4
REMARK    4  A    between atoms: C_3  and  O_6
REMARK    5  A    between atoms: C_4  and  O_5
REMARK    6  A    between atoms: O_6  and  C_7
REMARK    7  A    between atoms: C_9  and  N_10
REMARK    8  A    between atoms: N_10  and  C_11
REMARK    9  A    between atoms: C_11  and  C_12
REMARK   10  A    between atoms: C_15  and  C_16
REMARK   11  A    between atoms: C_16  and  C_17
REMARK   12  A    between atoms: C_16  and  C_18
REMARK   13  A    between atoms: C_16  and  C_19
REMARK   14  A    between atoms: N_25  and  C_26
REMARK   15  A    between atoms: C_26  and  C_27
REMARK   16  A    between atoms: C_26  and  C_28
REMARK                            x       y       z     vdW  Elec       q    Type
REMARK                         _______ _______ _______ _____ _____    ______ ____
ROOT
ATOM      1  C   UNL     1       4.223   5.692  17.117  0.00  0.00    +0.000 A 
ATOM      2  C   UNL     1       3.701   6.982  17.261  0.00  0.00    +0.000 A 
ATOM      3  C   UNL     1       2.888   7.350  18.354  0.00  0.00    +0.000 A 
ATOM      4  C   UNL     1       2.508   6.317  19.243  0.00  0.00    +0.000 A 
ATOM      5  N   UNL     1       1.698   6.369  20.359  0.00  0.00    +0.000 NA
ATOM      6  C   UNL     1       1.642   5.139  20.812  0.00  0.00    +0.000 A 
ATOM      7  N   UNL     1       2.399   4.284  20.058  0.00  0.00    +0.000 N 
ATOM      8  C   UNL     1       2.961   5.013  19.032  0.00  0.00    +0.000 A 
ATOM      9  C   UNL     1       3.823   4.669  17.979  0.00  0.00    +0.000 A 
ENDROOT
BRANCH   7  10
ATOM     10  C   UNL     1       2.549   2.854  20.295  0.00  0.00    +0.000 C 
ATOM     11  C   UNL     1       2.202   2.469  21.733  0.00  0.00    +0.000 C 
ATOM     12  C   UNL     1       1.740   2.036  19.289  0.00  0.00    +0.000 C 
ENDBRANCH   7  10
BRANCH   3  13
ATOM     13  N   UNL     1       2.575   8.714  18.484  0.00  0.00    +0.000 N 
ATOM     14  H   UNL     1       3.384   9.302  18.289  0.00  0.00    +0.000 HD
BRANCH  13  15
ATOM     15  C   UNL     1       1.359   9.196  17.836  0.00  0.00    +0.000 C 
BRANCH  15  16
ATOM     16  C   UNL     1       0.540   9.928  18.876  0.00  0.00    +0.000 A 
ATOM     17  C   UNL     1      -0.237  11.030  18.535  0.00  0.00    +0.000 A 
ATOM     18  C   UNL     1      -0.928  11.745  19.518  0.00  0.00    +0.000 A 
ATOM     19  C   UNL     1      -0.873  11.384  20.871  0.00  0.00    +0.000 A 
ATOM     20  C   UNL     1      -0.144  10.226  21.197  0.00  0.00    +0.000 A 
ATOM     21  C   UNL     1       0.545   9.508  20.217  0.00  0.00    +0.000 A 
BRANCH  19  22
ATOM     22  C   UNL     1      -1.535  12.227  21.981  0.00  0.00    +0.000 C 
ATOM     23  C   UNL     1      -0.674  13.440  22.406  0.00  0.00    +0.000 C 
ATOM     24  C   UNL     1      -2.902  12.764  21.514  0.00  0.00    +0.000 C 
ATOM     25  C   UNL     1      -1.747  11.363  23.245  0.00  0.00    +0.000 C 
ENDBRANCH  19  22
ENDBRANCH  15  16
ENDBRANCH  13  15
ENDBRANCH   3  13
BRANCH   1  26
ATOM     26  O   UNL     1       5.160   5.565  16.127  0.00  0.00    +0.000 OA
BRANCH  26  27
ATOM     27  C   UNL     1       6.033   4.412  16.114  0.00  0.00    +0.000 C 
BRANCH  27  29
ATOM     28  C   UNL     1       7.139   4.741  13.796  0.00  0.00    +0.000 C 
ATOM     29  C   UNL     1       6.107   3.991  14.631  0.00  0.00    +0.000 C 
ENDBRANCH  27  29
BRANCH  27  30
ATOM     30  C   UNL     1       7.440   4.754  16.652  0.00  0.00    +0.000 C 
BRANCH  30  31
ATOM     31  O   UNL     1       7.801   3.997  17.803  0.00  0.00    +0.000 OA
ATOM     32  H   UNL     1       8.191   3.163  17.479  0.00  0.00    +0.000 HD
ENDBRANCH  30  31
ENDBRANCH  27  30
ENDBRANCH  26  27
ENDBRANCH   1  26
TORSDOF 10
ENDMDL
MODEL 2
REMARK VINA RESULT:      -7.5      1.422      2.117
REMARK  Name = 
REMARK  16 active torsions:
REMARK  status: ('A' for Active; 'I' for Inactive)
REMARK    1  A    between atoms: C_1  and  C_2
REMARK    2  A    between atoms: C_2  and  C_3
REMARK    3  A    between atoms: C_3  and  C_4
REMARK    4  A    between atoms: C_3  and  O_6
REMARK    5  A    between atoms: C_4  and  O_5
REMARK    6  A    between atoms: O_6  and  C_7
REMARK    7  A    between atoms: C_9  and  N_10
REMARK    8  A    between atoms: N_10  and  C_11
REMARK    9  A    between atoms: C_11  and  C_12
REMARK   10  A    between atoms: C_15  and  C_16
REMARK   11  A    between atoms: C_16  and  C_17
REMARK   12  A    between atoms: C_16  and  C_18
REMARK   13  A    between atoms: C_16  and  C_19
REMARK   14  A    between atoms: N_25  and  C_26
REMARK   15  A    between atoms: C_26  and  C_27
REMARK   16  A    between atoms: C_26  and  C_28
REMARK                            x       y       z     vdW  Elec       q    Type
REMARK                         _______ _______ _______ _____ _____    ______ ____
ROOT
ATOM      1  C   UNL     1       4.167   6.241  17.820  0.00  0.00    +0.000 A 
ATOM      2  C   UNL     1       3.319   7.246  18.298  0.00  0.00    +0.000 A 
ATOM      3  C   UNL     1       2.374   7.013  19.319  0.00  0.00    +0.000 A 
ATOM      4  C   UNL     1       2.223   5.676  19.757  0.00  0.00    +0.000 A 
ATOM      5  N   UNL     1       1.360   5.150  20.697  0.00  0.00    +0.000 NA
ATOM      6  C   UNL     1       1.600   3.860  20.710  0.00  0.00    +0.000 A 
ATOM      7  N   UNL     1       2.598   3.518  19.839  0.00  0.00    +0.000 N 
ATOM      8  C   UNL     1       3.012   4.667  19.201  0.00  0.00    +0.000 A 
ATOM      9  C   UNL     1       3.996   4.919  18.232  0.00  0.00    +0.000 A 
ENDROOT
BRANCH   7  10
ATOM     10  C   UNL     1       3.101   2.168  19.617  0.00  0.00    +0.000 C 
ATOM     11  C   UNL     1       3.096   1.787  18.137  0.00  0.00    +0.000 C 
ATOM     12  C   UNL     1       4.488   1.984  20.234  0.00  0.00    +0.000 C 
ENDBRANCH   7  10
BRANCH   3  13
ATOM     13  N   UNL     1       1.708   8.138  19.838  0.00  0.00    +0.000 N 
ATOM     14  H   UNL     1       0.826   8.304  19.356  0.00  0.00    +0.000 HD
BRANCH  13  15
ATOM     15  C   UNL     1       1.586   8.244  21.288  0.00  0.00    +0.000 C 
BRANCH  15  16
ATOM     16  C   UNL     1       0.564   9.318  21.590  0.00  0.00    +0.000 A 
ATOM     17  C   UNL     1       0.203  10.257  20.630  0.00  0.00    +0.000 A 
ATOM     18  C   UNL     1      -0.684  11.291  20.945  0.00  0.00    +0.000 A 
ATOM     19  C   UNL     1      -1.244  11.422  22.223  0.00  0.00    +0.000 A 
ATOM     20  C   UNL     1      -0.930  10.427  23.166  0.00  0.00    +0.000 A 
ATOM     21  C   UNL     1      -0.047   9.391  22.853  0.00  0.00    +0.000 A 
BRANCH  19  22
ATOM     22  C   UNL     1      -2.132  12.619  22.620  0.00  0.00    +0.000 C 
ATOM     23  C   UNL     1      -3.235  12.235  23.634  0.00  0.00    +0.000 C 
ATOM     24  C   UNL     1      -1.285  13.740  23.253  0.00  0.00    +0.000 C 
ATOM     25  C   UNL     1      -2.848  13.184  21.372  0.00  0.00    +0.000 C 
ENDBRANCH  19  22
ENDBRANCH  15  16
ENDBRANCH  13  15
ENDBRANCH   3  13
BRANCH   1  26
ATOM     26  O   UNL     1       5.163   6.684  16.992  0.00  0.00    +0.000 OA
BRANCH  26  27
ATOM     27  C   UNL     1       6.512   6.196  17.173  0.00  0.00    +0.000 C 
BRANCH  27  29
ATOM     28  C   UNL     1       6.079   4.493  15.271  0.00  0.00    +0.000 C 
ATOM     29  C   UNL     1       6.923   5.652  15.789  0.00  0.00    +0.000 C 
ENDBRANCH  27  29
BRANCH  27  30
ATOM     30  C   UNL     1       7.472   7.320  17.620  0.00  0.00    +0.000 C 
BRANCH  30  31
ATOM     31  O   UNL     1       8.257   6.971  18.756  0.00  0.00    +0.000 OA
ATOM     32  H   UNL     1       7.638   6.637  19.433  0.00  0.00    +0.000 HD
ENDBRANCH  30  31
ENDBRANCH  27  30
ENDBRANCH  26  27
ENDBRANCH   1  26
TORSDOF 10
ENDMDL
MODEL 3
REMARK VINA RESULT:      -7.5      0.494      1.156
REMARK  Name = 
REMARK  16 active torsions:
REMARK  status: ('A' for Active; 'I' for Inactive)
REMARK    1  A    between atoms: C_1  and  C_2
REMARK    2  A    between atoms: C_2  and  C_3
REMARK    3  A    between atoms: C_3  and  C_4
REMARK    4  A    between atoms: C_3  and  O_6
REMARK    5  A    between atoms: C_4  and  O_5
REMARK    6  A    between atoms: O_6  and  C_7
REMARK    7  A    between atoms: C_9  and  N_10
REMARK    8  A    between atoms: N_10  and  C_11
REMARK    9  A    between atoms: C_11  and  C_12
REMARK   10  A    between atoms: C_15  and  C_16
REMARK   11  A    between atoms: C_16  and  C_17
REMARK   12  A    between atoms: C_16  and  C_18
REMARK   13  A    between atoms: C_16  and  C_19
REMARK   14  A    between atoms: N_25  and  C_26
REMARK   15  A    between atoms: C_26  and  C_27
REMARK   16  A    between atoms: C_26  and  C_28
REMARK                            x       y       z     vdW  Elec       q    Type
REMARK                         _______ _______ _______ _____ _____    ______ ____
ROOT
ATOM      1  C   UNL     1       4.255   5.592  17.082  0.00  0.00    +0.000 A 
ATOM      2  C   UNL     1       3.716   6.871  17.252  0.00  0.00    +0.000 A 
ATOM      3  C   UNL     1       2.923   7.214  18.367  0.00  0.00    +0.000 A 
ATOM      4  C   UNL     1       2.581   6.166  19.254  0.00  0.00    +0.000 A 
ATOM      5  N   UNL     1       1.796   6.193  20.390  0.00  0.00    +0.000 NA
ATOM      6  C   UNL     1       1.772   4.958  20.830  0.00  0.00    +0.000 A 
ATOM      7  N   UNL     1       2.525   4.123  20.050  0.00  0.00    +0.000 N 
ATOM      8  C   UNL     1       3.050   4.872  19.019  0.00  0.00    +0.000 A 
ATOM      9  C   UNL     1       3.894   4.554  17.942  0.00  0.00    +0.000 A 
ENDROOT
BRANCH   7  10
ATOM     10  C   UNL     1       2.705   2.694  20.268  0.00  0.00    +0.000 C 
ATOM     11  C   UNL     1       1.949   1.854  19.239  0.00  0.00    +0.000 C 
ATOM     12  C   UNL     1       4.187   2.320  20.311  0.00  0.00    +0.000 C 
ENDBRANCH   7  10
BRANCH   3  13
ATOM     13  N   UNL     1       2.590   8.572  18.519  0.00  0.00    +0.000 N 
ATOM     14  H   UNL     1       3.404   9.171  18.393  0.00  0.00    +0.000 HD
BRANCH  13  15
ATOM     15  C   UNL     1       1.412   9.065  17.813  0.00  0.00    +0.000 C 
BRANCH  15  16
ATOM     16  C   UNL     1       0.563   9.829  18.805  0.00  0.00    +0.000 A 
ATOM     17  C   UNL     1      -0.504  10.615  18.384  0.00  0.00    +0.000 A 
ATOM     18  C   UNL     1      -1.232  11.377  19.303  0.00  0.00    +0.000 A 
ATOM     19  C   UNL     1      -0.925  11.379  20.671  0.00  0.00    +0.000 A 
ATOM     20  C   UNL     1       0.109  10.525  21.098  0.00  0.00    +0.000 A 
ATOM     21  C   UNL     1       0.836   9.760  20.182  0.00  0.00    +0.000 A 
BRANCH  19  22
ATOM     22  C   UNL     1      -1.642  12.299  21.680  0.00  0.00    +0.000 C 
ATOM     23  C   UNL     1      -3.094  12.631  21.260  0.00  0.00    +0.000 C 
ATOM     24  C   UNL     1      -1.696  11.642  23.073  0.00  0.00    +0.000 C 
ATOM     25  C   UNL     1      -0.891  13.645  21.796  0.00  0.00    +0.000 C 
ENDBRANCH  19  22
ENDBRANCH  15  16
ENDBRANCH  13  15
ENDBRANCH   3  13
BRANCH   1  26
ATOM     26  O   UNL     1       5.171   5.491  16.069  0.00  0.00    +0.000 OA
BRANCH  26  27
ATOM     27  C   UNL     1       6.204   4.483  16.139  0.00  0.00    +0.000 C 
BRANCH  27  29
ATOM     28  C   UNL     1       5.580   4.034  13.667  0.00  0.00    +0.000 C 
ATOM     29  C   UNL     1       6.683   4.307  14.683  0.00  0.00    +0.000 C 
ENDBRANCH  27  29
BRANCH  27  30
ATOM     30  C   UNL     1       7.375   4.925  17.045  0.00  0.00    +0.000 C 
BRANCH  30  31
ATOM     31  O   UNL     1       7.472   4.170  18.248  0.00  0.00    +0.000 OA
ATOM     32  H   UNL     1       8.392   4.259  18.562  0.00  0.00    +0.000 HD
ENDBRANCH  30  31
ENDBRANCH  27  30
ENDBRANCH  26  27
ENDBRANCH   1  26
TORSDOF 10
ENDMDL
MODEL 4
REMARK VINA RESULT:      -7.5      0.828      1.491
REMARK  Name = 
REMARK  16 active torsions:
REMARK  status: ('A' for Active; 'I' for Inactive)
REMARK    1  A    between atoms: C_1  and  C_2
REMARK    2  A    between atoms: C_2  and  C_3
REMARK    3  A    between atoms: C_3  and  C_4
REMARK    4  A    between atoms: C_3  and  O_6
REMARK    5  A    between atoms: C_4  and  O_5
REMARK    6  A    between atoms: O_6  and  C_7
REMARK    7  A    between atoms: C_9  and  N_10
REMARK    8  A    between atoms: N_10  and  C_11
REMARK    9  A    between atoms: C_11  and  C_12
REMARK   10  A    between atoms: C_15  and  C_16
REMARK   11  A    between atoms: C_16  and  C_17
REMARK   12  A    between atoms: C_16  and  C_18
REMARK   13  A    between atoms: C_16  and  C_19
REMARK   14  A    between atoms: N_25  and  C_26
REMARK   15  A    between atoms: C_26  and  C_27
REMARK   16  A    between atoms: C_26  and  C_28
REMARK                            x       y       z     vdW  Elec       q    Type
REMARK                         _______ _______ _______ _____ _____    ______ ____
ROOT
ATOM      1  C   UNL     1       4.393   5.916  16.989  0.00  0.00    +0.000 A 
ATOM      2  C   UNL     1       3.784   7.170  17.100  0.00  0.00    +0.000 A 
ATOM      3  C   UNL     1       2.932   7.503  18.174  0.00  0.00    +0.000 A 
ATOM      4  C   UNL     1       2.608   6.463  19.078  0.00  0.00    +0.000 A 
ATOM      5  N   UNL     1       1.778   6.482  20.181  0.00  0.00    +0.000 NA
ATOM      6  C   UNL     1       1.798   5.260  20.656  0.00  0.00    +0.000 A 
ATOM      7  N   UNL     1       2.622   4.444  19.931  0.00  0.00    +0.000 N 
ATOM      8  C   UNL     1       3.150   5.190  18.899  0.00  0.00    +0.000 A 
ATOM      9  C   UNL     1       4.050   4.885  17.865  0.00  0.00    +0.000 A 
ENDROOT
BRANCH   7  10
ATOM     10  C   UNL     1       2.864   3.031  20.198  0.00  0.00    +0.000 C 
ATOM     11  C   UNL     1       2.499   2.646  21.631  0.00  0.00    +0.000 C 
ATOM     12  C   UNL     1       2.147   2.143  19.182  0.00  0.00    +0.000 C 
ENDBRANCH   7  10
BRANCH   3  13
ATOM     13  N   UNL     1       2.525   8.846  18.272  0.00  0.00    +0.000 N 
ATOM     14  H   UNL     1       3.236   9.477  17.907  0.00  0.00    +0.000 HD
BRANCH  13  15
ATOM     15  C   UNL     1       1.182   9.184  17.815  0.00  0.00    +0.000 C 
BRANCH  15  16
ATOM     16  C   UNL     1       0.535  10.047  18.875  0.00  0.00    +0.000 A 
ATOM     17  C   UNL     1       1.111  10.196  20.132  0.00  0.00    +0.000 A 
ATOM     18  C   UNL     1       0.464  10.934  21.128  0.00  0.00    +0.000 A 
ATOM     19  C   UNL     1      -0.775  11.550  20.905  0.00  0.00    +0.000 A 
ATOM     20  C   UNL     1      -1.315  11.456  19.609  0.00  0.00    +0.000 A 
ATOM     21  C   UNL     1      -0.669  10.722  18.611  0.00  0.00    +0.000 A 
BRANCH  19  22
ATOM     22  C   UNL     1      -1.556  12.270  22.024  0.00  0.00    +0.000 C 
ATOM     23  C   UNL     1      -0.823  13.525  22.553  0.00  0.00    +0.000 C 
ATOM     24  C   UNL     1      -2.942  12.716  21.520  0.00  0.00    +0.000 C 
ATOM     25  C   UNL     1      -1.748  11.322  23.229  0.00  0.00    +0.000 C 
ENDBRANCH  19  22
ENDBRANCH  15  16
ENDBRANCH  13  15
ENDBRANCH   3  13
BRANCH   1  26
ATOM     26  O   UNL     1       5.352   5.834  16.015  0.00  0.00    +0.000 OA
BRANCH  26  27
ATOM     27  C   UNL     1       6.747   5.761  16.391  0.00  0.00    +0.000 C 
BRANCH  27  29
ATOM     28  C   UNL     1       7.749   7.762  17.692  0.00  0.00    +0.000 C 
ATOM     29  C   UNL     1       6.839   6.540  17.720  0.00  0.00    +0.000 C 
ENDBRANCH  27  29
BRANCH  27  30
ATOM     30  C   UNL     1       7.211   4.301  16.586  0.00  0.00    +0.000 C 
BRANCH  30  31
ATOM     31  O   UNL     1       8.141   4.144  17.653  0.00  0.00    +0.000 OA
ATOM     32  H   UNL     1       8.617   4.991  17.737  0.00  0.00    +0.000 HD
ENDBRANCH  30  31
ENDBRANCH  27  30
ENDBRANCH  26  27
ENDBRANCH   1  26
TORSDOF 10
ENDMDL
MODEL 5
REMARK VINA RESULT:      -7.5      5.052      8.075
REMARK  Name = 
REMARK  16 active torsions:
REMARK  status: ('A' for Active; 'I' for Inactive)
REMARK    1  A    between atoms: C_1  and  C_2
REMARK    2  A    between atoms: C_2  and  C_3
REMARK    3  A    between atoms: C_3  and  C_4
REMARK    4  A    between atoms: C_3  and  O_6
REMARK    5  A    between atoms: C_4  and  O_5
REMARK    6  A    between atoms: O_6  and  C_7
REMARK    7  A    between atoms: C_9  and  N_10
REMARK    8  A    between atoms: N_10  and  C_11
REMARK    9  A    between atoms: C_11  and  C_12
REMARK   10  A    between atoms: C_15  and  C_16
REMARK   11  A    between atoms: C_16  and  C_17
REMARK   12  A    between atoms: C_16  and  C_18
REMARK   13  A    between atoms: C_16  and  C_19
REMARK   14  A    between atoms: N_25  and  C_26
REMARK   15  A    between atoms: C_26  and  C_27
REMARK   16  A    between atoms: C_26  and  C_28
REMARK                            x       y       z     vdW  Elec       q    Type
REMARK                         _______ _______ _______ _____ _____    ______ ____
ROOT
ATOM      1  C   UNL     1       5.169   4.244  16.793  0.00  0.00    +0.000 A 
ATOM      2  C   UNL     1       6.105   5.219  17.149  0.00  0.00    +0.000 A 
ATOM      3  C   UNL     1       6.998   5.786  16.214  0.00  0.00    +0.000 A 
ATOM      4  C   UNL     1       6.998   5.230  14.913  0.00  0.00    +0.000 A 
ATOM      5  N   UNL     1       7.778   5.547  13.820  0.00  0.00    +0.000 NA
ATOM      6  C   UNL     1       7.405   4.722  12.870  0.00  0.00    +0.000 A 
ATOM      7  N   UNL     1       6.397   3.893  13.282  0.00  0.00    +0.000 N 
ATOM      8  C   UNL     1       6.121   4.190  14.600  0.00  0.00    +0.000 A 
ATOM      9  C   UNL     1       5.190   3.677  15.518  0.00  0.00    +0.000 A 
ENDROOT
BRANCH   7  10
ATOM     10  C   UNL     1       5.761   2.866  12.468  0.00  0.00    +0.000 C 
ATOM     11  C   UNL     1       4.556   3.405  11.698  0.00  0.00    +0.000 C 
ATOM     12  C   UNL     1       6.767   2.198  11.530  0.00  0.00    +0.000 C 
ENDBRANCH   7  10
BRANCH   3  13
ATOM     13  N   UNL     1       7.765   6.881  16.649  0.00  0.00    +0.000 N 
ATOM     14  H   UNL     1       7.604   7.702  16.068  0.00  0.00    +0.000 HD
BRANCH  13  15
ATOM     15  C   UNL     1       7.761   7.190  18.075  0.00  0.00    +0.000 C 
BRANCH  15  16
ATOM     16  C   UNL     1       8.186   8.632  18.238  0.00  0.00    +0.000 A 
ATOM     17  C   UNL     1       7.716   9.622  17.382  0.00  0.00    +0.000 A 
ATOM     18  C   UNL     1       8.177  10.937  17.496  0.00  0.00    +0.000 A 
ATOM     19  C   UNL     1       9.116  11.311  18.467  0.00  0.00    +0.000 A 
ATOM     20  C   UNL     1       9.530  10.320  19.374  0.00  0.00    +0.000 A 
ATOM     21  C   UNL     1       9.069   9.006  19.266  0.00  0.00    +0.000 A 
BRANCH  19  22
ATOM     22  C   UNL     1       9.720  12.729  18.533  0.00  0.00    +0.000 C 
ATOM     23  C   UNL     1      10.493  12.990  19.847  0.00  0.00    +0.000 C 
ATOM     24  C   UNL     1      10.695  12.961  17.362  0.00  0.00    +0.000 C 
ATOM     25  C   UNL     1       8.595  13.787  18.456  0.00  0.00    +0.000 C 
ENDBRANCH  19  22
ENDBRANCH  15  16
ENDBRANCH  13  15
ENDBRANCH   3  13
BRANCH   1  26
ATOM     26  O   UNL     1       4.244   3.963  17.762  0.00  0.00    +0.000 OA
BRANCH  26  27
ATOM     27  C   UNL     1       3.071   4.798  17.894  0.00  0.00    +0.000 C 
BRANCH  27  29
ATOM     28  C   UNL     1       2.267   2.338  17.845  0.00  0.00    +0.000 C 
ATOM     29  C   UNL     1       1.889   3.809  17.973  0.00  0.00    +0.000 C 
ENDBRANCH  27  29
BRANCH  27  30
ATOM     30  C   UNL     1       3.131   5.674  19.165  0.00  0.00    +0.000 C 
BRANCH  30  31
ATOM     31  O   UNL     1       1.995   5.518  20.010  0.00  0.00    +0.000 OA
ATOM     32  H   UNL     1       1.210   5.703  19.460  0.00  0.00    +0.000 HD
ENDBRANCH  30  31
ENDBRANCH  27  30
ENDBRANCH  26  27
ENDBRANCH   1  26
TORSDOF 10
ENDMDL
MODEL 6
REMARK VINA RESULT:      -7.5      5.272      8.099
REMARK  Name = 
REMARK  16 active torsions:
REMARK  status: ('A' for Active; 'I' for Inactive)
REMARK    1  A    between atoms: C_1  and  C_2
REMARK    2  A    between atoms: C_2  and  C_3
REMARK    3  A    between atoms: C_3  and  C_4
REMARK    4  A    between atoms: C_3  and  O_6
REMARK    5  A    between atoms: C_4  and  O_5
REMARK    6  A    between atoms: O_6  and  C_7
REMARK    7  A    between atoms: C_9  and  N_10
REMARK    8  A    between atoms: N_10  and  C_11
REMARK    9  A    between atoms: C_11  and  C_12
REMARK   10  A    between atoms: C_15  and  C_16
REMARK   11  A    between atoms: C_16  and  C_17
REMARK   12  A    between atoms: C_16  and  C_18
REMARK   13  A    between atoms: C_16  and  C_19
REMARK   14  A    between atoms: N_25  and  C_26
REMARK   15  A    between atoms: C_26  and  C_27
REMARK   16  A    between atoms: C_26  and  C_28
REMARK                            x       y       z     vdW  Elec       q    Type
REMARK                         _______ _______ _______ _____ _____    ______ ____
ROOT
ATOM      1  C   UNL     1       5.222   4.213  16.737  0.00  0.00    +0.000 A 
ATOM      2  C   UNL     1       6.112   5.231  17.094  0.00  0.00    +0.000 A 
ATOM      3  C   UNL     1       6.985   5.832  16.163  0.00  0.00    +0.000 A 
ATOM      4  C   UNL     1       7.019   5.270  14.865  0.00  0.00    +0.000 A 
ATOM      5  N   UNL     1       7.792   5.616  13.775  0.00  0.00    +0.000 NA
ATOM      6  C   UNL     1       7.462   4.771  12.828  0.00  0.00    +0.000 A 
ATOM      7  N   UNL     1       6.490   3.901  13.236  0.00  0.00    +0.000 N 
ATOM      8  C   UNL     1       6.191   4.191  14.550  0.00  0.00    +0.000 A 
ATOM      9  C   UNL     1       5.277   3.642  15.465  0.00  0.00    +0.000 A 
ENDROOT
BRANCH   7  10
ATOM     10  C   UNL     1       5.905   2.842  12.423  0.00  0.00    +0.000 C 
ATOM     11  C   UNL     1       4.637   3.302  11.703  0.00  0.00    +0.000 C 
ATOM     12  C   UNL     1       6.926   2.269  11.440  0.00  0.00    +0.000 C 
ENDBRANCH   7  10
BRANCH   3  13
ATOM     13  N   UNL     1       7.700   6.962  16.598  0.00  0.00    +0.000 N 
ATOM     14  H   UNL     1       7.424   7.797  16.085  0.00  0.00    +0.000 HD
BRANCH  13  15
ATOM     15  C   UNL     1       7.799   7.190  18.036  0.00  0.00    +0.000 C 
BRANCH  15  16
ATOM     16  C   UNL     1       8.220   8.628  18.248  0.00  0.00    +0.000 A 
ATOM     17  C   UNL     1       7.804   9.635  17.384  0.00  0.00    +0.000 A 
ATOM     18  C   UNL     1       8.263  10.945  17.546  0.00  0.00    +0.000 A 
ATOM     19  C   UNL     1       9.146  11.298  18.575  0.00  0.00    +0.000 A 
ATOM     20  C   UNL     1       9.503  10.290  19.488  0.00  0.00    +0.000 A 
ATOM     21  C   UNL     1       9.044   8.980  19.330  0.00  0.00    +0.000 A 
BRANCH  19  22
ATOM     22  C   UNL     1       9.750  12.712  18.700  0.00  0.00    +0.000 C 
ATOM     23  C   UNL     1       8.826  13.811  18.126  0.00  0.00    +0.000 C 
ATOM     24  C   UNL     1      10.026  13.058  20.177  0.00  0.00    +0.000 C 
ATOM     25  C   UNL     1      11.080  12.790  17.917  0.00  0.00    +0.000 C 
ENDBRANCH  19  22
ENDBRANCH  15  16
ENDBRANCH  13  15
ENDBRANCH   3  13
BRANCH   1  26
ATOM     26  O   UNL     1       4.303   3.896  17.701  0.00  0.00    +0.000 OA
BRANCH  26  27
ATOM     27  C   UNL     1       2.897   3.865  17.365  0.00  0.00    +0.000 C 
BRANCH  27  29
ATOM     28  C   UNL     1       3.469   1.552  18.378  0.00  0.00    +0.000 C 
ATOM     29  C   UNL     1       2.383   2.528  17.941  0.00  0.00    +0.000 C 
ENDBRANCH  27  29
BRANCH  27  30
ATOM     30  C   UNL     1       2.133   5.053  17.990  0.00  0.00    +0.000 C 
BRANCH  30  31
ATOM     31  O   UNL     1       1.981   4.944  19.402  0.00  0.00    +0.000 OA
ATOM     32  H   UNL     1       2.860   5.108  19.792  0.00  0.00    +0.000 HD
ENDBRANCH  30  31
ENDBRANCH  27  30
ENDBRANCH  26  27
ENDBRANCH   1  26
TORSDOF 10
ENDMDL
MODEL 7
REMARK VINA RESULT:      -7.5      0.722      1.377
REMARK  Name = 
REMARK  16 active torsions:
REMARK  status: ('A' for Active; 'I' for Inactive)
REMARK    1  A    between atoms: C_1  and  C_2
REMARK    2  A    between atoms: C_2  and  C_3
REMARK    3  A    between atoms: C_3  and  C_4
REMARK    4  A    between atoms: C_3  and  O_6
REMARK    5  A    between atoms: C_4  and  O_5
REMARK    6  A    between atoms: O_6  and  C_7
REMARK    7  A    between atoms: C_9  and  N_10
REMARK    8  A    between atoms: N_10  and  C_11
REMARK    9  A    between atoms: C_11  and  C_12
REMARK   10  A    between atoms: C_15  and  C_16
REMARK   11  A    between atoms: C_16  and  C_17
REMARK   12  A    between atoms: C_16  and  C_18
REMARK   13  A    between atoms: C_16  and  C_19
REMARK   14  A    between atoms: N_25  and  C_26
REMARK   15  A    between atoms: C_26  and  C_27
REMARK   16  A    between atoms: C_26  and  C_28
REMARK                            x       y       z     vdW  Elec       q    Type
REMARK                         _______ _______ _______ _____ _____    ______ ____
ROOT
ATOM      1  C   UNL     1       4.125   6.013  17.126  0.00  0.00    +0.000 A 
ATOM      2  C   UNL     1       3.546   7.274  17.295  0.00  0.00    +0.000 A 
ATOM      3  C   UNL     1       2.735   7.590  18.406  0.00  0.00    +0.000 A 
ATOM      4  C   UNL     1       2.419   6.530  19.288  0.00  0.00    +0.000 A 
ATOM      5  N   UNL     1       1.627   6.530  20.418  0.00  0.00    +0.000 NA
ATOM      6  C   UNL     1       1.637   5.293  20.855  0.00  0.00    +0.000 A 
ATOM      7  N   UNL     1       2.421   4.484  20.078  0.00  0.00    +0.000 N 
ATOM      8  C   UNL     1       2.930   5.252  19.053  0.00  0.00    +0.000 A 
ATOM      9  C   UNL     1       3.790   4.962  17.981  0.00  0.00    +0.000 A 
ENDROOT
BRANCH   7  10
ATOM     10  C   UNL     1       2.643   3.060  20.295  0.00  0.00    +0.000 C 
ATOM     11  C   UNL     1       2.381   2.650  21.744  0.00  0.00    +0.000 C 
ATOM     12  C   UNL     1       1.823   2.215  19.321  0.00  0.00    +0.000 C 
ENDBRANCH   7  10
BRANCH   3  13
ATOM     13  N   UNL     1       2.359   8.936  18.558  0.00  0.00    +0.000 N 
ATOM     14  H   UNL     1       3.131   9.565  18.343  0.00  0.00    +0.000 HD
BRANCH  13  15
ATOM     15  C   UNL     1       1.101   9.363  17.954  0.00  0.00    +0.000 C 
BRANCH  15  16
ATOM     16  C   UNL     1       0.375  10.230  18.959  0.00  0.00    +0.000 A 
ATOM     17  C   UNL     1       0.743  10.239  20.300  0.00  0.00    +0.000 A 
ATOM     18  C   UNL     1       0.015  10.985  21.232  0.00  0.00    +0.000 A 
ATOM     19  C   UNL     1      -1.099  11.750  20.860  0.00  0.00    +0.000 A 
ATOM     20  C   UNL     1      -1.419  11.793  19.491  0.00  0.00    +0.000 A 
ATOM     21  C   UNL     1      -0.692  11.051  18.557  0.00  0.00    +0.000 A 
BRANCH  19  22
ATOM     22  C   UNL     1      -1.979  12.487  21.890  0.00  0.00    +0.000 C 
ATOM     23  C   UNL     1      -3.419  12.731  21.380  0.00  0.00    +0.000 C 
ATOM     24  C   UNL     1      -2.078  11.679  23.199  0.00  0.00    +0.000 C 
ATOM     25  C   UNL     1      -1.375  13.873  22.208  0.00  0.00    +0.000 C 
ENDBRANCH  19  22
ENDBRANCH  15  16
ENDBRANCH  13  15
ENDBRANCH   3  13
BRANCH   1  26
ATOM     26  O   UNL     1       5.050   5.943  16.119  0.00  0.00    +0.000 OA
BRANCH  26  27
ATOM     27  C   UNL     1       5.667   4.673  15.804  0.00  0.00    +0.000 C 
BRANCH  27  29
ATOM     28  C   UNL     1       6.364   3.849  13.451  0.00  0.00    +0.000 C 
ATOM     29  C   UNL     1       5.253   4.385  14.345  0.00  0.00    +0.000 C 
ENDBRANCH  27  29
BRANCH  27  30
ATOM     30  C   UNL     1       7.206   4.738  15.928  0.00  0.00    +0.000 C 
BRANCH  30  31
ATOM     31  O   UNL     1       7.712   6.069  15.955  0.00  0.00    +0.000 OA
ATOM     32  H   UNL     1       8.494   6.060  16.538  0.00  0.00    +0.000 HD
ENDBRANCH  30  31
ENDBRANCH  27  30
ENDBRANCH  26  27
ENDBRANCH   1  26
TORSDOF 10
ENDMDL
MODEL 8
REMARK VINA RESULT:      -7.4      1.446      2.104
REMARK  Name = 
REMARK  16 active torsions:
REMARK  status: ('A' for Active; 'I' for Inactive)
REMARK    1  A    between atoms: C_1  and  C_2
REMARK    2  A    between atoms: C_2  and  C_3
REMARK    3  A    between atoms: C_3  and  C_4
REMARK    4  A    between atoms: C_3  and  O_6
REMARK    5  A    between atoms: C_4  and  O_5
REMARK    6  A    between atoms: O_6  and  C_7
REMARK    7  A    between atoms: C_9  and  N_10
REMARK    8  A    between atoms: N_10  and  C_11
REMARK    9  A    between atoms: C_11  and  C_12
REMARK   10  A    between atoms: C_15  and  C_16
REMARK   11  A    between atoms: C_16  and  C_17
REMARK   12  A    between atoms: C_16  and  C_18
REMARK   13  A    between atoms: C_16  and  C_19
REMARK   14  A    between atoms: N_25  and  C_26
REMARK   15  A    between atoms: C_26  and  C_27
REMARK   16  A    between atoms: C_26  and  C_28
REMARK                            x       y       z     vdW  Elec       q    Type
REMARK                         _______ _______ _______ _____ _____    ______ ____
ROOT
ATOM      1  C   UNL     1       4.086   6.267  17.762  0.00  0.00    +0.000 A 
ATOM      2  C   UNL     1       3.253   7.264  18.279  0.00  0.00    +0.000 A 
ATOM      3  C   UNL     1       2.351   7.022  19.337  0.00  0.00    +0.000 A 
ATOM      4  C   UNL     1       2.226   5.682  19.775  0.00  0.00    +0.000 A 
ATOM      5  N   UNL     1       1.406   5.146  20.747  0.00  0.00    +0.000 NA
ATOM      6  C   UNL     1       1.654   3.858  20.745  0.00  0.00    +0.000 A 
ATOM      7  N   UNL     1       2.616   3.525  19.832  0.00  0.00    +0.000 N 
ATOM      8  C   UNL     1       2.997   4.680  19.183  0.00  0.00    +0.000 A 
ATOM      9  C   UNL     1       3.940   4.942  18.175  0.00  0.00    +0.000 A 
ENDROOT
BRANCH   7  10
ATOM     10  C   UNL     1       3.118   2.179  19.583  0.00  0.00    +0.000 C 
ATOM     11  C   UNL     1       3.052   1.804  18.103  0.00  0.00    +0.000 C 
ATOM     12  C   UNL     1       4.531   2.001  20.140  0.00  0.00    +0.000 C 
ENDBRANCH   7  10
BRANCH   3  13
ATOM     13  N   UNL     1       1.701   8.140  19.889  0.00  0.00    +0.000 N 
ATOM     14  H   UNL     1       0.831   8.343  19.399  0.00  0.00    +0.000 HD
BRANCH  13  15
ATOM     15  C   UNL     1       1.558   8.194  21.339  0.00  0.00    +0.000 C 
BRANCH  15  16
ATOM     16  C   UNL     1       0.690   9.387  21.675  0.00  0.00    +0.000 A 
ATOM     17  C   UNL     1      -0.071   9.419  22.839  0.00  0.00    +0.000 A 
ATOM     18  C   UNL     1      -0.928  10.492  23.098  0.00  0.00    +0.000 A 
ATOM     19  C   UNL     1      -1.053  11.571  22.212  0.00  0.00    +0.000 A 
ATOM     20  C   UNL     1      -0.226  11.565  21.075  0.00  0.00    +0.000 A 
ATOM     21  C   UNL     1       0.633  10.496  20.814  0.00  0.00    +0.000 A 
BRANCH  19  22
ATOM     22  C   UNL     1      -2.076  12.705  22.427  0.00  0.00    +0.000 C 
ATOM     23  C   UNL     1      -1.429  13.999  22.975  0.00  0.00    +0.000 C 
ATOM     24  C   UNL     1      -2.782  13.059  21.104  0.00  0.00    +0.000 C 
ATOM     25  C   UNL     1      -3.144  12.268  23.456  0.00  0.00    +0.000 C 
ENDBRANCH  19  22
ENDBRANCH  15  16
ENDBRANCH  13  15
ENDBRANCH   3  13
BRANCH   1  26
ATOM     26  O   UNL     1       5.044   6.719  16.896  0.00  0.00    +0.000 OA
BRANCH  26  27
ATOM     27  C   UNL     1       6.383   6.176  16.965  0.00  0.00    +0.000 C 
BRANCH  27  29
ATOM     28  C   UNL     1       6.082   4.182  15.340  0.00  0.00    +0.000 C 
ATOM     29  C   UNL     1       6.640   5.583  15.564  0.00  0.00    +0.000 C 
ENDBRANCH  27  29
BRANCH  27  30
ATOM     30  C   UNL     1       7.427   7.266  17.292  0.00  0.00    +0.000 C 
BRANCH  30  31
ATOM     31  O   UNL     1       8.100   7.048  18.528  0.00  0.00    +0.000 OA
ATOM     32  H   UNL     1       9.018   6.802  18.308  0.00  0.00    +0.000 HD
ENDBRANCH  30  31
ENDBRANCH  27  30
ENDBRANCH  26  27
ENDBRANCH   1  26
TORSDOF 10
ENDMDL
MODEL 9
REMARK VINA RESULT:      -7.4      0.950      1.336
REMARK  Name = 
REMARK  16 active torsions:
REMARK  status: ('A' for Active; 'I' for Inactive)
REMARK    1  A    between atoms: C_1  and  C_2
REMARK    2  A    between atoms: C_2  and  C_3
REMARK    3  A    between atoms: C_3  and  C_4
REMARK    4  A    between atoms: C_3  and  O_6
REMARK    5  A    between atoms: C_4  and  O_5
REMARK    6  A    between atoms: O_6  and  C_7
REMARK    7  A    between atoms: C_9  and  N_10
REMARK    8  A    between atoms: N_10  and  C_11
REMARK    9  A    between atoms: C_11  and  C_12
REMARK   10  A    between atoms: C_15  and  C_16
REMARK   11  A    between atoms: C_16  and  C_17
REMARK   12  A    between atoms: C_16  and  C_18
REMARK   13  A    between atoms: C_16  and  C_19
REMARK   14  A    between atoms: N_25  and  C_26
REMARK   15  A    between atoms: C_26  and  C_27
REMARK   16  A    between atoms: C_26  and  C_28
REMARK                            x       y       z     vdW  Elec       q    Type
REMARK                         _______ _______ _______ _____ _____    ______ ____
ROOT
ATOM      1  C   UNL     1       4.219   6.074  17.297  0.00  0.00    +0.000 A 
ATOM      2  C   UNL     1       3.574   7.303  17.467  0.00  0.00    +0.000 A 
ATOM      3  C   UNL     1       2.692   7.550  18.540  0.00  0.00    +0.000 A 
ATOM      4  C   UNL     1       2.380   6.451  19.376  0.00  0.00    +0.000 A 
ATOM      5  N   UNL     1       1.529   6.384  20.461  0.00  0.00    +0.000 NA
ATOM      6  C   UNL     1       1.574   5.137  20.866  0.00  0.00    +0.000 A 
ATOM      7  N   UNL     1       2.434   4.386  20.111  0.00  0.00    +0.000 N 
ATOM      8  C   UNL     1       2.961   5.205  19.135  0.00  0.00    +0.000 A 
ATOM      9  C   UNL     1       3.888   4.985  18.104  0.00  0.00    +0.000 A 
ENDROOT
BRANCH   7  10
ATOM     10  C   UNL     1       2.710   2.968  20.302  0.00  0.00    +0.000 C 
ATOM     11  C   UNL     1       2.415   2.510  21.730  0.00  0.00    +0.000 C 
ATOM     12  C   UNL     1       1.962   2.114  19.278  0.00  0.00    +0.000 C 
ENDBRANCH   7  10
BRANCH   3  13
ATOM     13  N   UNL     1       2.247   8.873  18.708  0.00  0.00    +0.000 N 
ATOM     14  H   UNL     1       3.028   9.526  18.747  0.00  0.00    +0.000 HD
BRANCH  13  15
ATOM     15  C   UNL     1       1.166   9.340  17.847  0.00  0.00    +0.000 C 
BRANCH  15  16
ATOM     16  C   UNL     1       0.202  10.133  18.701  0.00  0.00    +0.000 A 
ATOM     17  C   UNL     1      -1.006  10.593  18.187  0.00  0.00    +0.000 A 
ATOM     18  C   UNL     1      -1.851  11.390  18.964  0.00  0.00    +0.000 A 
ATOM     19  C   UNL     1      -1.526  11.752  20.278  0.00  0.00    +0.000 A 
ATOM     20  C   UNL     1      -0.339  11.222  20.815  0.00  0.00    +0.000 A 
ATOM     21  C   UNL     1       0.507  10.423  20.042  0.00  0.00    +0.000 A 
BRANCH  19  22
ATOM     22  C   UNL     1      -2.391  12.723  21.109  0.00  0.00    +0.000 C 
ATOM     23  C   UNL     1      -3.843  12.826  20.587  0.00  0.00    +0.000 C 
ATOM     24  C   UNL     1      -2.454  12.272  22.581  0.00  0.00    +0.000 C 
ATOM     25  C   UNL     1      -1.792  14.147  21.051  0.00  0.00    +0.000 C 
ENDBRANCH  19  22
ENDBRANCH  15  16
ENDBRANCH  13  15
ENDBRANCH   3  13
BRANCH   1  26
ATOM     26  O   UNL     1       5.198   6.074  16.340  0.00  0.00    +0.000 OA
BRANCH  26  27
ATOM     27  C   UNL     1       6.515   5.572  16.665  0.00  0.00    +0.000 C 
BRANCH  27  29
ATOM     28  C   UNL     1       6.001   4.242  14.504  0.00  0.00    +0.000 C 
ATOM     29  C   UNL     1       7.043   4.967  15.347  0.00  0.00    +0.000 C 
ENDBRANCH  27  29
BRANCH  27  30
ATOM     30  C   UNL     1       7.451   6.697  17.159  0.00  0.00    +0.000 C 
BRANCH  30  31
ATOM     31  O   UNL     1       7.877   6.524  18.507  0.00  0.00    +0.000 OA
ATOM     32  H   UNL     1       7.156   6.856  19.074  0.00  0.00    +0.000 HD
ENDBRANCH  30  31
ENDBRANCH  27  30
ENDBRANCH  26  27
ENDBRANCH   1  26
TORSDOF 10
ENDMDL
