MODEL 1
REMARK VINA RESULT:      -6.3      0.000      0.000
REMARK  Name = 
REMARK  11 active torsions:
REMARK  status: ('A' for Active; 'I' for Inactive)
REMARK    1  A    between atoms: C_1  and  O_2
REMARK    2  A    between atoms: O_2  and  C_3
REMARK    3  A    between atoms: C_3  and  C_4
REMARK    4  A    between atoms: C_3  and  O_20
REMARK    5  A    between atoms: C_4  and  N_5
REMARK    6  A    between atoms: N_5  and  C_6
REMARK    7  A    between atoms: N_5  and  C_7
REMARK    8  A    between atoms: C_7  and  C_8
REMARK    9  A    between atoms: C_11  and  C_12
REMARK   10  A    between atoms: C_15  and  C_16
REMARK   11  A    between atoms: O_20  and  C_21
REMARK                            x       y       z     vdW  Elec       q    Type
REMARK                         _______ _______ _______ _____ _____    ______ ____
ROOT
ATOM      1  C   UNL     1       4.287   4.607  17.697  0.00  0.00    +0.000 A 
ATOM      2  C   UNL     1       4.159   4.275  19.025  0.00  0.00    +0.000 A 
ATOM      3  O   UNL     1       3.394   5.228  19.627  0.00  0.00    +0.000 OA
ATOM      4  C   UNL     1       3.086   6.109  18.620  0.00  0.00    +0.000 A 
ATOM      5  N   UNL     1       3.577   5.762  17.441  0.00  0.00    +0.000 NA
ENDROOT
BRANCH   4   6
ATOM      6  C   UNL     1       2.322   7.293  18.993  0.00  0.00    +0.000 A 
ATOM      7  C   UNL     1       1.856   7.475  20.305  0.00  0.00    +0.000 A 
ATOM      8  C   UNL     1       1.162   8.632  20.663  0.00  0.00    +0.000 A 
ATOM      9  C   UNL     1       0.910   9.631  19.720  0.00  0.00    +0.000 A 
ATOM     10  C   UNL     1       0.168  10.876  20.102  0.00  0.00    +0.000 C 
ATOM     11  C   UNL     1       1.366   9.454  18.407  0.00  0.00    +0.000 A 
ATOM     12  C   UNL     1       2.067   8.295  18.052  0.00  0.00    +0.000 A 
ENDBRANCH   4   6
BRANCH   1  13
ATOM     13  C   UNL     1       5.096   3.945  16.635  0.00  0.00    +0.000 C 
BRANCH  13  14
ATOM     14  N   UNL     1       5.764   4.912  15.740  0.00  0.00    +0.000 NA
ATOM     15  C   UNL     1       6.076   4.219  14.480  0.00  0.00    +0.000 C 
BRANCH  14  16
ATOM     16  C   UNL     1       7.014   5.439  16.369  0.00  0.00    +0.000 C 
BRANCH  16  17
ATOM     17  C   UNL     1       6.955   6.726  17.265  0.00  0.00    +0.000 C 
BRANCH  17  19
ATOM     18  C   UNL     1       8.031   8.785  17.830  0.00  0.00    +0.000 C 
ATOM     19  O   UNL     1       7.882   7.743  16.878  0.00  0.00    +0.000 OA
ENDBRANCH  17  19
BRANCH  17  20
ATOM     20  O   UNL     1       7.159   6.368  18.638  0.00  0.00    +0.000 OA
ATOM     21  C   UNL     1       7.912   5.176  18.794  0.00  0.00    +0.000 C 
ENDBRANCH  17  20
ENDBRANCH  16  17
ENDBRANCH  14  16
ENDBRANCH  13  14
ENDBRANCH   1  13
TORSDOF 7
ENDMDL
MODEL 2
REMARK VINA RESULT:      -6.1      2.331      4.255
REMARK  Name = 
REMARK  11 active torsions:
REMARK  status: ('A' for Active; 'I' for Inactive)
REMARK    1  A    between atoms: C_1  and  O_2
REMARK    2  A    between atoms: O_2  and  C_3
REMARK    3  A    between atoms: C_3  and  C_4
REMARK    4  A    between atoms: C_3  and  O_20
REMARK    5  A    between atoms: C_4  and  N_5
REMARK    6  A    between atoms: N_5  and  C_6
REMARK    7  A    between atoms: N_5  and  C_7
REMARK    8  A    between atoms: C_7  and  C_8
REMARK    9  A    between atoms: C_11  and  C_12
REMARK   10  A    between atoms: C_15  and  C_16
REMARK   11  A    between atoms: O_20  and  C_21
REMARK                            x       y       z     vdW  Elec       q    Type
REMARK                         _______ _______ _______ _____ _____    ______ ____
ROOT
ATOM      1  C   UNL     1       2.265   7.079  19.598  0.00  0.00    +0.000 A 
ATOM      2  C   UNL     1       2.244   8.053  18.627  0.00  0.00    +0.000 A 
ATOM      3  O   UNL     1       1.543   9.117  19.109  0.00  0.00    +0.000 OA
ATOM      4  C   UNL     1       1.166   8.736  20.373  0.00  0.00    +0.000 A 
ATOM      5  N   UNL     1       1.599   7.534  20.719  0.00  0.00    +0.000 NA
ENDROOT
BRANCH   4   6
ATOM      6  C   UNL     1       0.324   9.666  21.115  0.00  0.00    +0.000 A 
ATOM      7  C   UNL     1      -0.187  10.827  20.512  0.00  0.00    +0.000 A 
ATOM      8  C   UNL     1      -1.026  11.690  21.218  0.00  0.00    +0.000 A 
ATOM      9  C   UNL     1      -1.372  11.418  22.544  0.00  0.00    +0.000 A 
ATOM     10  C   UNL     1      -2.276  12.341  23.305  0.00  0.00    +0.000 C 
ATOM     11  C   UNL     1      -0.861  10.266  23.156  0.00  0.00    +0.000 A 
ATOM     12  C   UNL     1      -0.023   9.399  22.443  0.00  0.00    +0.000 A 
ENDBRANCH   4   6
BRANCH   1  13
ATOM     13  C   UNL     1       2.818   5.698  19.535  0.00  0.00    +0.000 C 
BRANCH  13  14
ATOM     14  N   UNL     1       2.914   5.185  18.152  0.00  0.00    +0.000 NA
ATOM     15  C   UNL     1       1.657   4.485  17.843  0.00  0.00    +0.000 C 
BRANCH  14  16
ATOM     16  C   UNL     1       4.077   4.255  18.012  0.00  0.00    +0.000 C 
BRANCH  16  17
ATOM     17  C   UNL     1       5.155   4.176  19.150  0.00  0.00    +0.000 C 
BRANCH  17  19
ATOM     18  C   UNL     1       6.615   4.579  17.300  0.00  0.00    +0.000 C 
ATOM     19  O   UNL     1       6.482   4.471  18.709  0.00  0.00    +0.000 OA
ENDBRANCH  17  19
BRANCH  17  20
ATOM     20  O   UNL     1       5.115   2.882  19.764  0.00  0.00    +0.000 OA
ATOM     21  C   UNL     1       3.996   2.109  19.357  0.00  0.00    +0.000 C 
ENDBRANCH  17  20
ENDBRANCH  16  17
ENDBRANCH  14  16
ENDBRANCH  13  14
ENDBRANCH   1  13
TORSDOF 7
ENDMDL
MODEL 3
REMARK VINA RESULT:      -6.0      0.694      1.785
REMARK  Name = 
REMARK  11 active torsions:
REMARK  status: ('A' for Active; 'I' for Inactive)
REMARK    1  A    between atoms: C_1  and  O_2
REMARK    2  A    between atoms: O_2  and  C_3
REMARK    3  A    between atoms: C_3  and  C_4
REMARK    4  A    between atoms: C_3  and  O_20
REMARK    5  A    between atoms: C_4  and  N_5
REMARK    6  A    between atoms: N_5  and  C_6
REMARK    7  A    between atoms: N_5  and  C_7
REMARK    8  A    between atoms: C_7  and  C_8
REMARK    9  A    between atoms: C_11  and  C_12
REMARK   10  A    between atoms: C_15  and  C_16
REMARK   11  A    between atoms: O_20  and  C_21
REMARK                            x       y       z     vdW  Elec       q    Type
REMARK                         _______ _______ _______ _____ _____    ______ ____
ROOT
ATOM      1  C   UNL     1       3.996   4.440  17.691  0.00  0.00    +0.000 A 
ATOM      2  C   UNL     1       3.488   4.017  18.897  0.00  0.00    +0.000 A 
ATOM      3  O   UNL     1       2.780   5.045  19.443  0.00  0.00    +0.000 OA
ATOM      4  C   UNL     1       2.890   6.062  18.528  0.00  0.00    +0.000 A 
ATOM      5  N   UNL     1       3.587   5.737  17.450  0.00  0.00    +0.000 NA
ENDROOT
BRANCH   4   6
ATOM      6  C   UNL     1       2.281   7.336  18.885  0.00  0.00    +0.000 A 
ATOM      7  C   UNL     1       2.073   8.340  17.924  0.00  0.00    +0.000 A 
ATOM      8  C   UNL     1       1.450   9.541  18.267  0.00  0.00    +0.000 A 
ATOM      9  C   UNL     1       1.025   9.773  19.578  0.00  0.00    +0.000 A 
ATOM     10  C   UNL     1       0.353  11.060  19.949  0.00  0.00    +0.000 C 
ATOM     11  C   UNL     1       1.235   8.780  20.544  0.00  0.00    +0.000 A 
ATOM     12  C   UNL     1       1.855   7.573  20.196  0.00  0.00    +0.000 A 
ENDBRANCH   4   6
BRANCH   1  13
ATOM     13  C   UNL     1       4.910   3.731  16.754  0.00  0.00    +0.000 C 
BRANCH  13  14
ATOM     14  N   UNL     1       5.821   4.650  16.040  0.00  0.00    +0.000 NA
ATOM     15  C   UNL     1       5.928   4.188  14.647  0.00  0.00    +0.000 C 
BRANCH  14  16
ATOM     16  C   UNL     1       7.169   4.667  16.688  0.00  0.00    +0.000 C 
BRANCH  16  17
ATOM     17  C   UNL     1       7.475   5.700  17.829  0.00  0.00    +0.000 C 
BRANCH  17  19
ATOM     18  C   UNL     1       8.137   5.494  20.117  0.00  0.00    +0.000 C 
ATOM     19  O   UNL     1       7.144   5.231  19.137  0.00  0.00    +0.000 OA
ENDBRANCH  17  19
BRANCH  17  20
ATOM     20  O   UNL     1       6.793   6.932  17.559  0.00  0.00    +0.000 OA
ATOM     21  C   UNL     1       7.665   8.051  17.513  0.00  0.00    +0.000 C 
ENDBRANCH  17  20
ENDBRANCH  16  17
ENDBRANCH  14  16
ENDBRANCH  13  14
ENDBRANCH   1  13
TORSDOF 7
ENDMDL
MODEL 4
REMARK VINA RESULT:      -6.0      1.603      2.716
REMARK  Name = 
REMARK  11 active torsions:
REMARK  status: ('A' for Active; 'I' for Inactive)
REMARK    1  A    between atoms: C_1  and  O_2
REMARK    2  A    between atoms: O_2  and  C_3
REMARK    3  A    between atoms: C_3  and  C_4
REMARK    4  A    between atoms: C_3  and  O_20
REMARK    5  A    between atoms: C_4  and  N_5
REMARK    6  A    between atoms: N_5  and  C_6
REMARK    7  A    between atoms: N_5  and  C_7
REMARK    8  A    between atoms: C_7  and  C_8
REMARK    9  A    between atoms: C_11  and  C_12
REMARK   10  A    between atoms: C_15  and  C_16
REMARK   11  A    between atoms: O_20  and  C_21
REMARK                            x       y       z     vdW  Elec       q    Type
REMARK                         _______ _______ _______ _____ _____    ______ ____
ROOT
ATOM      1  C   UNL     1       3.236   5.485  19.729  0.00  0.00    +0.000 A 
ATOM      2  C   UNL     1       2.335   5.013  20.655  0.00  0.00    +0.000 A 
ATOM      3  O   UNL     1       1.506   6.037  21.000  0.00  0.00    +0.000 OA
ATOM      4  C   UNL     1       1.948   7.103  20.256  0.00  0.00    +0.000 A 
ATOM      5  N   UNL     1       2.965   6.812  19.460  0.00  0.00    +0.000 NA
ENDROOT
BRANCH   4   6
ATOM      6  C   UNL     1       1.283   8.380  20.477  0.00  0.00    +0.000 A 
ATOM      7  C   UNL     1       1.193   9.342  19.457  0.00  0.00    +0.000 A 
ATOM      8  C   UNL     1       0.517  10.545  19.665  0.00  0.00    +0.000 A 
ATOM      9  C   UNL     1      -0.080  10.821  20.898  0.00  0.00    +0.000 A 
ATOM     10  C   UNL     1      -0.810  12.111  21.124  0.00  0.00    +0.000 C 
ATOM     11  C   UNL     1       0.011   9.870  21.923  0.00  0.00    +0.000 A 
ATOM     12  C   UNL     1       0.685   8.662  21.709  0.00  0.00    +0.000 A 
ENDBRANCH   4   6
BRANCH   1  13
ATOM     13  C   UNL     1       4.400   4.792  19.110  0.00  0.00    +0.000 C 
BRANCH  13  14
ATOM     14  N   UNL     1       4.432   4.934  17.640  0.00  0.00    +0.000 NA
ATOM     15  C   UNL     1       4.141   3.616  17.053  0.00  0.00    +0.000 C 
BRANCH  14  16
ATOM     16  C   UNL     1       5.771   5.423  17.185  0.00  0.00    +0.000 C 
BRANCH  16  17
ATOM     17  C   UNL     1       7.034   4.508  17.352  0.00  0.00    +0.000 C 
BRANCH  17  19
ATOM     18  C   UNL     1       7.875   6.189  18.830  0.00  0.00    +0.000 C 
ATOM     19  O   UNL     1       7.814   4.807  18.512  0.00  0.00    +0.000 OA
ENDBRANCH  17  19
BRANCH  17  20
ATOM     20  O   UNL     1       7.848   4.590  16.175  0.00  0.00    +0.000 OA
ATOM     21  C   UNL     1       7.101   4.868  15.002  0.00  0.00    +0.000 C 
ENDBRANCH  17  20
ENDBRANCH  16  17
ENDBRANCH  14  16
ENDBRANCH  13  14
ENDBRANCH   1  13
TORSDOF 7
ENDMDL
MODEL 5
REMARK VINA RESULT:      -6.0      3.126      4.943
REMARK  Name = 
REMARK  11 active torsions:
REMARK  status: ('A' for Active; 'I' for Inactive)
REMARK    1  A    between atoms: C_1  and  O_2
REMARK    2  A    between atoms: O_2  and  C_3
REMARK    3  A    between atoms: C_3  and  C_4
REMARK    4  A    between atoms: C_3  and  O_20
REMARK    5  A    between atoms: C_4  and  N_5
REMARK    6  A    between atoms: N_5  and  C_6
REMARK    7  A    between atoms: N_5  and  C_7
REMARK    8  A    between atoms: C_7  and  C_8
REMARK    9  A    between atoms: C_11  and  C_12
REMARK   10  A    between atoms: C_15  and  C_16
REMARK   11  A    between atoms: O_20  and  C_21
REMARK                            x       y       z     vdW  Elec       q    Type
REMARK                         _______ _______ _______ _____ _____    ______ ____
ROOT
ATOM      1  C   UNL     1       2.585   7.501  18.510  0.00  0.00    +0.000 A 
ATOM      2  C   UNL     1       2.436   8.611  17.712  0.00  0.00    +0.000 A 
ATOM      3  O   UNL     1       1.720   9.539  18.405  0.00  0.00    +0.000 OA
ATOM      4  C   UNL     1       1.463   8.941  19.614  0.00  0.00    +0.000 A 
ATOM      5  N   UNL     1       1.985   7.730  19.732  0.00  0.00    +0.000 NA
ENDROOT
BRANCH   4   6
ATOM      6  C   UNL     1       0.634   9.686  20.553  0.00  0.00    +0.000 A 
ATOM      7  C   UNL     1      -0.063  10.839  20.153  0.00  0.00    +0.000 A 
ATOM      8  C   UNL     1      -0.888  11.522  21.048  0.00  0.00    +0.000 A 
ATOM      9  C   UNL     1      -1.034  11.076  22.363  0.00  0.00    +0.000 A 
ATOM     10  C   UNL     1      -1.922  11.805  23.326  0.00  0.00    +0.000 C 
ATOM     11  C   UNL     1      -0.337   9.931  22.772  0.00  0.00    +0.000 A 
ATOM     12  C   UNL     1       0.486   9.244  21.871  0.00  0.00    +0.000 A 
ENDBRANCH   4   6
BRANCH   1  13
ATOM     13  C   UNL     1       3.205   6.186  18.187  0.00  0.00    +0.000 C 
BRANCH  13  14
ATOM     14  N   UNL     1       3.680   5.469  19.388  0.00  0.00    +0.000 NA
ATOM     15  C   UNL     1       5.132   5.270  19.251  0.00  0.00    +0.000 C 
BRANCH  14  16
ATOM     16  C   UNL     1       2.985   4.151  19.527  0.00  0.00    +0.000 C 
BRANCH  16  17
ATOM     17  C   UNL     1       3.779   2.900  20.043  0.00  0.00    +0.000 C 
BRANCH  17  19
ATOM     18  C   UNL     1       3.072   2.012  17.939  0.00  0.00    +0.000 C 
ATOM     19  O   UNL     1       3.914   1.861  19.072  0.00  0.00    +0.000 OA
ENDBRANCH  17  19
BRANCH  17  20
ATOM     20  O   UNL     1       3.157   2.389  21.230  0.00  0.00    +0.000 OA
ATOM     21  C   UNL     1       2.118   3.225  21.715  0.00  0.00    +0.000 C 
ENDBRANCH  17  20
ENDBRANCH  16  17
ENDBRANCH  14  16
ENDBRANCH  13  14
ENDBRANCH   1  13
TORSDOF 7
ENDMDL
MODEL 6
REMARK VINA RESULT:      -6.0      3.030      4.884
REMARK  Name = 
REMARK  11 active torsions:
REMARK  status: ('A' for Active; 'I' for Inactive)
REMARK    1  A    between atoms: C_1  and  O_2
REMARK    2  A    between atoms: O_2  and  C_3
REMARK    3  A    between atoms: C_3  and  C_4
REMARK    4  A    between atoms: C_3  and  O_20
REMARK    5  A    between atoms: C_4  and  N_5
REMARK    6  A    between atoms: N_5  and  C_6
REMARK    7  A    between atoms: N_5  and  C_7
REMARK    8  A    between atoms: C_7  and  C_8
REMARK    9  A    between atoms: C_11  and  C_12
REMARK   10  A    between atoms: C_15  and  C_16
REMARK   11  A    between atoms: O_20  and  C_21
REMARK                            x       y       z     vdW  Elec       q    Type
REMARK                         _______ _______ _______ _____ _____    ______ ____
ROOT
ATOM      1  C   UNL     1       2.673   7.335  18.600  0.00  0.00    +0.000 A 
ATOM      2  C   UNL     1       2.445   8.402  17.763  0.00  0.00    +0.000 A 
ATOM      3  O   UNL     1       1.680   9.309  18.433  0.00  0.00    +0.000 OA
ATOM      4  C   UNL     1       1.477   8.744  19.667  0.00  0.00    +0.000 A 
ATOM      5  N   UNL     1       2.076   7.573  19.822  0.00  0.00    +0.000 NA
ENDROOT
BRANCH   4   6
ATOM      6  C   UNL     1       0.614   9.471  20.589  0.00  0.00    +0.000 A 
ATOM      7  C   UNL     1       0.428   9.033  21.911  0.00  0.00    +0.000 A 
ATOM      8  C   UNL     1      -0.366   9.759  22.800  0.00  0.00    +0.000 A 
ATOM      9  C   UNL     1      -0.998  10.936  22.390  0.00  0.00    +0.000 A 
ATOM     10  C   UNL     1      -1.850  11.720  23.343  0.00  0.00    +0.000 C 
ATOM     11  C   UNL     1      -0.823  11.376  21.072  0.00  0.00    +0.000 A 
ATOM     12  C   UNL     1      -0.021  10.648  20.184  0.00  0.00    +0.000 A 
ENDBRANCH   4   6
BRANCH   1  13
ATOM     13  C   UNL     1       3.370   6.050  18.317  0.00  0.00    +0.000 C 
BRANCH  13  14
ATOM     14  N   UNL     1       4.040   5.490  19.509  0.00  0.00    +0.000 NA
ATOM     15  C   UNL     1       5.431   5.181  19.141  0.00  0.00    +0.000 C 
BRANCH  14  16
ATOM     16  C   UNL     1       3.339   4.255  19.979  0.00  0.00    +0.000 C 
BRANCH  16  17
ATOM     17  C   UNL     1       2.329   3.521  19.028  0.00  0.00    +0.000 C 
BRANCH  17  19
ATOM     18  C   UNL     1       1.286   2.905  21.090  0.00  0.00    +0.000 C 
ATOM     19  O   UNL     1       1.443   2.628  19.706  0.00  0.00    +0.000 OA
ENDBRANCH  17  19
BRANCH  17  20
ATOM     20  O   UNL     1       3.051   2.819  18.007  0.00  0.00    +0.000 OA
ATOM     21  C   UNL     1       3.511   1.545  18.429  0.00  0.00    +0.000 C 
ENDBRANCH  17  20
ENDBRANCH  16  17
ENDBRANCH  14  16
ENDBRANCH  13  14
ENDBRANCH   1  13
TORSDOF 7
ENDMDL
MODEL 7
REMARK VINA RESULT:      -6.0      2.855      4.622
REMARK  Name = 
REMARK  11 active torsions:
REMARK  status: ('A' for Active; 'I' for Inactive)
REMARK    1  A    between atoms: C_1  and  O_2
REMARK    2  A    between atoms: O_2  and  C_3
REMARK    3  A    between atoms: C_3  and  C_4
REMARK    4  A    between atoms: C_3  and  O_20
REMARK    5  A    between atoms: C_4  and  N_5
REMARK    6  A    between atoms: N_5  and  C_6
REMARK    7  A    between atoms: N_5  and  C_7
REMARK    8  A    between atoms: C_7  and  C_8
REMARK    9  A    between atoms: C_11  and  C_12
REMARK   10  A    between atoms: C_15  and  C_16
REMARK   11  A    between atoms: O_20  and  C_21
REMARK                            x       y       z     vdW  Elec       q    Type
REMARK                         _______ _______ _______ _____ _____    ______ ____
ROOT
ATOM      1  C   UNL     1       2.997   6.906  18.529  0.00  0.00    +0.000 A 
ATOM      2  C   UNL     1       2.816   7.975  17.683  0.00  0.00    +0.000 A 
ATOM      3  O   UNL     1       2.063   8.906  18.334  0.00  0.00    +0.000 OA
ATOM      4  C   UNL     1       1.820   8.351  19.566  0.00  0.00    +0.000 A 
ATOM      5  N   UNL     1       2.382   7.165  19.737  0.00  0.00    +0.000 NA
ENDROOT
BRANCH   4   6
ATOM      6  C   UNL     1       0.960   9.106  20.468  0.00  0.00    +0.000 A 
ATOM      7  C   UNL     1       0.680   8.644  21.765  0.00  0.00    +0.000 A 
ATOM      8  C   UNL     1      -0.111   9.394  22.637  0.00  0.00    +0.000 A 
ATOM      9  C   UNL     1      -0.646  10.620  22.235  0.00  0.00    +0.000 A 
ATOM     10  C   UNL     1      -1.493  11.430  23.169  0.00  0.00    +0.000 C 
ATOM     11  C   UNL     1      -0.378  11.085  20.940  0.00  0.00    +0.000 A 
ATOM     12  C   UNL     1       0.421  10.333  20.070  0.00  0.00    +0.000 A 
ENDBRANCH   4   6
BRANCH   1  13
ATOM     13  C   UNL     1       3.664   5.600  18.264  0.00  0.00    +0.000 C 
BRANCH  13  14
ATOM     14  N   UNL     1       4.475   5.132  19.407  0.00  0.00    +0.000 NA
ATOM     15  C   UNL     1       5.859   5.584  19.193  0.00  0.00    +0.000 C 
BRANCH  14  16
ATOM     16  C   UNL     1       4.425   3.641  19.517  0.00  0.00    +0.000 C 
BRANCH  16  17
ATOM     17  C   UNL     1       3.104   2.937  19.988  0.00  0.00    +0.000 C 
BRANCH  17  19
ATOM     18  C   UNL     1       2.988   1.801  17.888  0.00  0.00    +0.000 C 
ATOM     19  O   UNL     1       2.279   2.478  18.915  0.00  0.00    +0.000 OA
ENDBRANCH  17  19
BRANCH  17  20
ATOM     20  O   UNL     1       2.362   3.822  20.837  0.00  0.00    +0.000 OA
ATOM     21  C   UNL     1       1.001   3.949  20.454  0.00  0.00    +0.000 C 
ENDBRANCH  17  20
ENDBRANCH  16  17
ENDBRANCH  14  16
ENDBRANCH  13  14
ENDBRANCH   1  13
TORSDOF 7
ENDMDL
MODEL 8
REMARK VINA RESULT:      -6.0      1.851      3.037
REMARK  Name = 
REMARK  11 active torsions:
REMARK  status: ('A' for Active; 'I' for Inactive)
REMARK    1  A    between atoms: C_1  and  O_2
REMARK    2  A    between atoms: O_2  and  C_3
REMARK    3  A    between atoms: C_3  and  C_4
REMARK    4  A    between atoms: C_3  and  O_20
REMARK    5  A    between atoms: C_4  and  N_5
REMARK    6  A    between atoms: N_5  and  C_6
REMARK    7  A    between atoms: N_5  and  C_7
REMARK    8  A    between atoms: C_7  and  C_8
REMARK    9  A    between atoms: C_11  and  C_12
REMARK   10  A    between atoms: C_15  and  C_16
REMARK   11  A    between atoms: O_20  and  C_21
REMARK                            x       y       z     vdW  Elec       q    Type
REMARK                         _______ _______ _______ _____ _____    ______ ____
ROOT
ATOM      1  C   UNL     1       2.946   6.441  19.138  0.00  0.00    +0.000 A 
ATOM      2  C   UNL     1       2.833   7.398  18.157  0.00  0.00    +0.000 A 
ATOM      3  O   UNL     1       2.098   8.431  18.656  0.00  0.00    +0.000 OA
ATOM      4  C   UNL     1       1.794   8.048  19.939  0.00  0.00    +0.000 A 
ATOM      5  N   UNL     1       2.303   6.876  20.280  0.00  0.00    +0.000 NA
ENDROOT
BRANCH   4   6
ATOM      6  C   UNL     1       0.936   8.943  20.705  0.00  0.00    +0.000 A 
ATOM      7  C   UNL     1       0.286   8.507  21.872  0.00  0.00    +0.000 A 
ATOM      8  C   UNL     1      -0.500   9.382  22.622  0.00  0.00    +0.000 A 
ATOM      9  C   UNL     1      -0.662  10.712  22.224  0.00  0.00    +0.000 A 
ATOM     10  C   UNL     1      -1.503  11.656  23.030  0.00  0.00    +0.000 C 
ATOM     11  C   UNL     1      -0.023  11.153  21.058  0.00  0.00    +0.000 A 
ATOM     12  C   UNL     1       0.769  10.273  20.310  0.00  0.00    +0.000 A 
ENDBRANCH   4   6
BRANCH   1  13
ATOM     13  C   UNL     1       3.568   5.089  19.068  0.00  0.00    +0.000 C 
BRANCH  13  14
ATOM     14  N   UNL     1       4.317   4.872  17.813  0.00  0.00    +0.000 NA
ATOM     15  C   UNL     1       3.865   3.596  17.234  0.00  0.00    +0.000 C 
BRANCH  14  16
ATOM     16  C   UNL     1       5.789   4.833  18.075  0.00  0.00    +0.000 C 
BRANCH  16  17
ATOM     17  C   UNL     1       6.762   5.695  17.196  0.00  0.00    +0.000 C 
BRANCH  17  19
ATOM     18  C   UNL     1       6.866   4.677  15.036  0.00  0.00    +0.000 C 
ATOM     19  O   UNL     1       7.530   4.931  16.265  0.00  0.00    +0.000 OA
ENDBRANCH  17  19
BRANCH  17  20
ATOM     20  O   UNL     1       7.631   6.457  18.045  0.00  0.00    +0.000 OA
ATOM     21  C   UNL     1       7.756   7.811  17.639  0.00  0.00    +0.000 C 
ENDBRANCH  17  20
ENDBRANCH  16  17
ENDBRANCH  14  16
ENDBRANCH  13  14
ENDBRANCH   1  13
TORSDOF 7
ENDMDL
MODEL 9
REMARK VINA RESULT:      -6.0      2.753      6.327
REMARK  Name = 
REMARK  11 active torsions:
REMARK  status: ('A' for Active; 'I' for Inactive)
REMARK    1  A    between atoms: C_1  and  O_2
REMARK    2  A    between atoms: O_2  and  C_3
REMARK    3  A    between atoms: C_3  and  C_4
REMARK    4  A    between atoms: C_3  and  O_20
REMARK    5  A    between atoms: C_4  and  N_5
REMARK    6  A    between atoms: N_5  and  C_6
REMARK    7  A    between atoms: N_5  and  C_7
REMARK    8  A    between atoms: C_7  and  C_8
REMARK    9  A    between atoms: C_11  and  C_12
REMARK   10  A    between atoms: C_15  and  C_16
REMARK   11  A    between atoms: O_20  and  C_21
REMARK                            x       y       z     vdW  Elec       q    Type
REMARK                         _______ _______ _______ _____ _____    ______ ____
ROOT
ATOM      1  C   UNL     1       7.054   7.071  17.385  0.00  0.00    +0.000 A 
ATOM      2  C   UNL     1       7.803   6.504  18.390  0.00  0.00    +0.000 A 
ATOM      3  O   UNL     1       8.560   7.485  18.957  0.00  0.00    +0.000 OA
ATOM      4  C   UNL     1       8.229   8.621  18.261  0.00  0.00    +0.000 A 
ATOM      5  N   UNL     1       7.311   8.426  17.327  0.00  0.00    +0.000 NA
ENDROOT
BRANCH   4   6
ATOM      6  C   UNL     1       8.952   9.838  18.608  0.00  0.00    +0.000 A 
ATOM      7  C   UNL     1       9.365  10.747  17.619  0.00  0.00    +0.000 A 
ATOM      8  C   UNL     1      10.019  11.930  17.964  0.00  0.00    +0.000 A 
ATOM      9  C   UNL     1      10.284  12.232  19.302  0.00  0.00    +0.000 A 
ATOM     10  C   UNL     1      10.984  13.504  19.676  0.00  0.00    +0.000 C 
ATOM     11  C   UNL     1       9.882  11.328  20.294  0.00  0.00    +0.000 A 
ATOM     12  C   UNL     1       9.220  10.144  19.945  0.00  0.00    +0.000 A 
ENDBRANCH   4   6
BRANCH   1  13
ATOM     13  C   UNL     1       6.141   6.414  16.408  0.00  0.00    +0.000 C 
BRANCH  13  14
ATOM     14  N   UNL     1       6.370   4.958  16.303  0.00  0.00    +0.000 NA
ATOM     15  C   UNL     1       6.980   4.690  14.991  0.00  0.00    +0.000 C 
BRANCH  14  16
ATOM     16  C   UNL     1       5.082   4.210  16.442  0.00  0.00    +0.000 C 
BRANCH  16  17
ATOM     17  C   UNL     1       3.993   4.710  17.455  0.00  0.00    +0.000 C 
BRANCH  17  19
ATOM     18  C   UNL     1       3.668   5.559  19.666  0.00  0.00    +0.000 C 
ATOM     19  O   UNL     1       4.428   4.714  18.815  0.00  0.00    +0.000 OA
ENDBRANCH  17  19
BRANCH  17  20
ATOM     20  O   UNL     1       2.806   3.918  17.318  0.00  0.00    +0.000 OA
ATOM     21  C   UNL     1       3.011   2.551  17.639  0.00  0.00    +0.000 C 
ENDBRANCH  17  20
ENDBRANCH  16  17
ENDBRANCH  14  16
ENDBRANCH  13  14
ENDBRANCH   1  13
TORSDOF 7
ENDMDL
