MODEL 1
REMARK VINA RESULT:      -8.3      0.000      0.000
REMARK  Name = 
REMARK  4 active torsions:
REMARK  status: ('A' for Active; 'I' for Inactive)
REMARK    1  A    between atoms: C_2  and  C_3
REMARK    2  A    between atoms: C_8  and  N_9
REMARK    3  A    between atoms: C_20  and  O_21
REMARK    4  A    between atoms: O_21  and  C_22
REMARK                            x       y       z     vdW  Elec       q    Type
REMARK                         _______ _______ _______ _____ _____    ______ ____
ROOT
ATOM      1  O   UNL     1      -0.256  12.149  18.259  0.00  0.00    +0.000 OA
ATOM      2  C   UNL     1      -0.830  11.484  19.121  0.00  0.00    +0.000 C 
ATOM      3  N   UNL     1      -0.170  10.467  19.855  0.00  0.00    +0.000 N 
ATOM      4  C   UNL     1      -0.734   9.801  21.030  0.00  0.00    +0.000 C 
ATOM      5  C   UNL     1      -0.264   8.372  21.196  0.00  0.00    +0.000 C 
ATOM      6  C   UNL     1       1.247   8.300  21.129  0.00  0.00    +0.000 C 
ATOM      7  F   UNL     1       1.619   6.999  21.265  0.00  0.00    +0.000 F 
ATOM      8  F   UNL     1       1.750   8.941  22.225  0.00  0.00    +0.000 F 
ATOM      9  C   UNL     1       1.851   8.916  19.868  0.00  0.00    +0.000 C 
ATOM     10  C   UNL     1       1.299  10.352  19.712  0.00  0.00    +0.000 C 
ENDROOT
BRANCH   2  11
ATOM     11  C   UNL     1      -2.255  11.854  19.436  0.00  0.00    +0.000 A 
ATOM     12  C   UNL     1      -2.471  12.675  20.560  0.00  0.00    +0.000 A 
ATOM     13  C   UNL     1      -3.752  13.042  20.978  0.00  0.00    +0.000 A 
ATOM     14  C   UNL     1      -4.850  12.712  20.201  0.00  0.00    +0.000 A 
ATOM     15  C   UNL     1      -4.651  12.047  18.994  0.00  0.00    +0.000 A 
ATOM     16  C   UNL     1      -3.363  11.602  18.605  0.00  0.00    +0.000 A 
BRANCH  16  17
ATOM     17  N   UNL     1      -3.279  10.952  17.347  0.00  0.00    +0.000 N 
ATOM     18  N   UNL     1      -2.796   9.698  17.167  0.00  0.00    +0.000 NA
ATOM     19  C   UNL     1      -2.872   9.556  15.841  0.00  0.00    +0.000 A 
ATOM     20  C   UNL     1      -3.476  10.678  15.270  0.00  0.00    +0.000 A 
ATOM     21  N   UNL     1      -3.834  11.529  16.232  0.00  0.00    +0.000 NA
ENDBRANCH  16  17
ENDBRANCH   2  11
BRANCH   9  22
ATOM     22  O   UNL     1       1.460   8.189  18.697  0.00  0.00    +0.000 OA
BRANCH  22  23
ATOM     23  C   UNL     1       2.329   7.243  18.180  0.00  0.00    +0.000 A 
ATOM     24  C   UNL     1       1.822   5.955  18.208  0.00  0.00    +0.000 A 
ATOM     25  C   UNL     1       2.647   4.906  17.840  0.00  0.00    +0.000 A 
ATOM     26  C   UNL     1       3.934   5.168  17.373  0.00  0.00    +0.000 A 
ATOM     27  C   UNL     1       4.762   4.105  16.959  0.00  0.00    +0.000 A 
ATOM     28  C   UNL     1       6.005   4.360  16.392  0.00  0.00    +0.000 A 
ATOM     29  C   UNL     1       6.429   5.677  16.267  0.00  0.00    +0.000 A 
ATOM     30  C   UNL     1       5.620   6.729  16.740  0.00  0.00    +0.000 A 
ATOM     31  C   UNL     1       4.358   6.514  17.303  0.00  0.00    +0.000 A 
ATOM     32  N   UNL     1       3.573   7.542  17.728  0.00  0.00    +0.000 NA
ENDBRANCH  22  23
ENDBRANCH   9  22
TORSDOF 4
ENDMDL
MODEL 2
REMARK VINA RESULT:      -8.1      0.717      1.408
REMARK  Name = 
REMARK  4 active torsions:
REMARK  status: ('A' for Active; 'I' for Inactive)
REMARK    1  A    between atoms: C_2  and  C_3
REMARK    2  A    between atoms: C_8  and  N_9
REMARK    3  A    between atoms: C_20  and  O_21
REMARK    4  A    between atoms: O_21  and  C_22
REMARK                            x       y       z     vdW  Elec       q    Type
REMARK                         _______ _______ _______ _____ _____    ______ ____
ROOT
ATOM      1  O   UNL     1      -0.442  12.422  18.314  0.00  0.00    +0.000 OA
ATOM      2  C   UNL     1      -1.001  11.740  19.171  0.00  0.00    +0.000 C 
ATOM      3  N   UNL     1      -0.315  10.750  19.917  0.00  0.00    +0.000 N 
ATOM      4  C   UNL     1      -0.869  10.067  21.087  0.00  0.00    +0.000 C 
ATOM      5  C   UNL     1      -0.348   8.657  21.264  0.00  0.00    +0.000 C 
ATOM      6  C   UNL     1       1.164   8.640  21.217  0.00  0.00    +0.000 C 
ATOM      7  F   UNL     1       1.582   7.355  21.363  0.00  0.00    +0.000 F 
ATOM      8  F   UNL     1       1.629   9.303  22.317  0.00  0.00    +0.000 F 
ATOM      9  C   UNL     1       1.762   9.274  19.961  0.00  0.00    +0.000 C 
ATOM     10  C   UNL     1       1.159  10.689  19.793  0.00  0.00    +0.000 C 
ENDROOT
BRANCH   2  11
ATOM     11  C   UNL     1      -2.444  12.058  19.466  0.00  0.00    +0.000 A 
ATOM     12  C   UNL     1      -2.700  12.924  20.547  0.00  0.00    +0.000 A 
ATOM     13  C   UNL     1      -3.999  13.252  20.945  0.00  0.00    +0.000 A 
ATOM     14  C   UNL     1      -5.078  12.831  20.186  0.00  0.00    +0.000 A 
ATOM     15  C   UNL     1      -4.845  12.116  19.014  0.00  0.00    +0.000 A 
ATOM     16  C   UNL     1      -3.536  11.713  18.648  0.00  0.00    +0.000 A 
BRANCH  16  17
ATOM     17  N   UNL     1      -3.418  11.004  17.426  0.00  0.00    +0.000 N 
ATOM     18  N   UNL     1      -2.853   9.778  17.306  0.00  0.00    +0.000 NA
ATOM     19  C   UNL     1      -2.930   9.561  15.989  0.00  0.00    +0.000 A 
ATOM     20  C   UNL     1      -3.613  10.608  15.368  0.00  0.00    +0.000 A 
ATOM     21  N   UNL     1      -4.020  11.483  16.289  0.00  0.00    +0.000 NA
ENDBRANCH  16  17
ENDBRANCH   2  11
BRANCH   9  22
ATOM     22  O   UNL     1       1.413   8.530  18.789  0.00  0.00    +0.000 OA
BRANCH  22  23
ATOM     23  C   UNL     1       2.273   7.537  18.350  0.00  0.00    +0.000 A 
ATOM     24  C   UNL     1       3.415   8.027  17.740  0.00  0.00    +0.000 A 
ATOM     25  C   UNL     1       4.288   7.134  17.145  0.00  0.00    +0.000 A 
ATOM     26  C   UNL     1       4.049   5.763  17.238  0.00  0.00    +0.000 A 
ATOM     27  C   UNL     1       4.958   4.850  16.669  0.00  0.00    +0.000 A 
ATOM     28  C   UNL     1       4.788   3.482  16.848  0.00  0.00    +0.000 A 
ATOM     29  C   UNL     1       3.692   3.031  17.573  0.00  0.00    +0.000 A 
ATOM     30  C   UNL     1       2.756   3.949  18.088  0.00  0.00    +0.000 A 
ATOM     31  C   UNL     1       2.900   5.333  17.941  0.00  0.00    +0.000 A 
ATOM     32  N   UNL     1       2.005   6.212  18.469  0.00  0.00    +0.000 NA
ENDBRANCH  22  23
ENDBRANCH   9  22
TORSDOF 4
ENDMDL
MODEL 3
REMARK VINA RESULT:      -7.9      5.398      8.384
REMARK  Name = 
REMARK  4 active torsions:
REMARK  status: ('A' for Active; 'I' for Inactive)
REMARK    1  A    between atoms: C_2  and  C_3
REMARK    2  A    between atoms: C_8  and  N_9
REMARK    3  A    between atoms: C_20  and  O_21
REMARK    4  A    between atoms: O_21  and  C_22
REMARK                            x       y       z     vdW  Elec       q    Type
REMARK                         _______ _______ _______ _____ _____    ______ ____
ROOT
ATOM      1  O   UNL     1       5.369   4.720  20.076  0.00  0.00    +0.000 OA
ATOM      2  C   UNL     1       4.765   4.408  19.051  0.00  0.00    +0.000 C 
ATOM      3  N   UNL     1       5.347   4.527  17.765  0.00  0.00    +0.000 N 
ATOM      4  C   UNL     1       4.764   3.973  16.542  0.00  0.00    +0.000 C 
ATOM      5  C   UNL     1       5.095   4.773  15.301  0.00  0.00    +0.000 C 
ATOM      6  C   UNL     1       6.586   5.010  15.204  0.00  0.00    +0.000 C 
ATOM      7  F   UNL     1       6.831   5.744  14.087  0.00  0.00    +0.000 F 
ATOM      8  F   UNL     1       7.193   3.804  14.990  0.00  0.00    +0.000 F 
ATOM      9  C   UNL     1       7.201   5.666  16.439  0.00  0.00    +0.000 C 
ATOM     10  C   UNL     1       6.790   4.846  17.685  0.00  0.00    +0.000 C 
ENDROOT
BRANCH   2  11
ATOM     11  C   UNL     1       3.396   3.801  19.220  0.00  0.00    +0.000 A 
ATOM     12  C   UNL     1       3.332   2.406  19.402  0.00  0.00    +0.000 A 
ATOM     13  C   UNL     1       2.117   1.726  19.519  0.00  0.00    +0.000 A 
ATOM     14  C   UNL     1       0.934   2.442  19.597  0.00  0.00    +0.000 A 
ATOM     15  C   UNL     1       0.981   3.833  19.591  0.00  0.00    +0.000 A 
ATOM     16  C   UNL     1       2.201   4.525  19.392  0.00  0.00    +0.000 A 
BRANCH  16  17
ATOM     17  N   UNL     1       2.131   5.941  19.423  0.00  0.00    +0.000 N 
ATOM     18  N   UNL     1       1.869   6.668  20.536  0.00  0.00    +0.000 NA
ATOM     19  C   UNL     1       1.858   7.917  20.060  0.00  0.00    +0.000 A 
ATOM     20  C   UNL     1       2.200   7.919  18.707  0.00  0.00    +0.000 A 
ATOM     21  N   UNL     1       2.478   6.674  18.316  0.00  0.00    +0.000 NA
ENDBRANCH  16  17
ENDBRANCH   2  11
BRANCH   9  22
ATOM     22  O   UNL     1       6.694   6.993  16.628  0.00  0.00    +0.000 OA
BRANCH  22  23
ATOM     23  C   UNL     1       7.459   7.903  17.338  0.00  0.00    +0.000 A 
ATOM     24  C   UNL     1       8.175   7.329  18.375  0.00  0.00    +0.000 A 
ATOM     25  C   UNL     1       8.874   8.155  19.239  0.00  0.00    +0.000 A 
ATOM     26  C   UNL     1       8.913   9.529  19.004  0.00  0.00    +0.000 A 
ATOM     27  C   UNL     1       9.658  10.367  19.857  0.00  0.00    +0.000 A 
ATOM     28  C   UNL     1       9.794  11.721  19.573  0.00  0.00    +0.000 A 
ATOM     29  C   UNL     1       9.160  12.238  18.450  0.00  0.00    +0.000 A 
ATOM     30  C   UNL     1       8.368  11.403  17.636  0.00  0.00    +0.000 A 
ATOM     31  C   UNL     1       8.219  10.034  17.882  0.00  0.00    +0.000 A 
ATOM     32  N   UNL     1       7.476   9.233  17.071  0.00  0.00    +0.000 NA
ENDBRANCH  22  23
ENDBRANCH   9  22
TORSDOF 4
ENDMDL
MODEL 4
REMARK VINA RESULT:      -7.7      3.207      4.837
REMARK  Name = 
REMARK  4 active torsions:
REMARK  status: ('A' for Active; 'I' for Inactive)
REMARK    1  A    between atoms: C_2  and  C_3
REMARK    2  A    between atoms: C_8  and  N_9
REMARK    3  A    between atoms: C_20  and  O_21
REMARK    4  A    between atoms: O_21  and  C_22
REMARK                            x       y       z     vdW  Elec       q    Type
REMARK                         _______ _______ _______ _____ _____    ______ ____
ROOT
ATOM      1  O   UNL     1      -0.052  11.297  23.064  0.00  0.00    +0.000 OA
ATOM      2  C   UNL     1      -0.490  12.030  22.179  0.00  0.00    +0.000 C 
ATOM      3  N   UNL     1      -0.850  11.538  20.899  0.00  0.00    +0.000 N 
ATOM      4  C   UNL     1      -1.573  12.315  19.891  0.00  0.00    +0.000 C 
ATOM      5  C   UNL     1      -1.227  11.927  18.470  0.00  0.00    +0.000 C 
ATOM      6  C   UNL     1      -1.352  10.430  18.282  0.00  0.00    +0.000 C 
ATOM      7  F   UNL     1      -1.015  10.131  17.000  0.00  0.00    +0.000 F 
ATOM      8  F   UNL     1      -2.672  10.098  18.402  0.00  0.00    +0.000 F 
ATOM      9  C   UNL     1      -0.536   9.602  19.274  0.00  0.00    +0.000 C 
ATOM     10  C   UNL     1      -0.882  10.071  20.706  0.00  0.00    +0.000 C 
ENDROOT
BRANCH   2  11
ATOM     11  C   UNL     1      -0.720  13.475  22.537  0.00  0.00    +0.000 A 
ATOM     12  C   UNL     1      -1.766  13.754  23.438  0.00  0.00    +0.000 A 
ATOM     13  C   UNL     1      -2.104  15.059  23.804  0.00  0.00    +0.000 A 
ATOM     14  C   UNL     1      -1.314  16.117  23.385  0.00  0.00    +0.000 A 
ATOM     15  C   UNL     1      -0.173  15.855  22.632  0.00  0.00    +0.000 A 
ATOM     16  C   UNL     1       0.130  14.543  22.191  0.00  0.00    +0.000 A 
BRANCH  16  17
ATOM     17  N   UNL     1       1.327  14.393  21.445  0.00  0.00    +0.000 N 
ATOM     18  N   UNL     1       2.537  14.120  21.991  0.00  0.00    +0.000 NA
ATOM     19  C   UNL     1       3.336  14.126  20.919  0.00  0.00    +0.000 A 
ATOM     20  C   UNL     1       2.582  14.309  19.759  0.00  0.00    +0.000 A 
ATOM     21  N   UNL     1       1.288  14.376  20.074  0.00  0.00    +0.000 NA
ENDBRANCH  16  17
ENDBRANCH   2  11
BRANCH   9  22
ATOM     22  O   UNL     1       0.869   9.814  19.094  0.00  0.00    +0.000 OA
BRANCH  22  23
ATOM     23  C   UNL     1       1.690   8.714  18.907  0.00  0.00    +0.000 A 
ATOM     24  C   UNL     1       2.482   8.803  17.775  0.00  0.00    +0.000 A 
ATOM     25  C   UNL     1       3.248   7.710  17.410  0.00  0.00    +0.000 A 
ATOM     26  C   UNL     1       3.273   6.578  18.224  0.00  0.00    +0.000 A 
ATOM     27  C   UNL     1       4.084   5.479  17.877  0.00  0.00    +0.000 A 
ATOM     28  C   UNL     1       4.201   4.391  18.734  0.00  0.00    +0.000 A 
ATOM     29  C   UNL     1       3.483   4.393  19.923  0.00  0.00    +0.000 A 
ATOM     30  C   UNL     1       2.628   5.469  20.233  0.00  0.00    +0.000 A 
ATOM     31  C   UNL     1       2.495   6.588  19.404  0.00  0.00    +0.000 A 
ATOM     32  N   UNL     1       1.689   7.635  19.730  0.00  0.00    +0.000 NA
ENDBRANCH  22  23
ENDBRANCH   9  22
TORSDOF 4
ENDMDL
MODEL 5
REMARK VINA RESULT:      -7.6      3.380      5.096
REMARK  Name = 
REMARK  4 active torsions:
REMARK  status: ('A' for Active; 'I' for Inactive)
REMARK    1  A    between atoms: C_2  and  C_3
REMARK    2  A    between atoms: C_8  and  N_9
REMARK    3  A    between atoms: C_20  and  O_21
REMARK    4  A    between atoms: O_21  and  C_22
REMARK                            x       y       z     vdW  Elec       q    Type
REMARK                         _______ _______ _______ _____ _____    ______ ____
ROOT
ATOM      1  O   UNL     1      -0.412  12.382  23.111  0.00  0.00    +0.000 OA
ATOM      2  C   UNL     1      -0.682  12.952  22.055  0.00  0.00    +0.000 C 
ATOM      3  N   UNL     1      -0.935  12.241  20.855  0.00  0.00    +0.000 N 
ATOM      4  C   UNL     1      -1.469  12.847  19.635  0.00  0.00    +0.000 C 
ATOM      5  C   UNL     1      -1.000  12.165  18.368  0.00  0.00    +0.000 C 
ATOM      6  C   UNL     1      -1.234  10.672  18.451  0.00  0.00    +0.000 C 
ATOM      7  F   UNL     1      -0.781  10.104  17.302  0.00  0.00    +0.000 F 
ATOM      8  F   UNL     1      -2.582  10.455  18.462  0.00  0.00    +0.000 F 
ATOM      9  C   UNL     1      -0.611  10.005  19.677  0.00  0.00    +0.000 C 
ATOM     10  C   UNL     1      -1.074  10.770  20.940  0.00  0.00    +0.000 C 
ENDROOT
BRANCH   2  11
ATOM     11  C   UNL     1      -0.823  14.451  22.101  0.00  0.00    +0.000 A 
ATOM     12  C   UNL     1      -1.973  14.967  22.730  0.00  0.00    +0.000 A 
ATOM     13  C   UNL     1      -2.236  16.338  22.790  0.00  0.00    +0.000 A 
ATOM     14  C   UNL     1      -1.285  17.241  22.343  0.00  0.00    +0.000 A 
ATOM     15  C   UNL     1      -0.065  16.763  21.872  0.00  0.00    +0.000 A 
ATOM     16  C   UNL     1       0.175  15.373  21.735  0.00  0.00    +0.000 A 
BRANCH  16  17
ATOM     17  N   UNL     1       1.460  15.004  21.262  0.00  0.00    +0.000 N 
ATOM     18  N   UNL     1       1.866  15.134  19.975  0.00  0.00    +0.000 NA
ATOM     19  C   UNL     1       3.098  14.617  20.016  0.00  0.00    +0.000 A 
ATOM     20  C   UNL     1       3.434  14.276  21.328  0.00  0.00    +0.000 A 
ATOM     21  N   UNL     1       2.436  14.615  22.145  0.00  0.00    +0.000 NA
ENDBRANCH  16  17
ENDBRANCH   2  11
BRANCH   9  22
ATOM     22  O   UNL     1       0.819  10.088  19.642  0.00  0.00    +0.000 OA
BRANCH  22  23
ATOM     23  C   UNL     1       1.542   8.960  19.293  0.00  0.00    +0.000 A 
ATOM     24  C   UNL     1       2.171   9.067  18.064  0.00  0.00    +0.000 A 
ATOM     25  C   UNL     1       2.815   7.957  17.546  0.00  0.00    +0.000 A 
ATOM     26  C   UNL     1       2.891   6.785  18.298  0.00  0.00    +0.000 A 
ATOM     27  C   UNL     1       3.582   5.667  17.791  0.00  0.00    +0.000 A 
ATOM     28  C   UNL     1       3.757   4.532  18.574  0.00  0.00    +0.000 A 
ATOM     29  C   UNL     1       3.214   4.508  19.853  0.00  0.00    +0.000 A 
ATOM     30  C   UNL     1       2.473   5.608  20.328  0.00  0.00    +0.000 A 
ATOM     31  C   UNL     1       2.288   6.773  19.576  0.00  0.00    +0.000 A 
ATOM     32  N   UNL     1       1.596   7.841  20.059  0.00  0.00    +0.000 NA
ENDBRANCH  22  23
ENDBRANCH   9  22
TORSDOF 4
ENDMDL
MODEL 6
REMARK VINA RESULT:      -7.6      3.291      4.772
REMARK  Name = 
REMARK  4 active torsions:
REMARK  status: ('A' for Active; 'I' for Inactive)
REMARK    1  A    between atoms: C_2  and  C_3
REMARK    2  A    between atoms: C_8  and  N_9
REMARK    3  A    between atoms: C_20  and  O_21
REMARK    4  A    between atoms: O_21  and  C_22
REMARK                            x       y       z     vdW  Elec       q    Type
REMARK                         _______ _______ _______ _____ _____    ______ ____
ROOT
ATOM      1  O   UNL     1      -0.509  11.760  23.316  0.00  0.00    +0.000 OA
ATOM      2  C   UNL     1      -0.752  12.439  22.319  0.00  0.00    +0.000 C 
ATOM      3  N   UNL     1      -0.950  11.860  21.041  0.00  0.00    +0.000 N 
ATOM      4  C   UNL     1      -1.452  12.589  19.875  0.00  0.00    +0.000 C 
ATOM      5  C   UNL     1      -0.926  12.058  18.560  0.00  0.00    +0.000 C 
ATOM      6  C   UNL     1      -1.133  10.561  18.470  0.00  0.00    +0.000 C 
ATOM      7  F   UNL     1      -0.630  10.130  17.284  0.00  0.00    +0.000 F 
ATOM      8  F   UNL     1      -2.477  10.324  18.407  0.00  0.00    +0.000 F 
ATOM      9  C   UNL     1      -0.541   9.773  19.638  0.00  0.00    +0.000 C 
ATOM     10  C   UNL     1      -1.063  10.387  20.959  0.00  0.00    +0.000 C 
ENDROOT
BRANCH   2  11
ATOM     11  C   UNL     1      -0.923  13.921  22.525  0.00  0.00    +0.000 A 
ATOM     12  C   UNL     1       0.167  14.746  22.186  0.00  0.00    +0.000 A 
ATOM     13  C   UNL     1       0.142  16.129  22.379  0.00  0.00    +0.000 A 
ATOM     14  C   UNL     1      -1.029  16.745  22.790  0.00  0.00    +0.000 A 
ATOM     15  C   UNL     1      -2.174  15.973  22.969  0.00  0.00    +0.000 A 
ATOM     16  C   UNL     1      -2.134  14.562  22.852  0.00  0.00    +0.000 A 
BRANCH  16  17
ATOM     17  N   UNL     1      -3.364  13.882  23.039  0.00  0.00    +0.000 N 
ATOM     18  N   UNL     1      -4.237  13.595  22.042  0.00  0.00    +0.000 NA
ATOM     19  C   UNL     1      -5.239  13.011  22.706  0.00  0.00    +0.000 A 
ATOM     20  C   UNL     1      -4.910  12.880  24.057  0.00  0.00    +0.000 A 
ATOM     21  N   UNL     1      -3.674  13.338  24.260  0.00  0.00    +0.000 NA
ENDBRANCH  16  17
ENDBRANCH   2  11
BRANCH   9  22
ATOM     22  O   UNL     1       0.887   9.881  19.665  0.00  0.00    +0.000 OA
BRANCH  22  23
ATOM     23  C   UNL     1       1.644   8.791  19.267  0.00  0.00    +0.000 A 
ATOM     24  C   UNL     1       2.260   8.967  18.040  0.00  0.00    +0.000 A 
ATOM     25  C   UNL     1       2.937   7.899  17.476  0.00  0.00    +0.000 A 
ATOM     26  C   UNL     1       3.056   6.702  18.181  0.00  0.00    +0.000 A 
ATOM     27  C   UNL     1       3.779   5.628  17.627  0.00  0.00    +0.000 A 
ATOM     28  C   UNL     1       3.996   4.470  18.364  0.00  0.00    +0.000 A 
ATOM     29  C   UNL     1       3.464   4.379  19.645  0.00  0.00    +0.000 A 
ATOM     30  C   UNL     1       2.691   5.435  20.167  0.00  0.00    +0.000 A 
ATOM     31  C   UNL     1       2.463   6.621  19.462  0.00  0.00    +0.000 A 
ATOM     32  N   UNL     1       1.740   7.646  19.990  0.00  0.00    +0.000 NA
ENDBRANCH  22  23
ENDBRANCH   9  22
TORSDOF 4
ENDMDL
MODEL 7
REMARK VINA RESULT:      -7.6      1.568      2.941
REMARK  Name = 
REMARK  4 active torsions:
REMARK  status: ('A' for Active; 'I' for Inactive)
REMARK    1  A    between atoms: C_2  and  C_3
REMARK    2  A    between atoms: C_8  and  N_9
REMARK    3  A    between atoms: C_20  and  O_21
REMARK    4  A    between atoms: O_21  and  C_22
REMARK                            x       y       z     vdW  Elec       q    Type
REMARK                         _______ _______ _______ _____ _____    ______ ____
ROOT
ATOM      1  O   UNL     1      -0.108  12.093  18.112  0.00  0.00    +0.000 OA
ATOM      2  C   UNL     1      -0.742  11.438  18.938  0.00  0.00    +0.000 C 
ATOM      3  N   UNL     1      -0.141  10.414  19.713  0.00  0.00    +0.000 N 
ATOM      4  C   UNL     1      -0.785   9.757  20.852  0.00  0.00    +0.000 C 
ATOM      5  C   UNL     1      -0.344   8.323  21.049  0.00  0.00    +0.000 C 
ATOM      6  C   UNL     1       1.167   8.231  21.074  0.00  0.00    +0.000 C 
ATOM      7  F   UNL     1       1.512   6.926  21.234  0.00  0.00    +0.000 F 
ATOM      8  F   UNL     1       1.611   8.868  22.197  0.00  0.00    +0.000 F 
ATOM      9  C   UNL     1       1.854   8.836  19.851  0.00  0.00    +0.000 C 
ATOM     10  C   UNL     1       1.332  10.279  19.659  0.00  0.00    +0.000 C 
ENDROOT
BRANCH   2  11
ATOM     11  C   UNL     1      -2.179  11.828  19.166  0.00  0.00    +0.000 A 
ATOM     12  C   UNL     1      -3.150  11.186  18.373  0.00  0.00    +0.000 A 
ATOM     13  C   UNL     1      -4.508  11.502  18.460  0.00  0.00    +0.000 A 
ATOM     14  C   UNL     1      -4.950  12.372  19.443  0.00  0.00    +0.000 A 
ATOM     15  C   UNL     1      -4.032  12.891  20.352  0.00  0.00    +0.000 A 
ATOM     16  C   UNL     1      -2.645  12.637  20.219  0.00  0.00    +0.000 A 
BRANCH  16  17
ATOM     17  N   UNL     1      -1.806  13.203  21.213  0.00  0.00    +0.000 N 
ATOM     18  N   UNL     1      -0.991  14.266  21.010  0.00  0.00    +0.000 NA
ATOM     19  C   UNL     1      -0.386  14.387  22.195  0.00  0.00    +0.000 A 
ATOM     20  C   UNL     1      -0.912  13.464  23.101  0.00  0.00    +0.000 A 
ATOM     21  N   UNL     1      -1.891  12.774  22.515  0.00  0.00    +0.000 NA
ENDBRANCH  16  17
ENDBRANCH   2  11
BRANCH   9  22
ATOM     22  O   UNL     1       1.525   8.112  18.659  0.00  0.00    +0.000 OA
BRANCH  22  23
ATOM     23  C   UNL     1       2.435   7.191  18.168  0.00  0.00    +0.000 A 
ATOM     24  C   UNL     1       1.959   5.891  18.169  0.00  0.00    +0.000 A 
ATOM     25  C   UNL     1       2.822   4.865  17.823  0.00  0.00    +0.000 A 
ATOM     26  C   UNL     1       4.119   5.161  17.406  0.00  0.00    +0.000 A 
ATOM     27  C   UNL     1       4.986   4.122  17.014  0.00  0.00    +0.000 A 
ATOM     28  C   UNL     1       6.242   4.411  16.494  0.00  0.00    +0.000 A 
ATOM     29  C   UNL     1       6.638   5.739  16.393  0.00  0.00    +0.000 A 
ATOM     30  C   UNL     1       5.788   6.768  16.844  0.00  0.00    +0.000 A 
ATOM     31  C   UNL     1       4.511   6.518  17.359  0.00  0.00    +0.000 A 
ATOM     32  N   UNL     1       3.687   7.523  17.762  0.00  0.00    +0.000 NA
ENDBRANCH  22  23
ENDBRANCH   9  22
TORSDOF 4
ENDMDL
MODEL 8
REMARK VINA RESULT:      -7.6      3.244      9.630
REMARK  Name = 
REMARK  4 active torsions:
REMARK  status: ('A' for Active; 'I' for Inactive)
REMARK    1  A    between atoms: C_2  and  C_3
REMARK    2  A    between atoms: C_8  and  N_9
REMARK    3  A    between atoms: C_20  and  O_21
REMARK    4  A    between atoms: O_21  and  C_22
REMARK                            x       y       z     vdW  Elec       q    Type
REMARK                         _______ _______ _______ _____ _____    ______ ____
ROOT
ATOM      1  O   UNL     1       1.249  11.946  19.365  0.00  0.00    +0.000 OA
ATOM      2  C   UNL     1       0.564  10.972  19.056  0.00  0.00    +0.000 C 
ATOM      3  N   UNL     1      -0.808  11.089  18.721  0.00  0.00    +0.000 N 
ATOM      4  C   UNL     1      -1.610  10.010  18.141  0.00  0.00    +0.000 C 
ATOM      5  C   UNL     1      -3.072  10.073  18.524  0.00  0.00    +0.000 C 
ATOM      6  C   UNL     1      -3.633  11.452  18.255  0.00  0.00    +0.000 C 
ATOM      7  F   UNL     1      -4.939  11.464  18.631  0.00  0.00    +0.000 F 
ATOM      8  F   UNL     1      -3.639  11.649  16.903  0.00  0.00    +0.000 F 
ATOM      9  C   UNL     1      -2.858  12.588  18.922  0.00  0.00    +0.000 C 
ATOM     10  C   UNL     1      -1.364  12.449  18.546  0.00  0.00    +0.000 C 
ENDROOT
BRANCH   2  11
ATOM     11  C   UNL     1       1.266   9.643  18.959  0.00  0.00    +0.000 A 
ATOM     12  C   UNL     1       2.060   9.420  17.817  0.00  0.00    +0.000 A 
ATOM     13  C   UNL     1       2.718   8.208  17.594  0.00  0.00    +0.000 A 
ATOM     14  C   UNL     1       2.712   7.231  18.576  0.00  0.00    +0.000 A 
ATOM     15  C   UNL     1       2.077   7.492  19.787  0.00  0.00    +0.000 A 
ATOM     16  C   UNL     1       1.342   8.686  19.988  0.00  0.00    +0.000 A 
BRANCH  16  17
ATOM     17  N   UNL     1       0.752   8.850  21.267  0.00  0.00    +0.000 N 
ATOM     18  N   UNL     1      -0.496   8.431  21.592  0.00  0.00    +0.000 NA
ATOM     19  C   UNL     1      -0.611   8.848  22.857  0.00  0.00    +0.000 A 
ATOM     20  C   UNL     1       0.588   9.419  23.287  0.00  0.00    +0.000 A 
ATOM     21  N   UNL     1       1.497   9.332  22.315  0.00  0.00    +0.000 NA
ENDBRANCH  16  17
ENDBRANCH   2  11
BRANCH   9  22
ATOM     22  O   UNL     1      -2.938  12.501  20.350  0.00  0.00    +0.000 OA
BRANCH  22  23
ATOM     23  C   UNL     1      -3.992  13.125  20.996  0.00  0.00    +0.000 A 
ATOM     24  C   UNL     1      -4.082  14.479  20.723  0.00  0.00    +0.000 A 
ATOM     25  C   UNL     1      -5.013  15.238  21.411  0.00  0.00    +0.000 A 
ATOM     26  C   UNL     1      -5.892  14.619  22.298  0.00  0.00    +0.000 A 
ATOM     27  C   UNL     1      -6.869  15.382  22.969  0.00  0.00    +0.000 A 
ATOM     28  C   UNL     1      -7.819  14.762  23.772  0.00  0.00    +0.000 A 
ATOM     29  C   UNL     1      -7.772  13.382  23.924  0.00  0.00    +0.000 A 
ATOM     30  C   UNL     1      -6.755  12.634  23.298  0.00  0.00    +0.000 A 
ATOM     31  C   UNL     1      -5.790  13.220  22.471  0.00  0.00    +0.000 A 
ATOM     32  N   UNL     1      -4.832  12.482  21.847  0.00  0.00    +0.000 NA
ENDBRANCH  22  23
ENDBRANCH   9  22
TORSDOF 4
ENDMDL
MODEL 9
REMARK VINA RESULT:      -7.5      4.204      5.675
REMARK  Name = 
REMARK  4 active torsions:
REMARK  status: ('A' for Active; 'I' for Inactive)
REMARK    1  A    between atoms: C_2  and  C_3
REMARK    2  A    between atoms: C_8  and  N_9
REMARK    3  A    between atoms: C_20  and  O_21
REMARK    4  A    between atoms: O_21  and  C_22
REMARK                            x       y       z     vdW  Elec       q    Type
REMARK                         _______ _______ _______ _____ _____    ______ ____
ROOT
ATOM      1  O   UNL     1       1.580  14.709  20.730  0.00  0.00    +0.000 OA
ATOM      2  C   UNL     1       0.868  14.642  19.729  0.00  0.00    +0.000 C 
ATOM      3  N   UNL     1       0.066  13.509  19.446  0.00  0.00    +0.000 N 
ATOM      4  C   UNL     1      -0.955  13.462  18.398  0.00  0.00    +0.000 C 
ATOM      5  C   UNL     1      -1.147  12.083  17.805  0.00  0.00    +0.000 C 
ATOM      6  C   UNL     1      -1.359  11.060  18.899  0.00  0.00    +0.000 C 
ATOM      7  F   UNL     1      -1.508   9.839  18.320  0.00  0.00    +0.000 F 
ATOM      8  F   UNL     1      -2.555  11.327  19.503  0.00  0.00    +0.000 F 
ATOM      9  C   UNL     1      -0.259  11.034  19.959  0.00  0.00    +0.000 C 
ATOM     10  C   UNL     1      -0.061  12.472  20.495  0.00  0.00    +0.000 C 
ENDROOT
BRANCH   2  11
ATOM     11  C   UNL     1       0.809  15.863  18.848  0.00  0.00    +0.000 A 
ATOM     12  C   UNL     1      -0.420  16.549  18.785  0.00  0.00    +0.000 A 
ATOM     13  C   UNL     1      -0.608  17.663  17.964  0.00  0.00    +0.000 A 
ATOM     14  C   UNL     1       0.470  18.207  17.285  0.00  0.00    +0.000 A 
ATOM     15  C   UNL     1       1.734  17.651  17.463  0.00  0.00    +0.000 A 
ATOM     16  C   UNL     1       1.916  16.474  18.230  0.00  0.00    +0.000 A 
BRANCH  16  17
ATOM     17  N   UNL     1       3.250  16.008  18.355  0.00  0.00    +0.000 N 
ATOM     18  N   UNL     1       4.096  16.374  19.349  0.00  0.00    +0.000 NA
ATOM     19  C   UNL     1       5.218  15.730  19.014  0.00  0.00    +0.000 A 
ATOM     20  C   UNL     1       4.996  14.929  17.892  0.00  0.00    +0.000 A 
ATOM     21  N   UNL     1       3.717  15.019  17.526  0.00  0.00    +0.000 NA
ENDBRANCH  16  17
ENDBRANCH   2  11
BRANCH   9  22
ATOM     22  O   UNL     1       0.993  10.623  19.397  0.00  0.00    +0.000 OA
BRANCH  22  23
ATOM     23  C   UNL     1       1.365   9.294  19.503  0.00  0.00    +0.000 A 
ATOM     24  C   UNL     1       0.953   8.699  20.683  0.00  0.00    +0.000 A 
ATOM     25  C   UNL     1       1.376   7.411  20.963  0.00  0.00    +0.000 A 
ATOM     26  C   UNL     1       2.136   6.711  20.026  0.00  0.00    +0.000 A 
ATOM     27  C   UNL     1       2.533   5.386  20.291  0.00  0.00    +0.000 A 
ATOM     28  C   UNL     1       3.196   4.642  19.322  0.00  0.00    +0.000 A 
ATOM     29  C   UNL     1       3.485   5.236  18.100  0.00  0.00    +0.000 A 
ATOM     30  C   UNL     1       3.137   6.581  17.867  0.00  0.00    +0.000 A 
ATOM     31  C   UNL     1       2.456   7.358  18.811  0.00  0.00    +0.000 A 
ATOM     32  N   UNL     1       2.099   8.647  18.562  0.00  0.00    +0.000 NA
ENDBRANCH  22  23
ENDBRANCH   9  22
TORSDOF 4
ENDMDL
