MODEL 1
REMARK VINA RESULT:      -8.0      0.000      0.000
REMARK  Name = 
REMARK  6 active torsions:
REMARK  status: ('A' for Active; 'I' for Inactive)
REMARK    1  A    between atoms: C_1  and  N_2
REMARK    2  A    between atoms: N_2  and  C_3
REMARK    3  A    between atoms: C_8  and  N_9
REMARK    4  A    between atoms: N_9  and  C_10
REMARK    5  A    between atoms: N_21  and  C_22
REMARK    6  A    between atoms: C_27  and  C_28
REMARK                            x       y       z     vdW  Elec       q    Type
REMARK                         _______ _______ _______ _____ _____    ______ ____
ROOT
ATOM      1  C   UNL     1      -2.292  10.762  16.196  0.00  0.00    +0.000 C 
ATOM      2  N   UNL     1      -2.262  11.168  17.588  0.00  0.00    +0.000 N 
ATOM      3  C   UNL     1      -3.524  11.361  18.281  0.00  0.00    +0.000 C 
ATOM      4  C   UNL     1      -1.241  10.614  18.355  0.00  0.00    +0.000 A 
ATOM      5  N   UNL     1      -0.257   9.944  17.757  0.00  0.00    +0.000 NA
ATOM      6  C   UNL     1       0.687   9.371  18.529  0.00  0.00    +0.000 A 
ATOM      7  C   UNL     1       0.683   9.432  19.913  0.00  0.00    +0.000 A 
ATOM      8  C   UNL     1      -0.294  10.256  20.453  0.00  0.00    +0.000 A 
ATOM      9  N   UNL     1      -1.261  10.790  19.680  0.00  0.00    +0.000 NA
ATOM     10  C   UNL     1       1.676   8.613  20.703  0.00  0.00    +0.000 C 
ATOM     11  C   UNL     1       1.480   7.098  20.461  0.00  0.00    +0.000 C 
ATOM     12  N   UNL     1       2.081   6.600  19.205  0.00  0.00    +0.000 N 
ATOM     13  C   UNL     1       1.609   7.129  17.922  0.00  0.00    +0.000 C 
ATOM     14  C   UNL     1       1.767   8.635  17.789  0.00  0.00    +0.000 C 
ENDROOT
BRANCH  12  15
ATOM     15  C   UNL     1       3.120   5.696  19.299  0.00  0.00    +0.000 A 
ATOM     16  N   UNL     1       4.354   6.239  19.094  0.00  0.00    +0.000 NA
ATOM     17  C   UNL     1       5.459   5.457  19.122  0.00  0.00    +0.000 A 
ATOM     18  C   UNL     1       5.425   4.102  19.340  0.00  0.00    +0.000 A 
ATOM     19  C   UNL     1       4.182   3.539  19.570  0.00  0.00    +0.000 A 
ATOM     20  C   UNL     1       3.010   4.329  19.574  0.00  0.00    +0.000 A 
BRANCH  20  21
ATOM     21  C   UNL     1       1.749   3.589  19.921  0.00  0.00    +0.000 C 
ATOM     22  F   UNL     1       0.710   3.680  19.050  0.00  0.00    +0.000 F 
ATOM     23  F   UNL     1       1.979   2.252  20.089  0.00  0.00    +0.000 F 
ATOM     24  F   UNL     1       1.223   4.004  21.117  0.00  0.00    +0.000 F 
ENDBRANCH  20  21
ENDBRANCH  12  15
BRANCH   8  25
ATOM     25  N   UNL     1      -0.262  10.623  21.822  0.00  0.00    +0.000 N 
ATOM     26  H   UNL     1      -0.250   9.809  22.424  0.00  0.00    +0.000 HD
BRANCH  25  27
ATOM     27  C   UNL     1      -0.915  11.731  22.416  0.00  0.00    +0.000 A 
ATOM     28  C   UNL     1      -0.406  13.037  22.339  0.00  0.00    +0.000 A 
ATOM     29  C   UNL     1      -1.096  14.124  22.882  0.00  0.00    +0.000 A 
ATOM     30  C   UNL     1      -2.293  13.918  23.562  0.00  0.00    +0.000 A 
ATOM     31 CL   UNL     1      -3.121  15.304  24.175  0.00  0.00    +0.000 Cl
ATOM     32  C   UNL     1      -2.774  12.616  23.725  0.00  0.00    +0.000 A 
ATOM     33 CL   UNL     1      -4.228  12.273  24.596  0.00  0.00    +0.000 Cl
ATOM     34  C   UNL     1      -2.081  11.531  23.166  0.00  0.00    +0.000 A 
ENDBRANCH  25  27
ENDBRANCH   8  25
TORSDOF 4
ENDMDL
MODEL 2
REMARK VINA RESULT:      -7.8      0.558      1.424
REMARK  Name = 
REMARK  6 active torsions:
REMARK  status: ('A' for Active; 'I' for Inactive)
REMARK    1  A    between atoms: C_1  and  N_2
REMARK    2  A    between atoms: N_2  and  C_3
REMARK    3  A    between atoms: C_8  and  N_9
REMARK    4  A    between atoms: N_9  and  C_10
REMARK    5  A    between atoms: N_21  and  C_22
REMARK    6  A    between atoms: C_27  and  C_28
REMARK                            x       y       z     vdW  Elec       q    Type
REMARK                         _______ _______ _______ _____ _____    ______ ____
ROOT
ATOM      1  C   UNL     1      -2.280  10.830  16.254  0.00  0.00    +0.000 C 
ATOM      2  N   UNL     1      -2.207  11.258  17.638  0.00  0.00    +0.000 N 
ATOM      3  C   UNL     1      -3.445  11.489  18.359  0.00  0.00    +0.000 C 
ATOM      4  C   UNL     1      -1.178  10.695  18.388  0.00  0.00    +0.000 A 
ATOM      5  N   UNL     1      -0.223   9.995  17.776  0.00  0.00    +0.000 NA
ATOM      6  C   UNL     1       0.728   9.415  18.534  0.00  0.00    +0.000 A 
ATOM      7  C   UNL     1       0.761   9.498  19.916  0.00  0.00    +0.000 A 
ATOM      8  C   UNL     1      -0.184  10.352  20.467  0.00  0.00    +0.000 A 
ATOM      9  N   UNL     1      -1.160  10.893  19.710  0.00  0.00    +0.000 NA
ATOM     10  C   UNL     1       1.757   8.671  20.694  0.00  0.00    +0.000 C 
ATOM     11  C   UNL     1       1.524   7.157  20.483  0.00  0.00    +0.000 C 
ATOM     12  N   UNL     1       2.082   6.626  19.220  0.00  0.00    +0.000 N 
ATOM     13  C   UNL     1       1.588   7.145  17.941  0.00  0.00    +0.000 C 
ATOM     14  C   UNL     1       1.774   8.645  17.779  0.00  0.00    +0.000 C 
ENDROOT
BRANCH  12  15
ATOM     15  C   UNL     1       3.104   5.702  19.302  0.00  0.00    +0.000 A 
ATOM     16  N   UNL     1       4.352   6.233  19.152  0.00  0.00    +0.000 NA
ATOM     17  C   UNL     1       5.443   5.432  19.175  0.00  0.00    +0.000 A 
ATOM     18  C   UNL     1       5.382   4.070  19.335  0.00  0.00    +0.000 A 
ATOM     19  C   UNL     1       4.126   3.518  19.511  0.00  0.00    +0.000 A 
ATOM     20  C   UNL     1       2.966   4.327  19.518  0.00  0.00    +0.000 A 
BRANCH  20  21
ATOM     21  C   UNL     1       1.685   3.594  19.801  0.00  0.00    +0.000 C 
ATOM     22  F   UNL     1       0.968   3.983  20.887  0.00  0.00    +0.000 F 
ATOM     23  F   UNL     1       0.823   3.658  18.742  0.00  0.00    +0.000 F 
ATOM     24  F   UNL     1       1.894   2.254  19.998  0.00  0.00    +0.000 F 
ENDBRANCH  20  21
ENDBRANCH  12  15
BRANCH   8  25
ATOM     25  N   UNL     1      -0.110  10.739  21.828  0.00  0.00    +0.000 N 
ATOM     26  H   UNL     1       0.020   9.940  22.435  0.00  0.00    +0.000 HD
BRANCH  25  27
ATOM     27  C   UNL     1      -0.835  11.785  22.450  0.00  0.00    +0.000 A 
ATOM     28  C   UNL     1      -2.063  11.573  23.096  0.00  0.00    +0.000 A 
ATOM     29  C   UNL     1      -2.734  12.607  23.753  0.00  0.00    +0.000 A 
ATOM     30  C   UNL     1      -2.208  13.897  23.735  0.00  0.00    +0.000 A 
ATOM     31 CL   UNL     1      -3.059  15.126  24.600  0.00  0.00    +0.000 Cl
ATOM     32  C   UNL     1      -1.030  14.148  23.026  0.00  0.00    +0.000 A 
ATOM     33 CL   UNL     1      -0.340  15.729  22.917  0.00  0.00    +0.000 Cl
ATOM     34  C   UNL     1      -0.358  13.100  22.378  0.00  0.00    +0.000 A 
ENDBRANCH  25  27
ENDBRANCH   8  25
TORSDOF 4
ENDMDL
MODEL 3
REMARK VINA RESULT:      -7.7      4.903      9.067
REMARK  Name = 
REMARK  6 active torsions:
REMARK  status: ('A' for Active; 'I' for Inactive)
REMARK    1  A    between atoms: C_1  and  N_2
REMARK    2  A    between atoms: N_2  and  C_3
REMARK    3  A    between atoms: C_8  and  N_9
REMARK    4  A    between atoms: N_9  and  C_10
REMARK    5  A    between atoms: N_21  and  C_22
REMARK    6  A    between atoms: C_27  and  C_28
REMARK                            x       y       z     vdW  Elec       q    Type
REMARK                         _______ _______ _______ _____ _____    ______ ____
ROOT
ATOM      1  C   UNL     1       3.067  16.712  20.924  0.00  0.00    +0.000 C 
ATOM      2  N   UNL     1       3.175  15.540  20.077  0.00  0.00    +0.000 N 
ATOM      3  C   UNL     1       4.349  14.695  20.208  0.00  0.00    +0.000 C 
ATOM      4  C   UNL     1       1.983  14.866  19.825  0.00  0.00    +0.000 A 
ATOM      5  N   UNL     1       0.824  15.424  20.174  0.00  0.00    +0.000 NA
ATOM      6  C   UNL     1      -0.308  14.724  19.970  0.00  0.00    +0.000 A 
ATOM      7  C   UNL     1      -0.333  13.450  19.427  0.00  0.00    +0.000 A 
ATOM      8  C   UNL     1       0.895  12.993  18.968  0.00  0.00    +0.000 A 
ATOM      9  N   UNL     1       2.030  13.678  19.215  0.00  0.00    +0.000 NA
ATOM     10  C   UNL     1      -1.626  12.670  19.400  0.00  0.00    +0.000 C 
ATOM     11  C   UNL     1      -2.158  12.406  20.827  0.00  0.00    +0.000 C 
ATOM     12  N   UNL     1      -2.871  13.552  21.433  0.00  0.00    +0.000 N 
ATOM     13  C   UNL     1      -2.153  14.811  21.654  0.00  0.00    +0.000 C 
ATOM     14  C   UNL     1      -1.577  15.415  20.383  0.00  0.00    +0.000 C 
ENDROOT
BRANCH  12  15
ATOM     15  C   UNL     1      -4.216  13.406  21.706  0.00  0.00    +0.000 A 
ATOM     16  N   UNL     1      -5.034  13.683  20.650  0.00  0.00    +0.000 NA
ATOM     17  C   UNL     1      -6.379  13.615  20.789  0.00  0.00    +0.000 A 
ATOM     18  C   UNL     1      -7.004  13.283  21.966  0.00  0.00    +0.000 A 
ATOM     19  C   UNL     1      -6.189  12.978  23.041  0.00  0.00    +0.000 A 
ATOM     20  C   UNL     1      -4.780  13.014  22.924  0.00  0.00    +0.000 A 
BRANCH  20  21
ATOM     21  C   UNL     1      -4.031  12.579  24.152  0.00  0.00    +0.000 C 
ATOM     22  F   UNL     1      -4.757  12.065  25.178  0.00  0.00    +0.000 F 
ATOM     23  F   UNL     1      -3.083  11.639  23.858  0.00  0.00    +0.000 F 
ATOM     24  F   UNL     1      -3.331  13.612  24.719  0.00  0.00    +0.000 F 
ENDBRANCH  20  21
ENDBRANCH  12  15
BRANCH   8  25
ATOM     25  N   UNL     1       0.984  11.831  18.161  0.00  0.00    +0.000 N 
ATOM     26  H   UNL     1       0.310  11.852  17.406  0.00  0.00    +0.000 HD
BRANCH  25  27
ATOM     27  C   UNL     1       1.271  10.516  18.601  0.00  0.00    +0.000 A 
ATOM     28  C   UNL     1       1.844   9.547  17.763  0.00  0.00    +0.000 A 
ATOM     29  C   UNL     1       2.172   8.273  18.234  0.00  0.00    +0.000 A 
ATOM     30  C   UNL     1       1.887   7.925  19.551  0.00  0.00    +0.000 A 
ATOM     31 CL   UNL     1       2.355   6.352  20.089  0.00  0.00    +0.000 Cl
ATOM     32  C   UNL     1       1.239   8.846  20.380  0.00  0.00    +0.000 A 
ATOM     33 CL   UNL     1       0.809   8.474  22.012  0.00  0.00    +0.000 Cl
ATOM     34  C   UNL     1       0.923  10.127  19.901  0.00  0.00    +0.000 A 
ENDBRANCH  25  27
ENDBRANCH   8  25
TORSDOF 4
ENDMDL
MODEL 4
REMARK VINA RESULT:      -7.6      5.329      9.062
REMARK  Name = 
REMARK  6 active torsions:
REMARK  status: ('A' for Active; 'I' for Inactive)
REMARK    1  A    between atoms: C_1  and  N_2
REMARK    2  A    between atoms: N_2  and  C_3
REMARK    3  A    between atoms: C_8  and  N_9
REMARK    4  A    between atoms: N_9  and  C_10
REMARK    5  A    between atoms: N_21  and  C_22
REMARK    6  A    between atoms: C_27  and  C_28
REMARK                            x       y       z     vdW  Elec       q    Type
REMARK                         _______ _______ _______ _____ _____    ______ ____
ROOT
ATOM      1  C   UNL     1       3.089  16.286  18.988  0.00  0.00    +0.000 C 
ATOM      2  N   UNL     1       3.065  14.957  18.409  0.00  0.00    +0.000 N 
ATOM      3  C   UNL     1       4.302  14.199  18.359  0.00  0.00    +0.000 C 
ATOM      4  C   UNL     1       1.919  14.209  18.666  0.00  0.00    +0.000 A 
ATOM      5  N   UNL     1       0.858  14.796  19.219  0.00  0.00    +0.000 NA
ATOM      6  C   UNL     1      -0.215  14.036  19.508  0.00  0.00    +0.000 A 
ATOM      7  C   UNL     1      -0.271  12.672  19.272  0.00  0.00    +0.000 A 
ATOM      8  C   UNL     1       0.814  12.160  18.575  0.00  0.00    +0.000 A 
ATOM      9  N   UNL     1       1.904  12.916  18.328  0.00  0.00    +0.000 NA
ATOM     10  C   UNL     1      -1.440  11.868  19.791  0.00  0.00    +0.000 C 
ATOM     11  C   UNL     1      -1.521  11.917  21.333  0.00  0.00    +0.000 C 
ATOM     12  N   UNL     1      -2.139  13.148  21.872  0.00  0.00    +0.000 N 
ATOM     13  C   UNL     1      -1.510  14.444  21.606  0.00  0.00    +0.000 C 
ATOM     14  C   UNL     1      -1.375  14.763  20.125  0.00  0.00    +0.000 C 
ENDROOT
BRANCH  12  15
ATOM     15  C   UNL     1      -3.333  13.027  22.554  0.00  0.00    +0.000 A 
ATOM     16  N   UNL     1      -3.195  12.691  23.869  0.00  0.00    +0.000 NA
ATOM     17  C   UNL     1      -4.287  12.505  24.647  0.00  0.00    +0.000 A 
ATOM     18  C   UNL     1      -5.575  12.625  24.187  0.00  0.00    +0.000 A 
ATOM     19  C   UNL     1      -5.733  12.987  22.861  0.00  0.00    +0.000 A 
ATOM     20  C   UNL     1      -4.614  13.215  22.027  0.00  0.00    +0.000 A 
BRANCH  20  21
ATOM     21  C   UNL     1      -4.945  13.681  20.637  0.00  0.00    +0.000 C 
ATOM     22  F   UNL     1      -4.370  13.018  19.601  0.00  0.00    +0.000 F 
ATOM     23  F   UNL     1      -6.291  13.647  20.401  0.00  0.00    +0.000 F 
ATOM     24  F   UNL     1      -4.592  14.991  20.438  0.00  0.00    +0.000 F 
ENDBRANCH  20  21
ENDBRANCH  12  15
BRANCH   8  25
ATOM     25  N   UNL     1       0.782  10.849  18.036  0.00  0.00    +0.000 N 
ATOM     26  H   UNL     1      -0.050  10.698  17.479  0.00  0.00    +0.000 HD
BRANCH  25  27
ATOM     27  C   UNL     1       1.242   9.665  18.664  0.00  0.00    +0.000 A 
ATOM     28  C   UNL     1       0.977   9.372  20.010  0.00  0.00    +0.000 A 
ATOM     29  C   UNL     1       1.391   8.172  20.593  0.00  0.00    +0.000 A 
ATOM     30  C   UNL     1       2.127   7.255  19.847  0.00  0.00    +0.000 A 
ATOM     31 CL   UNL     1       2.574   5.771  20.608  0.00  0.00    +0.000 Cl
ATOM     32  C   UNL     1       2.475   7.564  18.529  0.00  0.00    +0.000 A 
ATOM     33 CL   UNL     1       3.425   6.500  17.553  0.00  0.00    +0.000 Cl
ATOM     34  C   UNL     1       2.045   8.767  17.948  0.00  0.00    +0.000 A 
ENDBRANCH  25  27
ENDBRANCH   8  25
TORSDOF 4
ENDMDL
MODEL 5
REMARK VINA RESULT:      -7.6      2.332      4.359
REMARK  Name = 
REMARK  6 active torsions:
REMARK  status: ('A' for Active; 'I' for Inactive)
REMARK    1  A    between atoms: C_1  and  N_2
REMARK    2  A    between atoms: N_2  and  C_3
REMARK    3  A    between atoms: C_8  and  N_9
REMARK    4  A    between atoms: N_9  and  C_10
REMARK    5  A    between atoms: N_21  and  C_22
REMARK    6  A    between atoms: C_27  and  C_28
REMARK                            x       y       z     vdW  Elec       q    Type
REMARK                         _______ _______ _______ _____ _____    ______ ____
ROOT
ATOM      1  C   UNL     1       0.242   9.517  23.701  0.00  0.00    +0.000 C 
ATOM      2  N   UNL     1      -0.320  10.199  22.551  0.00  0.00    +0.000 N 
ATOM      3  C   UNL     1      -0.448  11.645  22.596  0.00  0.00    +0.000 C 
ATOM      4  C   UNL     1       0.026   9.671  21.310  0.00  0.00    +0.000 A 
ATOM      5  N   UNL     1       0.645   8.493  21.244  0.00  0.00    +0.000 NA
ATOM      6  C   UNL     1       1.017   8.034  20.034  0.00  0.00    +0.000 A 
ATOM      7  C   UNL     1       0.801   8.726  18.853  0.00  0.00    +0.000 A 
ATOM      8  C   UNL     1       0.035   9.875  18.989  0.00  0.00    +0.000 A 
ATOM      9  N   UNL     1      -0.296  10.353  20.206  0.00  0.00    +0.000 NA
ATOM     10  C   UNL     1       1.409   8.223  17.566  0.00  0.00    +0.000 C 
ATOM     11  C   UNL     1       2.953   8.210  17.636  0.00  0.00    +0.000 C 
ATOM     12  N   UNL     1       3.521   7.045  18.349  0.00  0.00    +0.000 N 
ATOM     13  C   UNL     1       3.197   6.841  19.764  0.00  0.00    +0.000 C 
ATOM     14  C   UNL     1       1.707   6.699  20.034  0.00  0.00    +0.000 C 
ENDROOT
BRANCH  12  15
ATOM     15  C   UNL     1       4.287   6.153  17.626  0.00  0.00    +0.000 A 
ATOM     16  N   UNL     1       5.516   6.629  17.274  0.00  0.00    +0.000 NA
ATOM     17  C   UNL     1       6.356   5.870  16.531  0.00  0.00    +0.000 A 
ATOM     18  C   UNL     1       6.044   4.612  16.081  0.00  0.00    +0.000 A 
ATOM     19  C   UNL     1       4.810   4.106  16.447  0.00  0.00    +0.000 A 
ATOM     20  C   UNL     1       3.917   4.860  17.244  0.00  0.00    +0.000 A 
BRANCH  20  21
ATOM     21  C   UNL     1       2.652   4.145  17.627  0.00  0.00    +0.000 C 
ATOM     22  F   UNL     1       2.534   3.729  18.914  0.00  0.00    +0.000 F 
ATOM     23  F   UNL     1       1.546   4.909  17.378  0.00  0.00    +0.000 F 
ATOM     24  F   UNL     1       2.461   3.008  16.886  0.00  0.00    +0.000 F 
ENDBRANCH  20  21
ENDBRANCH  12  15
BRANCH   8  25
ATOM     25  N   UNL     1      -0.486  10.542  17.852  0.00  0.00    +0.000 N 
ATOM     26  H   UNL     1       0.174  11.215  17.482  0.00  0.00    +0.000 HD
BRANCH  25  27
ATOM     27  C   UNL     1      -1.833  10.923  17.638  0.00  0.00    +0.000 A 
ATOM     28  C   UNL     1      -2.491  10.720  16.416  0.00  0.00    +0.000 A 
ATOM     29  C   UNL     1      -3.838  11.051  16.245  0.00  0.00    +0.000 A 
ATOM     30  C   UNL     1      -4.545  11.642  17.288  0.00  0.00    +0.000 A 
ATOM     31 CL   UNL     1      -6.218  11.990  17.033  0.00  0.00    +0.000 Cl
ATOM     32  C   UNL     1      -3.887  11.931  18.487  0.00  0.00    +0.000 A 
ATOM     33 CL   UNL     1      -4.683  12.706  19.811  0.00  0.00    +0.000 Cl
ATOM     34  C   UNL     1      -2.537  11.585  18.653  0.00  0.00    +0.000 A 
ENDBRANCH  25  27
ENDBRANCH   8  25
TORSDOF 4
ENDMDL
MODEL 6
REMARK VINA RESULT:      -7.4      2.834      4.707
REMARK  Name = 
REMARK  6 active torsions:
REMARK  status: ('A' for Active; 'I' for Inactive)
REMARK    1  A    between atoms: C_1  and  N_2
REMARK    2  A    between atoms: N_2  and  C_3
REMARK    3  A    between atoms: C_8  and  N_9
REMARK    4  A    between atoms: N_9  and  C_10
REMARK    5  A    between atoms: N_21  and  C_22
REMARK    6  A    between atoms: C_27  and  C_28
REMARK                            x       y       z     vdW  Elec       q    Type
REMARK                         _______ _______ _______ _____ _____    ______ ____
ROOT
ATOM      1  C   UNL     1       0.367   9.349  23.753  0.00  0.00    +0.000 C 
ATOM      2  N   UNL     1      -0.156  10.039  22.590  0.00  0.00    +0.000 N 
ATOM      3  C   UNL     1      -0.250  11.488  22.627  0.00  0.00    +0.000 C 
ATOM      4  C   UNL     1       0.199   9.498  21.357  0.00  0.00    +0.000 A 
ATOM      5  N   UNL     1       0.791   8.305  21.308  0.00  0.00    +0.000 NA
ATOM      6  C   UNL     1       1.174   7.831  20.107  0.00  0.00    +0.000 A 
ATOM      7  C   UNL     1       0.997   8.524  18.920  0.00  0.00    +0.000 A 
ATOM      8  C   UNL     1       0.257   9.692  19.037  0.00  0.00    +0.000 A 
ATOM      9  N   UNL     1      -0.085  10.183  20.245  0.00  0.00    +0.000 NA
ATOM     10  C   UNL     1       1.617   8.001  17.646  0.00  0.00    +0.000 C 
ATOM     11  C   UNL     1       3.159   7.950  17.745  0.00  0.00    +0.000 C 
ATOM     12  N   UNL     1       3.684   6.775  18.473  0.00  0.00    +0.000 N 
ATOM     13  C   UNL     1       3.328   6.584  19.882  0.00  0.00    +0.000 C 
ATOM     14  C   UNL     1       1.830   6.480  20.124  0.00  0.00    +0.000 C 
ENDROOT
BRANCH  12  15
ATOM     15  C   UNL     1       4.441   5.861  17.768  0.00  0.00    +0.000 A 
ATOM     16  N   UNL     1       5.705   6.286  17.479  0.00  0.00    +0.000 NA
ATOM     17  C   UNL     1       6.542   5.503  16.760  0.00  0.00    +0.000 A 
ATOM     18  C   UNL     1       6.195   4.267  16.273  0.00  0.00    +0.000 A 
ATOM     19  C   UNL     1       4.924   3.812  16.575  0.00  0.00    +0.000 A 
ATOM     20  C   UNL     1       4.031   4.593  17.345  0.00  0.00    +0.000 A 
BRANCH  20  21
ATOM     21  C   UNL     1       2.720   3.930  17.659  0.00  0.00    +0.000 C 
ATOM     22  F   UNL     1       2.536   3.472  18.924  0.00  0.00    +0.000 F 
ATOM     23  F   UNL     1       1.663   4.758  17.404  0.00  0.00    +0.000 F 
ATOM     24  F   UNL     1       2.498   2.832  16.868  0.00  0.00    +0.000 F 
ENDBRANCH  20  21
ENDBRANCH  12  15
BRANCH   8  25
ATOM     25  N   UNL     1      -0.226  10.367  17.887  0.00  0.00    +0.000 N 
ATOM     26  H   UNL     1       0.432  11.065  17.563  0.00  0.00    +0.000 HD
BRANCH  25  27
ATOM     27  C   UNL     1      -1.571  10.716  17.614  0.00  0.00    +0.000 A 
ATOM     28  C   UNL     1      -2.380  11.387  18.543  0.00  0.00    +0.000 A 
ATOM     29  C   UNL     1      -3.687  11.773  18.232  0.00  0.00    +0.000 A 
ATOM     30  C   UNL     1      -4.230  11.448  16.992  0.00  0.00    +0.000 A 
ATOM     31 CL   UNL     1      -5.834  11.989  16.648  0.00  0.00    +0.000 Cl
ATOM     32  C   UNL     1      -3.471  10.705  16.084  0.00  0.00    +0.000 A 
ATOM     33 CL   UNL     1      -4.090  10.223  14.543  0.00  0.00    +0.000 Cl
ATOM     34  C   UNL     1      -2.156  10.332  16.400  0.00  0.00    +0.000 A 
ENDBRANCH  25  27
ENDBRANCH   8  25
TORSDOF 4
ENDMDL
MODEL 7
REMARK VINA RESULT:      -7.4      4.938      9.013
REMARK  Name = 
REMARK  6 active torsions:
REMARK  status: ('A' for Active; 'I' for Inactive)
REMARK    1  A    between atoms: C_1  and  N_2
REMARK    2  A    between atoms: N_2  and  C_3
REMARK    3  A    between atoms: C_8  and  N_9
REMARK    4  A    between atoms: N_9  and  C_10
REMARK    5  A    between atoms: N_21  and  C_22
REMARK    6  A    between atoms: C_27  and  C_28
REMARK                            x       y       z     vdW  Elec       q    Type
REMARK                         _______ _______ _______ _____ _____    ______ ____
ROOT
ATOM      1  C   UNL     1      -4.773  11.218  16.979  0.00  0.00    +0.000 C 
ATOM      2  N   UNL     1      -3.451  10.622  16.974  0.00  0.00    +0.000 N 
ATOM      3  C   UNL     1      -2.860  10.253  15.700  0.00  0.00    +0.000 C 
ATOM      4  C   UNL     1      -2.560  11.124  17.919  0.00  0.00    +0.000 A 
ATOM      5  N   UNL     1      -3.006  11.933  18.880  0.00  0.00    +0.000 NA
ATOM      6  C   UNL     1      -2.112  12.448  19.746  0.00  0.00    +0.000 A 
ATOM      7  C   UNL     1      -0.752  12.192  19.685  0.00  0.00    +0.000 A 
ATOM      8  C   UNL     1      -0.385  11.240  18.745  0.00  0.00    +0.000 A 
ATOM      9  N   UNL     1      -1.275  10.762  17.852  0.00  0.00    +0.000 NA
ATOM     10  C   UNL     1       0.196  12.952  20.582  0.00  0.00    +0.000 C 
ATOM     11  C   UNL     1       0.156  14.470  20.293  0.00  0.00    +0.000 C 
ATOM     12  N   UNL     1      -0.986  15.179  20.913  0.00  0.00    +0.000 N 
ATOM     13  C   UNL     1      -2.353  14.807  20.536  0.00  0.00    +0.000 C 
ATOM     14  C   UNL     1      -2.684  13.348  20.805  0.00  0.00    +0.000 C 
ENDROOT
BRANCH  12  15
ATOM     15  C   UNL     1      -0.712  16.124  21.881  0.00  0.00    +0.000 A 
ATOM     16  N   UNL     1      -0.294  17.325  21.388  0.00  0.00    +0.000 NA
ATOM     17  C   UNL     1       0.043  18.330  22.229  0.00  0.00    +0.000 A 
ATOM     18  C   UNL     1       0.002  18.221  23.597  0.00  0.00    +0.000 A 
ATOM     19  C   UNL     1      -0.441  17.016  24.113  0.00  0.00    +0.000 A 
ATOM     20  C   UNL     1      -0.825  15.953  23.264  0.00  0.00    +0.000 A 
BRANCH  20  21
ATOM     21  C   UNL     1      -1.361  14.740  23.971  0.00  0.00    +0.000 C 
ATOM     22  F   UNL     1      -0.890  13.528  23.578  0.00  0.00    +0.000 F 
ATOM     23  F   UNL     1      -1.144  14.805  25.319  0.00  0.00    +0.000 F 
ATOM     24  F   UNL     1      -2.721  14.631  23.844  0.00  0.00    +0.000 F 
ENDBRANCH  20  21
ENDBRANCH  12  15
BRANCH   8  25
ATOM     25  N   UNL     1       0.920  10.686  18.741  0.00  0.00    +0.000 N 
ATOM     26  H   UNL     1       1.439  10.965  17.917  0.00  0.00    +0.000 HD
BRANCH  25  27
ATOM     27  C   UNL     1       1.296   9.406  19.217  0.00  0.00    +0.000 A 
ATOM     28  C   UNL     1       0.998   8.965  20.515  0.00  0.00    +0.000 A 
ATOM     29  C   UNL     1       1.328   7.677  20.945  0.00  0.00    +0.000 A 
ATOM     30  C   UNL     1       2.014   6.816  20.093  0.00  0.00    +0.000 A 
ATOM     31 CL   UNL     1       2.357   5.222  20.664  0.00  0.00    +0.000 Cl
ATOM     32  C   UNL     1       2.397   7.264  18.825  0.00  0.00    +0.000 A 
ATOM     33 CL   UNL     1       3.290   6.271  17.728  0.00  0.00    +0.000 Cl
ATOM     34  C   UNL     1       2.051   8.555  18.398  0.00  0.00    +0.000 A 
ENDBRANCH  25  27
ENDBRANCH   8  25
TORSDOF 4
ENDMDL
MODEL 8
REMARK VINA RESULT:      -7.3      5.607      9.813
REMARK  Name = 
REMARK  6 active torsions:
REMARK  status: ('A' for Active; 'I' for Inactive)
REMARK    1  A    between atoms: C_1  and  N_2
REMARK    2  A    between atoms: N_2  and  C_3
REMARK    3  A    between atoms: C_8  and  N_9
REMARK    4  A    between atoms: N_9  and  C_10
REMARK    5  A    between atoms: N_21  and  C_22
REMARK    6  A    between atoms: C_27  and  C_28
REMARK                            x       y       z     vdW  Elec       q    Type
REMARK                         _______ _______ _______ _____ _____    ______ ____
ROOT
ATOM      1  C   UNL     1       1.450   3.086  21.018  0.00  0.00    +0.000 C 
ATOM      2  N   UNL     1       2.572   3.266  20.117  0.00  0.00    +0.000 N 
ATOM      3  C   UNL     1       2.831   2.243  19.119  0.00  0.00    +0.000 C 
ATOM      4  C   UNL     1       2.809   4.574  19.704  0.00  0.00    +0.000 A 
ATOM      5  N   UNL     1       2.165   5.579  20.296  0.00  0.00    +0.000 NA
ATOM      6  C   UNL     1       2.372   6.828  19.838  0.00  0.00    +0.000 A 
ATOM      7  C   UNL     1       3.210   7.124  18.775  0.00  0.00    +0.000 A 
ATOM      8  C   UNL     1       3.943   6.046  18.299  0.00  0.00    +0.000 A 
ATOM      9  N   UNL     1       3.700   4.792  18.732  0.00  0.00    +0.000 NA
ATOM     10  C   UNL     1       3.243   8.526  18.213  0.00  0.00    +0.000 C 
ATOM     11  C   UNL     1       1.867   8.942  17.645  0.00  0.00    +0.000 C 
ATOM     12  N   UNL     1       0.894   9.384  18.668  0.00  0.00    +0.000 N 
ATOM     13  C   UNL     1       0.470   8.445  19.710  0.00  0.00    +0.000 C 
ATOM     14  C   UNL     1       1.618   7.912  20.554  0.00  0.00    +0.000 C 
ENDROOT
BRANCH  12  15
ATOM     15  C   UNL     1       0.474  10.698  18.635  0.00  0.00    +0.000 A 
ATOM     16  N   UNL     1       1.409  11.595  19.063  0.00  0.00    +0.000 NA
ATOM     17  C   UNL     1       1.116  12.916  19.117  0.00  0.00    +0.000 A 
ATOM     18  C   UNL     1      -0.105  13.437  18.768  0.00  0.00    +0.000 A 
ATOM     19  C   UNL     1      -1.057  12.544  18.311  0.00  0.00    +0.000 A 
ATOM     20  C   UNL     1      -0.778  11.161  18.217  0.00  0.00    +0.000 A 
BRANCH  20  21
ATOM     21  C   UNL     1      -1.882  10.330  17.627  0.00  0.00    +0.000 C 
ATOM     22  F   UNL     1      -2.506   9.444  18.446  0.00  0.00    +0.000 F 
ATOM     23  F   UNL     1      -2.871  11.110  17.098  0.00  0.00    +0.000 F 
ATOM     24  F   UNL     1      -1.444   9.566  16.576  0.00  0.00    +0.000 F 
ENDBRANCH  20  21
ENDBRANCH  12  15
BRANCH   8  25
ATOM     25  N   UNL     1       5.021   6.239  17.400  0.00  0.00    +0.000 N 
ATOM     26  H   UNL     1       5.208   7.223  17.250  0.00  0.00    +0.000 HD
BRANCH  25  27
ATOM     27  C   UNL     1       5.330   5.446  16.267  0.00  0.00    +0.000 A 
ATOM     28  C   UNL     1       4.624   4.276  15.949  0.00  0.00    +0.000 A 
ATOM     29  C   UNL     1       4.908   3.540  14.796  0.00  0.00    +0.000 A 
ATOM     30  C   UNL     1       5.945   3.938  13.957  0.00  0.00    +0.000 A 
ATOM     31 CL   UNL     1       6.221   3.014  12.524  0.00  0.00    +0.000 Cl
ATOM     32  C   UNL     1       6.717   5.052  14.299  0.00  0.00    +0.000 A 
ATOM     33 CL   UNL     1       8.050   5.581  13.334  0.00  0.00    +0.000 Cl
ATOM     34  C   UNL     1       6.417   5.791  15.453  0.00  0.00    +0.000 A 
ENDBRANCH  25  27
ENDBRANCH   8  25
TORSDOF 4
ENDMDL
MODEL 9
REMARK VINA RESULT:      -7.0      5.813      8.903
REMARK  Name = 
REMARK  6 active torsions:
REMARK  status: ('A' for Active; 'I' for Inactive)
REMARK    1  A    between atoms: C_1  and  N_2
REMARK    2  A    between atoms: N_2  and  C_3
REMARK    3  A    between atoms: C_8  and  N_9
REMARK    4  A    between atoms: N_9  and  C_10
REMARK    5  A    between atoms: N_21  and  C_22
REMARK    6  A    between atoms: C_27  and  C_28
REMARK                            x       y       z     vdW  Elec       q    Type
REMARK                         _______ _______ _______ _____ _____    ______ ____
ROOT
ATOM      1  C   UNL     1      -3.810  11.588  16.856  0.00  0.00    +0.000 C 
ATOM      2  N   UNL     1      -3.011  10.536  17.455  0.00  0.00    +0.000 N 
ATOM      3  C   UNL     1      -2.672   9.378  16.647  0.00  0.00    +0.000 C 
ATOM      4  C   UNL     1      -2.018  10.960  18.333  0.00  0.00    +0.000 A 
ATOM      5  N   UNL     1      -1.990  12.231  18.733  0.00  0.00    +0.000 NA
ATOM      6  C   UNL     1      -0.985  12.625  19.538  0.00  0.00    +0.000 A 
ATOM      7  C   UNL     1       0.030  11.783  19.964  0.00  0.00    +0.000 A 
ATOM      8  C   UNL     1      -0.141  10.450  19.616  0.00  0.00    +0.000 A 
ATOM      9  N   UNL     1      -1.124  10.070  18.775  0.00  0.00    +0.000 NA
ATOM     10  C   UNL     1       1.211  12.350  20.714  0.00  0.00    +0.000 C 
ATOM     11  C   UNL     1       1.996  13.365  19.853  0.00  0.00    +0.000 C 
ATOM     12  N   UNL     1       1.392  14.715  19.800  0.00  0.00    +0.000 N 
ATOM     13  C   UNL     1       0.049  14.880  19.235  0.00  0.00    +0.000 C 
ATOM     14  C   UNL     1      -1.018  14.069  19.953  0.00  0.00    +0.000 C 
ENDROOT
BRANCH  12  15
ATOM     15  C   UNL     1       2.100  15.763  20.353  0.00  0.00    +0.000 A 
ATOM     16  N   UNL     1       1.764  16.046  21.644  0.00  0.00    +0.000 NA
ATOM     17  C   UNL     1       2.356  17.073  22.296  0.00  0.00    +0.000 A 
ATOM     18  C   UNL     1       3.301  17.890  21.726  0.00  0.00    +0.000 A 
ATOM     19  C   UNL     1       3.669  17.604  20.424  0.00  0.00    +0.000 A 
ATOM     20  C   UNL     1       3.090  16.522  19.721  0.00  0.00    +0.000 A 
BRANCH  20  21
ATOM     21  C   UNL     1       3.651  16.287  18.346  0.00  0.00    +0.000 C 
ATOM     22  F   UNL     1       4.001  15.016  18.022  0.00  0.00    +0.000 F 
ATOM     23  F   UNL     1       2.784  16.697  17.372  0.00  0.00    +0.000 F 
ATOM     24  F   UNL     1       4.790  17.017  18.126  0.00  0.00    +0.000 F 
ENDBRANCH  20  21
ENDBRANCH  12  15
BRANCH   8  25
ATOM     25  N   UNL     1       0.665   9.438  20.194  0.00  0.00    +0.000 N 
ATOM     26  H   UNL     1       1.042   9.729  21.087  0.00  0.00    +0.000 HD
BRANCH  25  27
ATOM     27  C   UNL     1       1.520   8.542  19.506  0.00  0.00    +0.000 A 
ATOM     28  C   UNL     1       2.038   8.821  18.232  0.00  0.00    +0.000 A 
ATOM     29  C   UNL     1       2.926   7.950  17.595  0.00  0.00    +0.000 A 
ATOM     30  C   UNL     1       3.276   6.748  18.205  0.00  0.00    +0.000 A 
ATOM     31 CL   UNL     1       4.410   5.731  17.391  0.00  0.00    +0.000 Cl
ATOM     32  C   UNL     1       2.705   6.411  19.436  0.00  0.00    +0.000 A 
ATOM     33 CL   UNL     1       3.053   4.918  20.235  0.00  0.00    +0.000 Cl
ATOM     34  C   UNL     1       1.823   7.297  20.073  0.00  0.00    +0.000 A 
ENDBRANCH  25  27
ENDBRANCH   8  25
TORSDOF 4
ENDMDL
