MODEL 1
REMARK VINA RESULT:      -8.8      0.000      0.000
REMARK  Name = 
REMARK  7 active torsions:
REMARK  status: ('A' for Active; 'I' for Inactive)
REMARK    1  A    between atoms: C_1  and  O_2
REMARK    2  A    between atoms: O_2  and  C_3
REMARK    3  A    between atoms: C_5  and  O_6
REMARK    4  A    between atoms: C_7  and  C_8
REMARK    5  A    between atoms: C_13  and  C_14
REMARK    6  A    between atoms: N_16  and  C_17
REMARK    7  A    between atoms: C_23  and  C_24
REMARK                            x       y       z     vdW  Elec       q    Type
REMARK                         _______ _______ _______ _____ _____    ______ ____
ROOT
ATOM      1  C   UNL     1       2.090   5.913  20.137  0.00  0.00    +0.000 A 
ATOM      2  C   UNL     1       1.886   4.932  21.113  0.00  0.00    +0.000 A 
ATOM      3  C   UNL     1       2.580   3.722  21.071  0.00  0.00    +0.000 A 
ATOM      4  C   UNL     1       3.506   3.421  20.044  0.00  0.00    +0.000 A 
ATOM      5  C   UNL     1       3.684   4.427  19.080  0.00  0.00    +0.000 A 
ATOM      6  O   UNL     1       4.503   4.387  17.982  0.00  0.00    +0.000 OA
ATOM      7  C   UNL     1       4.386   5.578  17.307  0.00  0.00    +0.000 A 
ATOM      8  C   UNL     1       3.483   6.396  17.972  0.00  0.00    +0.000 A 
ATOM      9  C   UNL     1       3.041   7.777  17.631  0.00  0.00    +0.000 C 
ATOM     10  C   UNL     1       3.015   5.649  19.104  0.00  0.00    +0.000 A 
ENDROOT
BRANCH   4  11
ATOM     11  C   UNL     1       4.250   2.140  19.945  0.00  0.00    +0.000 C 
ATOM     12  N   UNL     1       4.063   1.388  18.813  0.00  0.00    +0.000 N 
ATOM     13  O   UNL     1       5.015   1.746  20.819  0.00  0.00    +0.000 OA
ATOM     14  H   UNL     1       3.442   1.707  18.078  0.00  0.00    +0.000 HD
ATOM     15  H   UNL     1       4.559   0.519  18.707  0.00  0.00    +0.000 HD
ENDBRANCH   4  11
BRANCH   7  16
ATOM     16  C   UNL     1       5.164   5.777  16.084  0.00  0.00    +0.000 C 
ATOM     17  O   UNL     1       5.421   6.900  15.657  0.00  0.00    +0.000 OA
ATOM     18  N   UNL     1       5.523   4.596  15.450  0.00  0.00    +0.000 N 
ATOM     19  H   UNL     1       5.139   3.752  15.864  0.00  0.00    +0.000 HD
BRANCH  18  20
ATOM     20  C   UNL     1       6.202   4.466  14.217  0.00  0.00    +0.000 A 
ATOM     21  C   UNL     1       7.339   5.204  13.873  0.00  0.00    +0.000 A 
ATOM     22  C   UNL     1       7.914   5.086  12.600  0.00  0.00    +0.000 A 
ATOM     23  C   UNL     1       7.355   4.225  11.659  0.00  0.00    +0.000 A 
ATOM     24  C   UNL     1       6.250   3.450  12.005  0.00  0.00    +0.000 A 
ATOM     25  C   UNL     1       5.687   3.558  13.283  0.00  0.00    +0.000 A 
ENDBRANCH  18  20
ENDBRANCH   7  16
BRANCH   1  27
ATOM     26  C   UNL     1       1.483   7.929  21.243  0.00  0.00    +0.000 C 
ATOM     27  O   UNL     1       1.407   7.100  20.091  0.00  0.00    +0.000 OA
ENDBRANCH   1  27
BRANCH   3  28
ATOM     28  O   UNL     1       2.321   2.808  22.069  0.00  0.00    +0.000 OA
ATOM     29  H   UNL     1       1.366   2.800  22.260  0.00  0.00    +0.000 HD
ENDBRANCH   3  28
TORSDOF 5
ENDMDL
MODEL 2
REMARK VINA RESULT:      -8.1      3.119      7.159
REMARK  Name = 
REMARK  7 active torsions:
REMARK  status: ('A' for Active; 'I' for Inactive)
REMARK    1  A    between atoms: C_1  and  O_2
REMARK    2  A    between atoms: O_2  and  C_3
REMARK    3  A    between atoms: C_5  and  O_6
REMARK    4  A    between atoms: C_7  and  C_8
REMARK    5  A    between atoms: C_13  and  C_14
REMARK    6  A    between atoms: N_16  and  C_17
REMARK    7  A    between atoms: C_23  and  C_24
REMARK                            x       y       z     vdW  Elec       q    Type
REMARK                         _______ _______ _______ _____ _____    ______ ____
ROOT
ATOM      1  C   UNL     1       3.264   3.419  18.620  0.00  0.00    +0.000 A 
ATOM      2  C   UNL     1       4.225   2.960  17.713  0.00  0.00    +0.000 A 
ATOM      3  C   UNL     1       4.954   3.853  16.926  0.00  0.00    +0.000 A 
ATOM      4  C   UNL     1       4.755   5.252  16.995  0.00  0.00    +0.000 A 
ATOM      5  C   UNL     1       3.782   5.678  17.915  0.00  0.00    +0.000 A 
ATOM      6  O   UNL     1       3.386   6.965  18.167  0.00  0.00    +0.000 OA
ATOM      7  C   UNL     1       2.419   6.941  19.142  0.00  0.00    +0.000 A 
ATOM      8  C   UNL     1       2.184   5.628  19.524  0.00  0.00    +0.000 A 
ATOM      9  C   UNL     1       1.240   5.104  20.549  0.00  0.00    +0.000 C 
ATOM     10  C   UNL     1       3.048   4.811  18.722  0.00  0.00    +0.000 A 
ENDROOT
BRANCH   4  11
ATOM     11  C   UNL     1       5.490   6.238  16.163  0.00  0.00    +0.000 C 
ATOM     12  N   UNL     1       6.246   7.177  16.819  0.00  0.00    +0.000 N 
ATOM     13  O   UNL     1       5.451   6.235  14.937  0.00  0.00    +0.000 OA
ATOM     14  H   UNL     1       6.296   7.184  17.831  0.00  0.00    +0.000 HD
ATOM     15  H   UNL     1       6.766   7.854  16.287  0.00  0.00    +0.000 HD
ENDBRANCH   4  11
BRANCH   7  16
ATOM     16  C   UNL     1       1.828   8.205  19.583  0.00  0.00    +0.000 C 
ATOM     17  O   UNL     1       1.634   8.449  20.771  0.00  0.00    +0.000 OA
ATOM     18  N   UNL     1       1.470   9.050  18.541  0.00  0.00    +0.000 N 
ATOM     19  H   UNL     1       1.589   8.659  17.611  0.00  0.00    +0.000 HD
BRANCH  18  20
ATOM     20  C   UNL     1       0.809  10.295  18.645  0.00  0.00    +0.000 A 
ATOM     21  C   UNL     1      -0.582  10.437  18.681  0.00  0.00    +0.000 A 
ATOM     22  C   UNL     1      -1.174  11.707  18.699  0.00  0.00    +0.000 A 
ATOM     23  C   UNL     1      -0.377  12.848  18.683  0.00  0.00    +0.000 A 
ATOM     24  C   UNL     1       1.010  12.720  18.694  0.00  0.00    +0.000 A 
ATOM     25  C   UNL     1       1.599  11.449  18.692  0.00  0.00    +0.000 A 
ENDBRANCH  18  20
ENDBRANCH   7  16
BRANCH   1  27
ATOM     26  C   UNL     1       1.322   2.055  18.766  0.00  0.00    +0.000 C 
ATOM     27  O   UNL     1       2.480   2.596  19.385  0.00  0.00    +0.000 OA
ENDBRANCH   1  27
BRANCH   3  28
ATOM     28  O   UNL     1       5.880   3.321  16.057  0.00  0.00    +0.000 OA
ATOM     29  H   UNL     1       6.754   3.714  16.234  0.00  0.00    +0.000 HD
ENDBRANCH   3  28
TORSDOF 5
ENDMDL
MODEL 3
REMARK VINA RESULT:      -8.1      3.086      7.096
REMARK  Name = 
REMARK  7 active torsions:
REMARK  status: ('A' for Active; 'I' for Inactive)
REMARK    1  A    between atoms: C_1  and  O_2
REMARK    2  A    between atoms: O_2  and  C_3
REMARK    3  A    between atoms: C_5  and  O_6
REMARK    4  A    between atoms: C_7  and  C_8
REMARK    5  A    between atoms: C_13  and  C_14
REMARK    6  A    between atoms: N_16  and  C_17
REMARK    7  A    between atoms: C_23  and  C_24
REMARK                            x       y       z     vdW  Elec       q    Type
REMARK                         _______ _______ _______ _____ _____    ______ ____
ROOT
ATOM      1  C   UNL     1       3.321   3.441  18.583  0.00  0.00    +0.000 A 
ATOM      2  C   UNL     1       4.291   2.977  17.688  0.00  0.00    +0.000 A 
ATOM      3  C   UNL     1       5.024   3.866  16.899  0.00  0.00    +0.000 A 
ATOM      4  C   UNL     1       4.819   5.265  16.954  0.00  0.00    +0.000 A 
ATOM      5  C   UNL     1       3.837   5.695  17.862  0.00  0.00    +0.000 A 
ATOM      6  O   UNL     1       3.435   6.984  18.098  0.00  0.00    +0.000 OA
ATOM      7  C   UNL     1       2.460   6.965  19.065  0.00  0.00    +0.000 A 
ATOM      8  C   UNL     1       2.226   5.654  19.458  0.00  0.00    +0.000 A 
ATOM      9  C   UNL     1       1.275   5.137  20.480  0.00  0.00    +0.000 C 
ATOM     10  C   UNL     1       3.099   4.833  18.670  0.00  0.00    +0.000 A 
ENDROOT
BRANCH   4  11
ATOM     11  C   UNL     1       5.558   6.246  16.119  0.00  0.00    +0.000 C 
ATOM     12  N   UNL     1       6.895   6.411  16.376  0.00  0.00    +0.000 N 
ATOM     13  O   UNL     1       5.025   6.891  15.223  0.00  0.00    +0.000 OA
ATOM     14  H   UNL     1       7.351   5.875  17.106  0.00  0.00    +0.000 HD
ATOM     15  H   UNL     1       7.430   7.059  15.823  0.00  0.00    +0.000 HD
ENDBRANCH   4  11
BRANCH   7  16
ATOM     16  C   UNL     1       1.860   8.231  19.490  0.00  0.00    +0.000 C 
ATOM     17  O   UNL     1       1.615   8.466  20.670  0.00  0.00    +0.000 OA
ATOM     18  N   UNL     1       1.559   9.087  18.441  0.00  0.00    +0.000 N 
ATOM     19  H   UNL     1       1.717   8.703  17.513  0.00  0.00    +0.000 HD
BRANCH  18  20
ATOM     20  C   UNL     1       0.906  10.338  18.525  0.00  0.00    +0.000 A 
ATOM     21  C   UNL     1       1.576  11.559  18.659  0.00  0.00    +0.000 A 
ATOM     22  C   UNL     1       0.864  12.755  18.822  0.00  0.00    +0.000 A 
ATOM     23  C   UNL     1      -0.528  12.740  18.850  0.00  0.00    +0.000 A 
ATOM     24  C   UNL     1      -1.208  11.537  18.671  0.00  0.00    +0.000 A 
ATOM     25  C   UNL     1      -0.494  10.345  18.492  0.00  0.00    +0.000 A 
ENDBRANCH  18  20
ENDBRANCH   7  16
BRANCH   1  27
ATOM     26  C   UNL     1       1.392   2.058  18.720  0.00  0.00    +0.000 C 
ATOM     27  O   UNL     1       2.533   2.623  19.349  0.00  0.00    +0.000 OA
ENDBRANCH   1  27
BRANCH   3  28
ATOM     28  O   UNL     1       5.958   3.329  16.042  0.00  0.00    +0.000 OA
ATOM     29  H   UNL     1       5.670   2.440  15.765  0.00  0.00    +0.000 HD
ENDBRANCH   3  28
TORSDOF 5
ENDMDL
MODEL 4
REMARK VINA RESULT:      -8.0      2.946      7.177
REMARK  Name = 
REMARK  7 active torsions:
REMARK  status: ('A' for Active; 'I' for Inactive)
REMARK    1  A    between atoms: C_1  and  O_2
REMARK    2  A    between atoms: O_2  and  C_3
REMARK    3  A    between atoms: C_5  and  O_6
REMARK    4  A    between atoms: C_7  and  C_8
REMARK    5  A    between atoms: C_13  and  C_14
REMARK    6  A    between atoms: N_16  and  C_17
REMARK    7  A    between atoms: C_23  and  C_24
REMARK                            x       y       z     vdW  Elec       q    Type
REMARK                         _______ _______ _______ _____ _____    ______ ____
ROOT
ATOM      1  C   UNL     1       4.068   4.900  17.546  0.00  0.00    +0.000 A 
ATOM      2  C   UNL     1       4.275   3.531  17.749  0.00  0.00    +0.000 A 
ATOM      3  C   UNL     1       3.726   2.879  18.855  0.00  0.00    +0.000 A 
ATOM      4  C   UNL     1       2.952   3.562  19.823  0.00  0.00    +0.000 A 
ATOM      5  C   UNL     1       2.767   4.935  19.588  0.00  0.00    +0.000 A 
ATOM      6  O   UNL     1       2.078   5.824  20.370  0.00  0.00    +0.000 OA
ATOM      7  C   UNL     1       2.134   7.061  19.777  0.00  0.00    +0.000 A 
ATOM      8  C   UNL     1       2.867   6.975  18.601  0.00  0.00    +0.000 A 
ATOM      9  C   UNL     1       3.188   8.043  17.615  0.00  0.00    +0.000 C 
ATOM     10  C   UNL     1       3.291   5.609  18.488  0.00  0.00    +0.000 A 
ENDROOT
BRANCH   4  11
ATOM     11  C   UNL     1       2.367   2.916  21.025  0.00  0.00    +0.000 C 
ATOM     12  N   UNL     1       1.004   2.967  21.168  0.00  0.00    +0.000 N 
ATOM     13  O   UNL     1       3.048   2.345  21.871  0.00  0.00    +0.000 OA
ATOM     14  H   UNL     1       0.429   3.426  20.471  0.00  0.00    +0.000 HD
ATOM     15  H   UNL     1       0.572   2.530  21.965  0.00  0.00    +0.000 HD
ENDBRANCH   4  11
BRANCH   7  16
ATOM     16  C   UNL     1       1.472   8.190  20.431  0.00  0.00    +0.000 C 
ATOM     17  O   UNL     1       1.198   8.174  21.629  0.00  0.00    +0.000 OA
ATOM     18  N   UNL     1       1.147   9.226  19.567  0.00  0.00    +0.000 N 
ATOM     19  H   UNL     1       1.335   9.043  18.585  0.00  0.00    +0.000 HD
BRANCH  18  20
ATOM     20  C   UNL     1       0.437  10.407  19.883  0.00  0.00    +0.000 A 
ATOM     21  C   UNL     1       0.953  11.437  20.677  0.00  0.00    +0.000 A 
ATOM     22  C   UNL     1       0.164  12.543  21.022  0.00  0.00    +0.000 A 
ATOM     23  C   UNL     1      -1.151  12.627  20.572  0.00  0.00    +0.000 A 
ATOM     24  C   UNL     1      -1.663  11.632  19.743  0.00  0.00    +0.000 A 
ATOM     25  C   UNL     1      -0.866  10.535  19.387  0.00  0.00    +0.000 A 
ENDBRANCH  18  20
ENDBRANCH   7  16
BRANCH   1  27
ATOM     26  C   UNL     1       6.029   5.771  16.520  0.00  0.00    +0.000 C 
ATOM     27  O   UNL     1       4.617   5.610  16.511  0.00  0.00    +0.000 OA
ENDBRANCH   1  27
BRANCH   3  28
ATOM     28  O   UNL     1       3.977   1.531  18.984  0.00  0.00    +0.000 OA
ATOM     29  H   UNL     1       3.804   1.256  19.903  0.00  0.00    +0.000 HD
ENDBRANCH   3  28
TORSDOF 5
ENDMDL
MODEL 5
REMARK VINA RESULT:      -7.8      3.020      6.985
REMARK  Name = 
REMARK  7 active torsions:
REMARK  status: ('A' for Active; 'I' for Inactive)
REMARK    1  A    between atoms: C_1  and  O_2
REMARK    2  A    between atoms: O_2  and  C_3
REMARK    3  A    between atoms: C_5  and  O_6
REMARK    4  A    between atoms: C_7  and  C_8
REMARK    5  A    between atoms: C_13  and  C_14
REMARK    6  A    between atoms: N_16  and  C_17
REMARK    7  A    between atoms: C_23  and  C_24
REMARK                            x       y       z     vdW  Elec       q    Type
REMARK                         _______ _______ _______ _____ _____    ______ ____
ROOT
ATOM      1  C   UNL     1       4.814   4.105  17.358  0.00  0.00    +0.000 A 
ATOM      2  C   UNL     1       4.474   2.779  17.648  0.00  0.00    +0.000 A 
ATOM      3  C   UNL     1       3.246   2.465  18.232  0.00  0.00    +0.000 A 
ATOM      4  C   UNL     1       2.296   3.458  18.569  0.00  0.00    +0.000 A 
ATOM      5  C   UNL     1       2.671   4.778  18.266  0.00  0.00    +0.000 A 
ATOM      6  O   UNL     1       1.950   5.919  18.500  0.00  0.00    +0.000 OA
ATOM      7  C   UNL     1       2.675   6.994  18.045  0.00  0.00    +0.000 A 
ATOM      8  C   UNL     1       3.877   6.546  17.513  0.00  0.00    +0.000 A 
ATOM      9  C   UNL     1       4.978   7.332  16.893  0.00  0.00    +0.000 C 
ATOM     10  C   UNL     1       3.884   5.120  17.672  0.00  0.00    +0.000 A 
ENDROOT
BRANCH   4  11
ATOM     11  C   UNL     1       0.988   3.174  19.211  0.00  0.00    +0.000 C 
ATOM     12  N   UNL     1       0.656   3.912  20.319  0.00  0.00    +0.000 N 
ATOM     13  O   UNL     1       0.210   2.326  18.788  0.00  0.00    +0.000 OA
ATOM     14  H   UNL     1       1.285   4.624  20.672  0.00  0.00    +0.000 HD
ATOM     15  H   UNL     1      -0.227   3.753  20.773  0.00  0.00    +0.000 HD
ENDBRANCH   4  11
BRANCH   7  16
ATOM     16  C   UNL     1       2.114   8.337  18.190  0.00  0.00    +0.000 C 
ATOM     17  O   UNL     1       2.406   9.247  17.417  0.00  0.00    +0.000 OA
ATOM     18  N   UNL     1       1.283   8.481  19.292  0.00  0.00    +0.000 N 
ATOM     19  H   UNL     1       1.230   7.669  19.900  0.00  0.00    +0.000 HD
BRANCH  18  20
ATOM     20  C   UNL     1       0.662   9.670  19.739  0.00  0.00    +0.000 A 
ATOM     21  C   UNL     1       1.003  10.328  20.926  0.00  0.00    +0.000 A 
ATOM     22  C   UNL     1       0.290  11.456  21.352  0.00  0.00    +0.000 A 
ATOM     23  C   UNL     1      -0.773  11.937  20.592  0.00  0.00    +0.000 A 
ATOM     24  C   UNL     1      -1.093  11.320  19.386  0.00  0.00    +0.000 A 
ATOM     25  C   UNL     1      -0.368  10.202  18.954  0.00  0.00    +0.000 A 
ENDBRANCH  18  20
ENDBRANCH   7  16
BRANCH   1  27
ATOM     26  C   UNL     1       6.299   4.075  15.501  0.00  0.00    +0.000 C 
ATOM     27  O   UNL     1       6.020   4.488  16.831  0.00  0.00    +0.000 OA
ENDBRANCH   1  27
BRANCH   3  28
ATOM     28  O   UNL     1       2.988   1.136  18.487  0.00  0.00    +0.000 OA
ATOM     29  H   UNL     1       2.270   1.065  19.142  0.00  0.00    +0.000 HD
ENDBRANCH   3  28
TORSDOF 5
ENDMDL
MODEL 6
REMARK VINA RESULT:      -7.8      2.908      7.422
REMARK  Name = 
REMARK  7 active torsions:
REMARK  status: ('A' for Active; 'I' for Inactive)
REMARK    1  A    between atoms: C_1  and  O_2
REMARK    2  A    between atoms: O_2  and  C_3
REMARK    3  A    between atoms: C_5  and  O_6
REMARK    4  A    between atoms: C_7  and  C_8
REMARK    5  A    between atoms: C_13  and  C_14
REMARK    6  A    between atoms: N_16  and  C_17
REMARK    7  A    between atoms: C_23  and  C_24
REMARK                            x       y       z     vdW  Elec       q    Type
REMARK                         _______ _______ _______ _____ _____    ______ ____
ROOT
ATOM      1  C   UNL     1       4.722   4.669  17.797  0.00  0.00    +0.000 A 
ATOM      2  C   UNL     1       4.868   3.343  18.217  0.00  0.00    +0.000 A 
ATOM      3  C   UNL     1       4.080   2.825  19.246  0.00  0.00    +0.000 A 
ATOM      4  C   UNL     1       3.113   3.608  19.920  0.00  0.00    +0.000 A 
ATOM      5  C   UNL     1       2.994   4.934  19.473  0.00  0.00    +0.000 A 
ATOM      6  O   UNL     1       2.152   5.900  19.959  0.00  0.00    +0.000 OA
ATOM      7  C   UNL     1       2.348   7.052  19.238  0.00  0.00    +0.000 A 
ATOM      8  C   UNL     1       3.327   6.833  18.278  0.00  0.00    +0.000 A 
ATOM      9  C   UNL     1       3.868   7.774  17.259  0.00  0.00    +0.000 C 
ATOM     10  C   UNL     1       3.757   5.474  18.440  0.00  0.00    +0.000 A 
ENDROOT
BRANCH   4  11
ATOM     11  C   UNL     1       2.268   3.107  21.034  0.00  0.00    +0.000 C 
ATOM     12  N   UNL     1       0.911   3.273  20.920  0.00  0.00    +0.000 N 
ATOM     13  O   UNL     1       2.734   2.556  22.025  0.00  0.00    +0.000 OA
ATOM     14  H   UNL     1       0.512   3.716  20.100  0.00  0.00    +0.000 HD
ATOM     15  H   UNL     1       0.308   2.936  21.651  0.00  0.00    +0.000 HD
ENDBRANCH   4  11
BRANCH   7  16
ATOM     16  C   UNL     1       1.563   8.240  19.576  0.00  0.00    +0.000 C 
ATOM     17  O   UNL     1       1.264   9.080  18.730  0.00  0.00    +0.000 OA
ATOM     18  N   UNL     1       1.249   8.339  20.924  0.00  0.00    +0.000 N 
ATOM     19  H   UNL     1       1.664   7.626  21.516  0.00  0.00    +0.000 HD
BRANCH  18  20
ATOM     20  C   UNL     1       0.575   9.405  21.563  0.00  0.00    +0.000 A 
ATOM     21  C   UNL     1      -0.272   9.240  22.665  0.00  0.00    +0.000 A 
ATOM     22  C   UNL     1      -0.975  10.329  23.199  0.00  0.00    +0.000 A 
ATOM     23  C   UNL     1      -0.835  11.594  22.635  0.00  0.00    +0.000 A 
ATOM     24  C   UNL     1       0.040  11.780  21.567  0.00  0.00    +0.000 A 
ATOM     25  C   UNL     1       0.754  10.693  21.046  0.00  0.00    +0.000 A 
ENDBRANCH  18  20
ENDBRANCH   7  16
BRANCH   1  27
ATOM     26  C   UNL     1       6.900   5.074  16.932  0.00  0.00    +0.000 C 
ATOM     27  O   UNL     1       5.494   5.254  16.828  0.00  0.00    +0.000 OA
ENDBRANCH   1  27
BRANCH   3  28
ATOM     28  O   UNL     1       4.287   1.510  19.602  0.00  0.00    +0.000 OA
ATOM     29  H   UNL     1       3.628   0.947  19.156  0.00  0.00    +0.000 HD
ENDBRANCH   3  28
TORSDOF 5
ENDMDL
MODEL 7
REMARK VINA RESULT:      -7.8      3.375      7.163
REMARK  Name = 
REMARK  7 active torsions:
REMARK  status: ('A' for Active; 'I' for Inactive)
REMARK    1  A    between atoms: C_1  and  O_2
REMARK    2  A    between atoms: O_2  and  C_3
REMARK    3  A    between atoms: C_5  and  O_6
REMARK    4  A    between atoms: C_7  and  C_8
REMARK    5  A    between atoms: C_13  and  C_14
REMARK    6  A    between atoms: N_16  and  C_17
REMARK    7  A    between atoms: C_23  and  C_24
REMARK                            x       y       z     vdW  Elec       q    Type
REMARK                         _______ _______ _______ _____ _____    ______ ____
ROOT
ATOM      1  C   UNL     1       4.423   3.812  17.179  0.00  0.00    +0.000 A 
ATOM      2  C   UNL     1       5.770   3.627  16.846  0.00  0.00    +0.000 A 
ATOM      3  C   UNL     1       6.698   4.655  17.011  0.00  0.00    +0.000 A 
ATOM      4  C   UNL     1       6.330   5.929  17.506  0.00  0.00    +0.000 A 
ATOM      5  C   UNL     1       4.971   6.080  17.829  0.00  0.00    +0.000 A 
ATOM      6  O   UNL     1       4.354   7.205  18.309  0.00  0.00    +0.000 OA
ATOM      7  C   UNL     1       3.023   6.925  18.498  0.00  0.00    +0.000 A 
ATOM      8  C   UNL     1       2.774   5.608  18.136  0.00  0.00    +0.000 A 
ATOM      9  C   UNL     1       1.493   4.850  18.177  0.00  0.00    +0.000 C 
ATOM     10  C   UNL     1       4.025   5.068  17.686  0.00  0.00    +0.000 A 
ENDROOT
BRANCH   4  11
ATOM     11  C   UNL     1       7.277   7.059  17.677  0.00  0.00    +0.000 C 
ATOM     12  N   UNL     1       8.189   6.969  18.699  0.00  0.00    +0.000 N 
ATOM     13  O   UNL     1       7.277   8.044  16.946  0.00  0.00    +0.000 OA
ATOM     14  H   UNL     1       8.208   6.155  19.303  0.00  0.00    +0.000 HD
ATOM     15  H   UNL     1       8.853   7.711  18.838  0.00  0.00    +0.000 HD
ENDBRANCH   4  11
BRANCH   7  16
ATOM     16  C   UNL     1       2.143   7.979  19.003  0.00  0.00    +0.000 C 
ATOM     17  O   UNL     1       1.759   7.997  20.170  0.00  0.00    +0.000 OA
ATOM     18  N   UNL     1       1.757   8.897  18.037  0.00  0.00    +0.000 N 
ATOM     19  H   UNL     1       2.065   8.683  17.093  0.00  0.00    +0.000 HD
BRANCH  18  20
ATOM     20  C   UNL     1       0.855   9.973  18.199  0.00  0.00    +0.000 A 
ATOM     21  C   UNL     1       1.212  11.215  18.735  0.00  0.00    +0.000 A 
ATOM     22  C   UNL     1       0.249  12.211  18.946  0.00  0.00    +0.000 A 
ATOM     23  C   UNL     1      -1.083  11.972  18.619  0.00  0.00    +0.000 A 
ATOM     24  C   UNL     1      -1.445  10.757  18.042  0.00  0.00    +0.000 A 
ATOM     25  C   UNL     1      -0.477   9.770  17.817  0.00  0.00    +0.000 A 
ENDBRANCH  18  20
ENDBRANCH   7  16
BRANCH   1  27
ATOM     26  C   UNL     1       3.418   1.791  17.929  0.00  0.00    +0.000 C 
ATOM     27  O   UNL     1       3.453   2.863  16.996  0.00  0.00    +0.000 OA
ENDBRANCH   1  27
BRANCH   3  28
ATOM     28  O   UNL     1       8.003   4.393  16.658  0.00  0.00    +0.000 OA
ATOM     29  H   UNL     1       8.603   4.889  17.244  0.00  0.00    +0.000 HD
ENDBRANCH   3  28
TORSDOF 5
ENDMDL
MODEL 8
REMARK VINA RESULT:      -7.7      3.526      7.467
REMARK  Name = 
REMARK  7 active torsions:
REMARK  status: ('A' for Active; 'I' for Inactive)
REMARK    1  A    between atoms: C_1  and  O_2
REMARK    2  A    between atoms: O_2  and  C_3
REMARK    3  A    between atoms: C_5  and  O_6
REMARK    4  A    between atoms: C_7  and  C_8
REMARK    5  A    between atoms: C_13  and  C_14
REMARK    6  A    between atoms: N_16  and  C_17
REMARK    7  A    between atoms: C_23  and  C_24
REMARK                            x       y       z     vdW  Elec       q    Type
REMARK                         _______ _______ _______ _____ _____    ______ ____
ROOT
ATOM      1  C   UNL     1       4.450   3.857  17.356  0.00  0.00    +0.000 A 
ATOM      2  C   UNL     1       5.812   3.570  17.218  0.00  0.00    +0.000 A 
ATOM      3  C   UNL     1       6.773   4.575  17.342  0.00  0.00    +0.000 A 
ATOM      4  C   UNL     1       6.424   5.922  17.598  0.00  0.00    +0.000 A 
ATOM      5  C   UNL     1       5.048   6.174  17.729  0.00  0.00    +0.000 A 
ATOM      6  O   UNL     1       4.445   7.382  17.961  0.00  0.00    +0.000 OA
ATOM      7  C   UNL     1       3.088   7.186  18.027  0.00  0.00    +0.000 A 
ATOM      8  C   UNL     1       2.807   5.840  17.834  0.00  0.00    +0.000 A 
ATOM      9  C   UNL     1       1.489   5.148  17.830  0.00  0.00    +0.000 C 
ATOM     10  C   UNL     1       4.068   5.190  17.622  0.00  0.00    +0.000 A 
ENDROOT
BRANCH   4  11
ATOM     11  C   UNL     1       7.409   7.027  17.715  0.00  0.00    +0.000 C 
ATOM     12  N   UNL     1       8.253   7.007  18.797  0.00  0.00    +0.000 N 
ATOM     13  O   UNL     1       7.495   7.932  16.891  0.00  0.00    +0.000 OA
ATOM     14  H   UNL     1       8.200   6.259  19.479  0.00  0.00    +0.000 HD
ATOM     15  H   UNL     1       8.940   7.734  18.903  0.00  0.00    +0.000 HD
ENDBRANCH   4  11
BRANCH   7  16
ATOM     16  C   UNL     1       2.217   8.338  18.264  0.00  0.00    +0.000 C 
ATOM     17  O   UNL     1       2.101   9.241  17.439  0.00  0.00    +0.000 OA
ATOM     18  N   UNL     1       1.598   8.327  19.506  0.00  0.00    +0.000 N 
ATOM     19  H   UNL     1       1.883   7.571  20.121  0.00  0.00    +0.000 HD
BRANCH  18  20
ATOM     20  C   UNL     1       0.769   9.334  20.052  0.00  0.00    +0.000 A 
ATOM     21  C   UNL     1      -0.086  10.136  19.289  0.00  0.00    +0.000 A 
ATOM     22  C   UNL     1      -0.818  11.173  19.883  0.00  0.00    +0.000 A 
ATOM     23  C   UNL     1      -0.701  11.415  21.249  0.00  0.00    +0.000 A 
ATOM     24  C   UNL     1       0.112  10.594  22.028  0.00  0.00    +0.000 A 
ATOM     25  C   UNL     1       0.830   9.548  21.434  0.00  0.00    +0.000 A 
ENDBRANCH  18  20
ENDBRANCH   7  16
BRANCH   1  27
ATOM     26  C   UNL     1       3.338   1.934  18.204  0.00  0.00    +0.000 C 
ATOM     27  O   UNL     1       3.454   2.930  17.197  0.00  0.00    +0.000 OA
ENDBRANCH   1  27
BRANCH   3  28
ATOM     28  O   UNL     1       8.093   4.211  17.191  0.00  0.00    +0.000 OA
ATOM     29  H   UNL     1       8.152   3.453  16.581  0.00  0.00    +0.000 HD
ENDBRANCH   3  28
TORSDOF 5
ENDMDL
MODEL 9
REMARK VINA RESULT:      -7.7      3.191      6.880
REMARK  Name = 
REMARK  7 active torsions:
REMARK  status: ('A' for Active; 'I' for Inactive)
REMARK    1  A    between atoms: C_1  and  O_2
REMARK    2  A    between atoms: O_2  and  C_3
REMARK    3  A    between atoms: C_5  and  O_6
REMARK    4  A    between atoms: C_7  and  C_8
REMARK    5  A    between atoms: C_13  and  C_14
REMARK    6  A    between atoms: N_16  and  C_17
REMARK    7  A    between atoms: C_23  and  C_24
REMARK                            x       y       z     vdW  Elec       q    Type
REMARK                         _______ _______ _______ _____ _____    ______ ____
ROOT
ATOM      1  C   UNL     1       5.130   4.437  18.066  0.00  0.00    +0.000 A 
ATOM      2  C   UNL     1       5.072   3.242  18.791  0.00  0.00    +0.000 A 
ATOM      3  C   UNL     1       4.060   3.018  19.726  0.00  0.00    +0.000 A 
ATOM      4  C   UNL     1       3.058   3.980  19.995  0.00  0.00    +0.000 A 
ATOM      5  C   UNL     1       3.148   5.168  19.251  0.00  0.00    +0.000 A 
ATOM      6  O   UNL     1       2.321   6.258  19.327  0.00  0.00    +0.000 OA
ATOM      7  C   UNL     1       2.754   7.197  18.424  0.00  0.00    +0.000 A 
ATOM      8  C   UNL     1       3.873   6.714  17.758  0.00  0.00    +0.000 A 
ATOM      9  C   UNL     1       4.680   7.362  16.688  0.00  0.00    +0.000 C 
ATOM     10  C   UNL     1       4.139   5.414  18.303  0.00  0.00    +0.000 A 
ENDROOT
BRANCH   4  11
ATOM     11  C   UNL     1       1.977   3.795  20.995  0.00  0.00    +0.000 C 
ATOM     12  N   UNL     1       0.687   4.005  20.575  0.00  0.00    +0.000 N 
ATOM     13  O   UNL     1       2.193   3.460  22.155  0.00  0.00    +0.000 OA
ATOM     14  H   UNL     1       0.494   4.270  19.617  0.00  0.00    +0.000 HD
ATOM     15  H   UNL     1      -0.072   3.878  21.223  0.00  0.00    +0.000 HD
ENDBRANCH   4  11
BRANCH   7  16
ATOM     16  C   UNL     1       2.031   8.465  18.320  0.00  0.00    +0.000 C 
ATOM     17  O   UNL     1       2.120   9.181  17.326  0.00  0.00    +0.000 OA
ATOM     18  N   UNL     1       1.300   8.787  19.455  0.00  0.00    +0.000 N 
ATOM     19  H   UNL     1       1.418   8.150  20.237  0.00  0.00    +0.000 HD
BRANCH  18  20
ATOM     20  C   UNL     1       0.568   9.974  19.686  0.00  0.00    +0.000 A 
ATOM     21  C   UNL     1       0.914  10.925  20.652  0.00  0.00    +0.000 A 
ATOM     22  C   UNL     1       0.097  12.040  20.888  0.00  0.00    +0.000 A 
ATOM     23  C   UNL     1      -1.074  12.212  20.155  0.00  0.00    +0.000 A 
ATOM     24  C   UNL     1      -1.406  11.297  19.159  0.00  0.00    +0.000 A 
ATOM     25  C   UNL     1      -0.579  10.193  18.915  0.00  0.00    +0.000 A 
ENDBRANCH  18  20
ENDBRANCH   7  16
BRANCH   1  27
ATOM     26  C   UNL     1       7.455   4.729  17.662  0.00  0.00    +0.000 C 
ATOM     27  O   UNL     1       6.122   4.741  17.171  0.00  0.00    +0.000 OA
ENDBRANCH   1  27
BRANCH   3  28
ATOM     28  O   UNL     1       4.075   1.816  20.399  0.00  0.00    +0.000 OA
ATOM     29  H   UNL     1       4.995   1.579  20.619  0.00  0.00    +0.000 HD
ENDBRANCH   3  28
TORSDOF 5
ENDMDL
