MODEL 1
REMARK VINA RESULT:      -8.2      0.000      0.000
REMARK  Name = 
REMARK  10 active torsions:
REMARK  status: ('A' for Active; 'I' for Inactive)
REMARK    1  A    between atoms: C_1  and  C_2
REMARK    2  A    between atoms: C_4  and  C_5
REMARK    3  A    between atoms: C_5  and  C_6
REMARK    4  A    between atoms: C_5  and  N_7
REMARK    5  A    between atoms: C_5  and  C_25
REMARK    6  A    between atoms: C_8  and  C_10
REMARK    7  A    between atoms: C_12  and  O_13
REMARK    8  A    between atoms: O_13  and  C_14
REMARK    9  A    between atoms: C_14  and  C_15
REMARK   10  A    between atoms: C_19  and  C_20
REMARK                            x       y       z     vdW  Elec       q    Type
REMARK                         _______ _______ _______ _____ _____    ______ ____
ROOT
ATOM      1  N   UNL     1       0.685   9.455  19.427  0.00  0.00    +0.000 N 
ATOM      2  C   UNL     1       1.406   8.509  20.117  0.00  0.00    +0.000 C 
ATOM      3  O   UNL     1       1.392   8.398  21.340  0.00  0.00    +0.000 OA
ATOM      4  H   UNL     1       0.689   9.389  18.413  0.00  0.00    +0.000 HD
ENDROOT
BRANCH   2   5
ATOM      5  C   UNL     1       2.261   7.593  19.296  0.00  0.00    +0.000 A 
ATOM      6  C   UNL     1       2.446   6.289  19.737  0.00  0.00    +0.000 A 
ATOM      7  C   UNL     1       3.233   5.433  18.973  0.00  0.00    +0.000 A 
ATOM      8  C   UNL     1       3.835   5.892  17.787  0.00  0.00    +0.000 A 
ATOM      9  C   UNL     1       3.581   7.229  17.452  0.00  0.00    +0.000 A 
ATOM     10  N   UNL     1       2.814   8.095  18.165  0.00  0.00    +0.000 NA
BRANCH   8  11
ATOM     11  C   UNL     1       4.657   4.992  16.882  0.00  0.00    +0.000 C 
ATOM     12  C   UNL     1       5.580   5.579  15.836  0.00  0.00    +0.000 C 
ATOM     13  C   UNL     1       6.160   4.902  17.040  0.00  0.00    +0.000 C 
ENDBRANCH   8  11
BRANCH   7  14
ATOM     14  O   UNL     1       3.407   4.103  19.262  0.00  0.00    +0.000 OA
BRANCH  14  15
ATOM     15  C   UNL     1       2.247   3.353  19.652  0.00  0.00    +0.000 C 
BRANCH  15  16
ATOM     16  C   UNL     1       1.496   2.832  18.428  0.00  0.00    +0.000 C 
ATOM     17  F   UNL     1       1.167   3.808  17.554  0.00  0.00    +0.000 F 
ATOM     18  F   UNL     1       2.237   1.919  17.755  0.00  0.00    +0.000 F 
ATOM     19  F   UNL     1       0.346   2.219  18.800  0.00  0.00    +0.000 F 
ENDBRANCH  15  16
ENDBRANCH  14  15
ENDBRANCH   7  14
ENDBRANCH   2   5
BRANCH   1  20
ATOM     20  C   UNL     1      -0.168  10.472  20.088  0.00  0.00    +0.000 C 
ATOM     21  C   UNL     1      -0.726   9.920  21.421  0.00  0.00    +0.000 C 
BRANCH  20  22
ATOM     22  C   UNL     1       0.732  11.702  20.451  0.00  0.00    +0.000 C 
ATOM     23  O   UNL     1       0.706  12.241  21.561  0.00  0.00    +0.000 OA
ATOM     24  N   UNL     1       1.610  12.172  19.477  0.00  0.00    +0.000 N 
ATOM     25  C   UNL     1       2.591  13.241  19.739  0.00  0.00    +0.000 C 
ATOM     26  C   UNL     1       2.036  14.011  18.541  0.00  0.00    +0.000 C 
ATOM     27  F   UNL     1       2.947  14.382  17.609  0.00  0.00    +0.000 F 
ATOM     28  F   UNL     1       1.323  15.125  18.839  0.00  0.00    +0.000 F 
ATOM     29  C   UNL     1       1.203  12.769  18.198  0.00  0.00    +0.000 C 
ENDBRANCH  20  22
BRANCH  20  33
ATOM     30  C   UNL     1      -3.287  10.920  16.212  0.00  0.00    +0.000 C 
ATOM     31  C   UNL     1      -2.557  11.010  17.488  0.00  0.00    +0.000 A 
ATOM     32  N   UNL     1      -1.490  10.365  17.902  0.00  0.00    +0.000 NA
ATOM     33  C   UNL     1      -1.284  10.909  19.161  0.00  0.00    +0.000 A 
ATOM     34  N   UNL     1      -2.163  11.875  19.482  0.00  0.00    +0.000 NA
ATOM     35  O   UNL     1      -3.016  11.927  18.385  0.00  0.00    +0.000 OA
ENDBRANCH  20  33
ENDBRANCH   1  20
TORSDOF 8
ENDMDL
MODEL 2
REMARK VINA RESULT:      -8.2      0.889      1.042
REMARK  Name = 
REMARK  10 active torsions:
REMARK  status: ('A' for Active; 'I' for Inactive)
REMARK    1  A    between atoms: C_1  and  C_2
REMARK    2  A    between atoms: C_4  and  C_5
REMARK    3  A    between atoms: C_5  and  C_6
REMARK    4  A    between atoms: C_5  and  N_7
REMARK    5  A    between atoms: C_5  and  C_25
REMARK    6  A    between atoms: C_8  and  C_10
REMARK    7  A    between atoms: C_12  and  O_13
REMARK    8  A    between atoms: O_13  and  C_14
REMARK    9  A    between atoms: C_14  and  C_15
REMARK   10  A    between atoms: C_19  and  C_20
REMARK                            x       y       z     vdW  Elec       q    Type
REMARK                         _______ _______ _______ _____ _____    ______ ____
ROOT
ATOM      1  N   UNL     1       0.871  10.304  20.031  0.00  0.00    +0.000 N 
ATOM      2  C   UNL     1       0.878   8.965  20.343  0.00  0.00    +0.000 C 
ATOM      3  O   UNL     1       0.200   8.468  21.238  0.00  0.00    +0.000 OA
ATOM      4  H   UNL     1       1.391  10.589  19.206  0.00  0.00    +0.000 HD
ENDROOT
BRANCH   2   5
ATOM      5  C   UNL     1       1.795   8.099  19.535  0.00  0.00    +0.000 A 
ATOM      6  C   UNL     1       2.070   6.817  19.996  0.00  0.00    +0.000 A 
ATOM      7  C   UNL     1       2.916   6.007  19.244  0.00  0.00    +0.000 A 
ATOM      8  C   UNL     1       3.486   6.489  18.051  0.00  0.00    +0.000 A 
ATOM      9  C   UNL     1       3.139   7.799  17.697  0.00  0.00    +0.000 A 
ATOM     10  N   UNL     1       2.313   8.621  18.396  0.00  0.00    +0.000 NA
BRANCH   8  11
ATOM     11  C   UNL     1       4.369   5.635  17.159  0.00  0.00    +0.000 C 
ATOM     12  C   UNL     1       5.178   6.259  16.044  0.00  0.00    +0.000 C 
ATOM     13  C   UNL     1       5.878   5.722  17.255  0.00  0.00    +0.000 C 
ENDBRANCH   8  11
BRANCH   7  14
ATOM     14  O   UNL     1       3.182   4.696  19.553  0.00  0.00    +0.000 OA
BRANCH  14  15
ATOM     15  C   UNL     1       2.063   3.811  19.700  0.00  0.00    +0.000 C 
BRANCH  15  16
ATOM     16  C   UNL     1       1.676   3.190  18.359  0.00  0.00    +0.000 C 
ATOM     17  F   UNL     1       2.745   2.813  17.623  0.00  0.00    +0.000 F 
ATOM     18  F   UNL     1       0.899   2.095  18.535  0.00  0.00    +0.000 F 
ATOM     19  F   UNL     1       0.965   4.070  17.613  0.00  0.00    +0.000 F 
ENDBRANCH  15  16
ENDBRANCH  14  15
ENDBRANCH   7  14
ENDBRANCH   2   5
BRANCH   1  20
ATOM     20  C   UNL     1       0.063  11.307  20.766  0.00  0.00    +0.000 C 
ATOM     21  C   UNL     1      -0.181  10.839  22.220  0.00  0.00    +0.000 C 
BRANCH  20  22
ATOM     22  C   UNL     1       0.893  12.634  20.853  0.00  0.00    +0.000 C 
ATOM     23  O   UNL     1       0.784  13.426  21.793  0.00  0.00    +0.000 OA
ATOM     24  N   UNL     1       1.804  12.895  19.833  0.00  0.00    +0.000 N 
ATOM     25  C   UNL     1       2.727  14.045  19.866  0.00  0.00    +0.000 C 
ATOM     26  C   UNL     1       2.210  14.468  18.490  0.00  0.00    +0.000 C 
ATOM     27  F   UNL     1       3.156  14.646  17.537  0.00  0.00    +0.000 F 
ATOM     28  F   UNL     1       1.438  15.582  18.471  0.00  0.00    +0.000 F 
ATOM     29  C   UNL     1       1.447  13.139  18.429  0.00  0.00    +0.000 C 
ENDBRANCH  20  22
BRANCH  20  33
ATOM     30  C   UNL     1      -3.645  11.333  17.419  0.00  0.00    +0.000 C 
ATOM     31  C   UNL     1      -2.755  11.501  18.581  0.00  0.00    +0.000 A 
ATOM     32  N   UNL     1      -1.538  11.053  18.789  0.00  0.00    +0.000 NA
ATOM     33  C   UNL     1      -1.243  11.566  20.043  0.00  0.00    +0.000 A 
ATOM     34  N   UNL     1      -2.223  12.329  20.558  0.00  0.00    +0.000 NA
ATOM     35  O   UNL     1      -3.230  12.269  19.600  0.00  0.00    +0.000 OA
ENDBRANCH  20  33
ENDBRANCH   1  20
TORSDOF 8
ENDMDL
MODEL 3
REMARK VINA RESULT:      -8.0      3.221      8.433
REMARK  Name = 
REMARK  10 active torsions:
REMARK  status: ('A' for Active; 'I' for Inactive)
REMARK    1  A    between atoms: C_1  and  C_2
REMARK    2  A    between atoms: C_4  and  C_5
REMARK    3  A    between atoms: C_5  and  C_6
REMARK    4  A    between atoms: C_5  and  N_7
REMARK    5  A    between atoms: C_5  and  C_25
REMARK    6  A    between atoms: C_8  and  C_10
REMARK    7  A    between atoms: C_12  and  O_13
REMARK    8  A    between atoms: O_13  and  C_14
REMARK    9  A    between atoms: C_14  and  C_15
REMARK   10  A    between atoms: C_19  and  C_20
REMARK                            x       y       z     vdW  Elec       q    Type
REMARK                         _______ _______ _______ _____ _____    ______ ____
ROOT
ATOM      1  N   UNL     1       3.970   6.651  18.403  0.00  0.00    +0.000 N 
ATOM      2  C   UNL     1       2.663   6.935  18.084  0.00  0.00    +0.000 C 
ATOM      3  O   UNL     1       1.895   6.130  17.565  0.00  0.00    +0.000 OA
ATOM      4  H   UNL     1       4.483   7.356  18.924  0.00  0.00    +0.000 HD
ENDROOT
BRANCH   2   5
ATOM      5  C   UNL     1       2.192   8.325  18.387  0.00  0.00    +0.000 A 
ATOM      6  C   UNL     1       1.486   8.542  19.563  0.00  0.00    +0.000 A 
ATOM      7  C   UNL     1       1.053   9.833  19.851  0.00  0.00    +0.000 A 
ATOM      8  C   UNL     1       1.319  10.887  18.958  0.00  0.00    +0.000 A 
ATOM      9  C   UNL     1       2.031  10.540  17.802  0.00  0.00    +0.000 A 
ATOM     10  N   UNL     1       2.478   9.296  17.486  0.00  0.00    +0.000 NA
BRANCH   8  11
ATOM     11  C   UNL     1       0.923  12.324  19.242  0.00  0.00    +0.000 C 
ATOM     12  C   UNL     1       1.299  13.435  18.287  0.00  0.00    +0.000 C 
ATOM     13  C   UNL     1      -0.134  13.015  18.406  0.00  0.00    +0.000 C 
ENDBRANCH   8  11
BRANCH   7  14
ATOM     14  O   UNL     1       0.431  10.179  21.025  0.00  0.00    +0.000 OA
BRANCH  14  15
ATOM     15  C   UNL     1       0.928   9.592  22.236  0.00  0.00    +0.000 C 
BRANCH  15  16
ATOM     16  C   UNL     1      -0.177   9.481  23.284  0.00  0.00    +0.000 C 
ATOM     17  F   UNL     1       0.286   9.133  24.505  0.00  0.00    +0.000 F 
ATOM     18  F   UNL     1      -0.837  10.656  23.421  0.00  0.00    +0.000 F 
ATOM     19  F   UNL     1      -1.090   8.549  22.919  0.00  0.00    +0.000 F 
ENDBRANCH  15  16
ENDBRANCH  14  15
ENDBRANCH   7  14
ENDBRANCH   2   5
BRANCH   1  20
ATOM     20  C   UNL     1       4.611   5.343  18.121  0.00  0.00    +0.000 C 
ATOM     21  C   UNL     1       5.728   5.060  19.152  0.00  0.00    +0.000 C 
BRANCH  20  22
ATOM     22  C   UNL     1       3.532   4.222  18.305  0.00  0.00    +0.000 C 
ATOM     23  O   UNL     1       2.943   3.702  17.352  0.00  0.00    +0.000 OA
ATOM     24  N   UNL     1       3.263   3.787  19.600  0.00  0.00    +0.000 N 
ATOM     25  C   UNL     1       2.362   2.657  19.890  0.00  0.00    +0.000 C 
ATOM     26  C   UNL     1       1.569   3.562  20.833  0.00  0.00    +0.000 C 
ATOM     27  F   UNL     1       1.401   3.094  22.093  0.00  0.00    +0.000 F 
ATOM     28  F   UNL     1       0.338   3.928  20.397  0.00  0.00    +0.000 F 
ATOM     29  C   UNL     1       2.669   4.616  20.657  0.00  0.00    +0.000 C 
ENDBRANCH  20  22
BRANCH  20  33
ATOM     30  C   UNL     1       6.270   3.853  13.651  0.00  0.00    +0.000 C 
ATOM     31  C   UNL     1       5.814   4.586  14.844  0.00  0.00    +0.000 A 
ATOM     32  N   UNL     1       5.406   4.139  16.010  0.00  0.00    +0.000 NA
ATOM     33  C   UNL     1       5.146   5.311  16.703  0.00  0.00    +0.000 A 
ATOM     34  N   UNL     1       5.423   6.425  16.003  0.00  0.00    +0.000 NA
ATOM     35  O   UNL     1       5.845   5.946  14.768  0.00  0.00    +0.000 OA
ENDBRANCH  20  33
ENDBRANCH   1  20
TORSDOF 8
ENDMDL
MODEL 4
REMARK VINA RESULT:      -8.0      2.825      8.833
REMARK  Name = 
REMARK  10 active torsions:
REMARK  status: ('A' for Active; 'I' for Inactive)
REMARK    1  A    between atoms: C_1  and  C_2
REMARK    2  A    between atoms: C_4  and  C_5
REMARK    3  A    between atoms: C_5  and  C_6
REMARK    4  A    between atoms: C_5  and  N_7
REMARK    5  A    between atoms: C_5  and  C_25
REMARK    6  A    between atoms: C_8  and  C_10
REMARK    7  A    between atoms: C_12  and  O_13
REMARK    8  A    between atoms: O_13  and  C_14
REMARK    9  A    between atoms: C_14  and  C_15
REMARK   10  A    between atoms: C_19  and  C_20
REMARK                            x       y       z     vdW  Elec       q    Type
REMARK                         _______ _______ _______ _____ _____    ______ ____
ROOT
ATOM      1  N   UNL     1       3.181   6.917  18.516  0.00  0.00    +0.000 N 
ATOM      2  C   UNL     1       2.339   7.191  19.568  0.00  0.00    +0.000 C 
ATOM      3  O   UNL     1       2.058   6.381  20.448  0.00  0.00    +0.000 OA
ATOM      4  H   UNL     1       3.425   7.691  17.906  0.00  0.00    +0.000 HD
ENDROOT
BRANCH   2   5
ATOM      5  C   UNL     1       1.734   8.561  19.598  0.00  0.00    +0.000 A 
ATOM      6  C   UNL     1       1.271   9.053  20.811  0.00  0.00    +0.000 A 
ATOM      7  C   UNL     1       0.716  10.329  20.843  0.00  0.00    +0.000 A 
ATOM      8  C   UNL     1       0.618  11.091  19.665  0.00  0.00    +0.000 A 
ATOM      9  C   UNL     1       1.113  10.482  18.504  0.00  0.00    +0.000 A 
ATOM     10  N   UNL     1       1.668   9.244  18.428  0.00  0.00    +0.000 NA
BRANCH   8  11
ATOM     11  C   UNL     1       0.075  12.508  19.645  0.00  0.00    +0.000 C 
ATOM     12  C   UNL     1      -0.075  13.264  18.343  0.00  0.00    +0.000 C 
ATOM     13  C   UNL     1      -1.297  12.803  19.077  0.00  0.00    +0.000 C 
ENDBRANCH   8  11
BRANCH   7  14
ATOM     14  O   UNL     1       0.312  10.951  21.999  0.00  0.00    +0.000 OA
BRANCH  14  15
ATOM     15  C   UNL     1      -0.948  10.554  22.558  0.00  0.00    +0.000 C 
BRANCH  15  16
ATOM     16  C   UNL     1      -1.803  11.773  22.899  0.00  0.00    +0.000 C 
ATOM     17  F   UNL     1      -1.070  12.845  23.274  0.00  0.00    +0.000 F 
ATOM     18  F   UNL     1      -2.558  12.149  21.841  0.00  0.00    +0.000 F 
ATOM     19  F   UNL     1      -2.652  11.491  23.917  0.00  0.00    +0.000 F 
ENDBRANCH  15  16
ENDBRANCH  14  15
ENDBRANCH   7  14
ENDBRANCH   2   5
BRANCH   1  20
ATOM     20  C   UNL     1       3.819   5.595  18.307  0.00  0.00    +0.000 C 
ATOM     21  C   UNL     1       4.785   5.275  19.473  0.00  0.00    +0.000 C 
BRANCH  20  22
ATOM     22  C   UNL     1       2.698   4.501  18.336  0.00  0.00    +0.000 C 
ATOM     23  O   UNL     1       1.729   4.521  17.572  0.00  0.00    +0.000 OA
ATOM     24  N   UNL     1       2.835   3.457  19.248  0.00  0.00    +0.000 N 
ATOM     25  C   UNL     1       1.913   2.308  19.286  0.00  0.00    +0.000 C 
ATOM     26  C   UNL     1       1.676   2.577  20.773  0.00  0.00    +0.000 C 
ATOM     27  F   UNL     1       1.886   1.526  21.600  0.00  0.00    +0.000 F 
ATOM     28  F   UNL     1       0.455   3.072  21.092  0.00  0.00    +0.000 F 
ATOM     29  C   UNL     1       2.808   3.610  20.709  0.00  0.00    +0.000 C 
ENDBRANCH  20  22
BRANCH  20  33
ATOM     30  C   UNL     1       6.042   4.092  14.093  0.00  0.00    +0.000 C 
ATOM     31  C   UNL     1       5.437   4.829  15.216  0.00  0.00    +0.000 A 
ATOM     32  N   UNL     1       4.879   4.385  16.319  0.00  0.00    +0.000 NA
ATOM     33  C   UNL     1       4.535   5.559  16.971  0.00  0.00    +0.000 A 
ATOM     34  N   UNL     1       4.905   6.671  16.312  0.00  0.00    +0.000 NA
ATOM     35  O   UNL     1       5.483   6.188  15.143  0.00  0.00    +0.000 OA
ENDBRANCH  20  33
ENDBRANCH   1  20
TORSDOF 8
ENDMDL
MODEL 5
REMARK VINA RESULT:      -8.0      1.078      1.180
REMARK  Name = 
REMARK  10 active torsions:
REMARK  status: ('A' for Active; 'I' for Inactive)
REMARK    1  A    between atoms: C_1  and  C_2
REMARK    2  A    between atoms: C_4  and  C_5
REMARK    3  A    between atoms: C_5  and  C_6
REMARK    4  A    between atoms: C_5  and  N_7
REMARK    5  A    between atoms: C_5  and  C_25
REMARK    6  A    between atoms: C_8  and  C_10
REMARK    7  A    between atoms: C_12  and  O_13
REMARK    8  A    between atoms: O_13  and  C_14
REMARK    9  A    between atoms: C_14  and  C_15
REMARK   10  A    between atoms: C_19  and  C_20
REMARK                            x       y       z     vdW  Elec       q    Type
REMARK                         _______ _______ _______ _____ _____    ______ ____
ROOT
ATOM      1  N   UNL     1       0.444  10.057  19.951  0.00  0.00    +0.000 N 
ATOM      2  C   UNL     1       1.069   9.006  20.582  0.00  0.00    +0.000 C 
ATOM      3  O   UNL     1       1.003   8.797  21.790  0.00  0.00    +0.000 OA
ATOM      4  H   UNL     1       0.480  10.073  18.936  0.00  0.00    +0.000 HD
ENDROOT
BRANCH   2   5
ATOM      5  C   UNL     1       1.883   8.097  19.712  0.00  0.00    +0.000 A 
ATOM      6  C   UNL     1       2.122   6.801  20.151  0.00  0.00    +0.000 A 
ATOM      7  C   UNL     1       2.871   5.952  19.343  0.00  0.00    +0.000 A 
ATOM      8  C   UNL     1       3.383   6.409  18.115  0.00  0.00    +0.000 A 
ATOM      9  C   UNL     1       3.082   7.738  17.787  0.00  0.00    +0.000 A 
ATOM     10  N   UNL     1       2.349   8.598  18.542  0.00  0.00    +0.000 NA
BRANCH   8  11
ATOM     11  C   UNL     1       4.159   5.516  17.164  0.00  0.00    +0.000 C 
ATOM     12  C   UNL     1       5.040   6.109  16.087  0.00  0.00    +0.000 C 
ATOM     13  C   UNL     1       5.667   5.412  17.257  0.00  0.00    +0.000 C 
ENDBRANCH   8  11
BRANCH   7  14
ATOM     14  O   UNL     1       3.089   4.628  19.631  0.00  0.00    +0.000 OA
BRANCH  14  15
ATOM     15  C   UNL     1       2.548   4.121  20.860  0.00  0.00    +0.000 C 
BRANCH  15  16
ATOM     16  C   UNL     1       1.331   3.236  20.598  0.00  0.00    +0.000 C 
ATOM     17  F   UNL     1       0.258   3.929  20.158  0.00  0.00    +0.000 F 
ATOM     18  F   UNL     1       1.609   2.289  19.670  0.00  0.00    +0.000 F 
ATOM     19  F   UNL     1       0.958   2.590  21.729  0.00  0.00    +0.000 F 
ENDBRANCH  15  16
ENDBRANCH  14  15
ENDBRANCH   7  14
ENDBRANCH   2   5
BRANCH   1  20
ATOM     20  C   UNL     1      -0.355  11.079  20.669  0.00  0.00    +0.000 C 
ATOM     21  C   UNL     1      -0.722  10.575  22.085  0.00  0.00    +0.000 C 
BRANCH  20  22
ATOM     22  C   UNL     1       0.540  12.351  20.861  0.00  0.00    +0.000 C 
ATOM     23  O   UNL     1       0.319  13.194  21.735  0.00  0.00    +0.000 OA
ATOM     24  N   UNL     1       1.639  12.502  20.020  0.00  0.00    +0.000 N 
ATOM     25  C   UNL     1       2.621  13.590  20.183  0.00  0.00    +0.000 C 
ATOM     26  C   UNL     1       2.398  13.978  18.721  0.00  0.00    +0.000 C 
ATOM     27  F   UNL     1       3.513  14.048  17.955  0.00  0.00    +0.000 F 
ATOM     28  F   UNL     1       1.726  15.138  18.518  0.00  0.00    +0.000 F 
ATOM     29  C   UNL     1       1.564  12.700  18.567  0.00  0.00    +0.000 C 
ENDBRANCH  20  22
BRANCH  20  33
ATOM     30  C   UNL     1      -3.848  11.389  17.112  0.00  0.00    +0.000 C 
ATOM     31  C   UNL     1      -3.017  11.488  18.325  0.00  0.00    +0.000 A 
ATOM     32  N   UNL     1      -1.853  10.947  18.602  0.00  0.00    +0.000 NA
ATOM     33  C   UNL     1      -1.592  11.438  19.872  0.00  0.00    +0.000 A 
ATOM     34  N   UNL     1      -2.538  12.276  20.332  0.00  0.00    +0.000 NA
ATOM     35  O   UNL     1      -3.489  12.293  19.317  0.00  0.00    +0.000 OA
ENDBRANCH  20  33
ENDBRANCH   1  20
TORSDOF 8
ENDMDL
MODEL 6
REMARK VINA RESULT:      -8.0      1.534      1.986
REMARK  Name = 
REMARK  10 active torsions:
REMARK  status: ('A' for Active; 'I' for Inactive)
REMARK    1  A    between atoms: C_1  and  C_2
REMARK    2  A    between atoms: C_4  and  C_5
REMARK    3  A    between atoms: C_5  and  C_6
REMARK    4  A    between atoms: C_5  and  N_7
REMARK    5  A    between atoms: C_5  and  C_25
REMARK    6  A    between atoms: C_8  and  C_10
REMARK    7  A    between atoms: C_12  and  O_13
REMARK    8  A    between atoms: O_13  and  C_14
REMARK    9  A    between atoms: C_14  and  C_15
REMARK   10  A    between atoms: C_19  and  C_20
REMARK                            x       y       z     vdW  Elec       q    Type
REMARK                         _______ _______ _______ _____ _____    ______ ____
ROOT
ATOM      1  N   UNL     1       0.408  11.234  19.359  0.00  0.00    +0.000 N 
ATOM      2  C   UNL     1       0.426   9.999  19.965  0.00  0.00    +0.000 C 
ATOM      3  O   UNL     1      -0.245   9.711  20.952  0.00  0.00    +0.000 OA
ATOM      4  H   UNL     1       0.922  11.329  18.489  0.00  0.00    +0.000 HD
ENDROOT
BRANCH   2   5
ATOM      5  C   UNL     1       1.346   8.979  19.368  0.00  0.00    +0.000 A 
ATOM      6  C   UNL     1       1.612   7.823  20.091  0.00  0.00    +0.000 A 
ATOM      7  C   UNL     1       2.460   6.870  19.536  0.00  0.00    +0.000 A 
ATOM      8  C   UNL     1       3.042   7.087  18.274  0.00  0.00    +0.000 A 
ATOM      9  C   UNL     1       2.704   8.294  17.647  0.00  0.00    +0.000 A 
ATOM     10  N   UNL     1       1.876   9.247  18.148  0.00  0.00    +0.000 NA
BRANCH   8  11
ATOM     11  C   UNL     1       3.929   6.062  17.591  0.00  0.00    +0.000 C 
ATOM     12  C   UNL     1       4.863   6.467  16.472  0.00  0.00    +0.000 C 
ATOM     13  C   UNL     1       5.428   6.074  17.803  0.00  0.00    +0.000 C 
ENDBRANCH   8  11
BRANCH   7  14
ATOM     14  O   UNL     1       2.717   5.654  20.118  0.00  0.00    +0.000 OA
BRANCH  14  15
ATOM     15  C   UNL     1       1.604   4.777  20.338  0.00  0.00    +0.000 C 
BRANCH  15  16
ATOM     16  C   UNL     1       1.511   3.723  19.237  0.00  0.00    +0.000 C 
ATOM     17  F   UNL     1       2.680   3.081  19.019  0.00  0.00    +0.000 F 
ATOM     18  F   UNL     1       0.584   2.783  19.539  0.00  0.00    +0.000 F 
ATOM     19  F   UNL     1       1.139   4.290  18.064  0.00  0.00    +0.000 F 
ENDBRANCH  15  16
ENDBRANCH  14  15
ENDBRANCH   7  14
ENDBRANCH   2   5
BRANCH   1  20
ATOM     20  C   UNL     1      -0.405  12.371  19.855  0.00  0.00    +0.000 C 
ATOM     21  C   UNL     1      -0.254  12.511  21.388  0.00  0.00    +0.000 C 
BRANCH  20  22
ATOM     22  C   UNL     1       0.164  13.688  19.224  0.00  0.00    +0.000 C 
ATOM     23  O   UNL     1      -0.412  14.292  18.314  0.00  0.00    +0.000 OA
ATOM     24  N   UNL     1       1.351  14.196  19.745  0.00  0.00    +0.000 N 
ATOM     25  C   UNL     1       1.918  15.489  19.319  0.00  0.00    +0.000 C 
ATOM     26  C   UNL     1       3.236  14.781  19.006  0.00  0.00    +0.000 C 
ATOM     27  F   UNL     1       4.337  15.301  19.598  0.00  0.00    +0.000 F 
ATOM     28  F   UNL     1       3.536  14.656  17.690  0.00  0.00    +0.000 F 
ATOM     29  C   UNL     1       2.655  13.525  19.670  0.00  0.00    +0.000 C 
ENDBRANCH  20  22
BRANCH  20  33
ATOM     30  C   UNL     1      -4.603  11.174  17.426  0.00  0.00    +0.000 C 
ATOM     31  C   UNL     1      -3.567  11.635  18.367  0.00  0.00    +0.000 A 
ATOM     32  N   UNL     1      -2.257  11.590  18.275  0.00  0.00    +0.000 NA
ATOM     33  C   UNL     1      -1.856  12.197  19.456  0.00  0.00    +0.000 A 
ATOM     34  N   UNL     1      -2.878  12.630  20.215  0.00  0.00    +0.000 NA
ATOM     35  O   UNL     1      -4.009  12.240  19.504  0.00  0.00    +0.000 OA
ENDBRANCH  20  33
ENDBRANCH   1  20
TORSDOF 8
ENDMDL
MODEL 7
REMARK VINA RESULT:      -7.9      2.600      3.846
REMARK  Name = 
REMARK  10 active torsions:
REMARK  status: ('A' for Active; 'I' for Inactive)
REMARK    1  A    between atoms: C_1  and  C_2
REMARK    2  A    between atoms: C_4  and  C_5
REMARK    3  A    between atoms: C_5  and  C_6
REMARK    4  A    between atoms: C_5  and  N_7
REMARK    5  A    between atoms: C_5  and  C_25
REMARK    6  A    between atoms: C_8  and  C_10
REMARK    7  A    between atoms: C_12  and  O_13
REMARK    8  A    between atoms: O_13  and  C_14
REMARK    9  A    between atoms: C_14  and  C_15
REMARK   10  A    between atoms: C_19  and  C_20
REMARK                            x       y       z     vdW  Elec       q    Type
REMARK                         _______ _______ _______ _____ _____    ______ ____
ROOT
ATOM      1  N   UNL     1       1.031  10.112  19.832  0.00  0.00    +0.000 N 
ATOM      2  C   UNL     1       1.831   9.798  18.758  0.00  0.00    +0.000 C 
ATOM      3  O   UNL     1       2.155  10.602  17.889  0.00  0.00    +0.000 OA
ATOM      4  H   UNL     1       0.912   9.399  20.544  0.00  0.00    +0.000 HD
ENDROOT
BRANCH   2   5
ATOM      5  C   UNL     1       2.299   8.378  18.671  0.00  0.00    +0.000 A 
ATOM      6  C   UNL     1       2.113   7.551  19.772  0.00  0.00    +0.000 A 
ATOM      7  C   UNL     1       2.539   6.229  19.690  0.00  0.00    +0.000 A 
ATOM      8  C   UNL     1       3.156   5.752  18.519  0.00  0.00    +0.000 A 
ATOM      9  C   UNL     1       3.294   6.683  17.482  0.00  0.00    +0.000 A 
ATOM     10  N   UNL     1       2.887   7.979  17.515  0.00  0.00    +0.000 NA
BRANCH   8  11
ATOM     11  C   UNL     1       3.591   4.308  18.350  0.00  0.00    +0.000 C 
ATOM     12  C   UNL     1       4.668   3.934  17.355  0.00  0.00    +0.000 C 
ATOM     13  C   UNL     1       4.954   3.850  18.824  0.00  0.00    +0.000 C 
ENDBRANCH   8  11
BRANCH   7  14
ATOM     14  O   UNL     1       2.322   5.301  20.679  0.00  0.00    +0.000 OA
BRANCH  14  15
ATOM     15  C   UNL     1       1.185   4.438  20.538  0.00  0.00    +0.000 C 
BRANCH  15  16
ATOM     16  C   UNL     1       1.527   3.010  20.958  0.00  0.00    +0.000 C 
ATOM     17  F   UNL     1       0.783   2.571  21.996  0.00  0.00    +0.000 F 
ATOM     18  F   UNL     1       1.342   2.144  19.933  0.00  0.00    +0.000 F 
ATOM     19  F   UNL     1       2.828   2.919  21.328  0.00  0.00    +0.000 F 
ENDBRANCH  15  16
ENDBRANCH  14  15
ENDBRANCH   7  14
ENDBRANCH   2   5
BRANCH   1  20
ATOM     20  C   UNL     1       0.439  11.456  20.040  0.00  0.00    +0.000 C 
ATOM     21  C   UNL     1       1.549  12.534  20.057  0.00  0.00    +0.000 C 
BRANCH  20  22
ATOM     22  C   UNL     1      -0.485  11.778  18.816  0.00  0.00    +0.000 C 
ATOM     23  O   UNL     1      -0.620  12.920  18.367  0.00  0.00    +0.000 OA
ATOM     24  N   UNL     1      -1.147  10.715  18.208  0.00  0.00    +0.000 N 
ATOM     25  C   UNL     1      -1.944  10.874  16.978  0.00  0.00    +0.000 C 
ATOM     26  C   UNL     1      -3.131  10.225  17.691  0.00  0.00    +0.000 C 
ATOM     27  F   UNL     1      -3.684   9.161  17.061  0.00  0.00    +0.000 F 
ATOM     28  F   UNL     1      -4.156  11.057  18.000  0.00  0.00    +0.000 F 
ATOM     29  C   UNL     1      -2.182   9.893  18.849  0.00  0.00    +0.000 C 
ENDBRANCH  20  22
BRANCH  20  33
ATOM     30  C   UNL     1      -3.100  12.325  23.457  0.00  0.00    +0.000 C 
ATOM     31  C   UNL     1      -1.927  11.888  22.681  0.00  0.00    +0.000 A 
ATOM     32  N   UNL     1      -1.575  12.166  21.446  0.00  0.00    +0.000 NA
ATOM     33  C   UNL     1      -0.376  11.482  21.318  0.00  0.00    +0.000 A 
ATOM     34  N   UNL     1       0.007  10.848  22.440  0.00  0.00    +0.000 NA
ATOM     35  O   UNL     1      -1.029  11.100  23.334  0.00  0.00    +0.000 OA
ENDBRANCH  20  33
ENDBRANCH   1  20
TORSDOF 8
ENDMDL
MODEL 8
REMARK VINA RESULT:      -7.8      2.981      4.432
REMARK  Name = 
REMARK  10 active torsions:
REMARK  status: ('A' for Active; 'I' for Inactive)
REMARK    1  A    between atoms: C_1  and  C_2
REMARK    2  A    between atoms: C_4  and  C_5
REMARK    3  A    between atoms: C_5  and  C_6
REMARK    4  A    between atoms: C_5  and  N_7
REMARK    5  A    between atoms: C_5  and  C_25
REMARK    6  A    between atoms: C_8  and  C_10
REMARK    7  A    between atoms: C_12  and  O_13
REMARK    8  A    between atoms: O_13  and  C_14
REMARK    9  A    between atoms: C_14  and  C_15
REMARK   10  A    between atoms: C_19  and  C_20
REMARK                            x       y       z     vdW  Elec       q    Type
REMARK                         _______ _______ _______ _____ _____    ______ ____
ROOT
ATOM      1  N   UNL     1       1.145   9.398  19.688  0.00  0.00    +0.000 N 
ATOM      2  C   UNL     1       1.818   8.990  18.560  0.00  0.00    +0.000 C 
ATOM      3  O   UNL     1       1.849   9.631  17.513  0.00  0.00    +0.000 OA
ATOM      4  H   UNL     1       1.273   8.842  20.528  0.00  0.00    +0.000 HD
ENDROOT
BRANCH   2   5
ATOM      5  C   UNL     1       2.526   7.673  18.647  0.00  0.00    +0.000 A 
ATOM      6  C   UNL     1       3.568   7.422  17.763  0.00  0.00    +0.000 A 
ATOM      7  C   UNL     1       4.233   6.203  17.846  0.00  0.00    +0.000 A 
ATOM      8  C   UNL     1       3.843   5.245  18.801  0.00  0.00    +0.000 A 
ATOM      9  C   UNL     1       2.775   5.612  19.629  0.00  0.00    +0.000 A 
ATOM     10  N   UNL     1       2.103   6.792  19.587  0.00  0.00    +0.000 NA
BRANCH   8  11
ATOM     11  C   UNL     1       4.565   3.922  18.978  0.00  0.00    +0.000 C 
ATOM     12  C   UNL     1       3.977   2.828  19.842  0.00  0.00    +0.000 C 
ATOM     13  C   UNL     1       4.020   2.654  18.354  0.00  0.00    +0.000 C 
ENDBRANCH   8  11
BRANCH   7  14
ATOM     14  O   UNL     1       5.333   5.886  17.088  0.00  0.00    +0.000 OA
BRANCH  14  15
ATOM     15  C   UNL     1       5.192   5.944  15.662  0.00  0.00    +0.000 C 
BRANCH  15  16
ATOM     16  C   UNL     1       5.897   4.765  14.994  0.00  0.00    +0.000 C 
ATOM     17  F   UNL     1       7.124   5.080  14.524  0.00  0.00    +0.000 F 
ATOM     18  F   UNL     1       6.048   3.735  15.860  0.00  0.00    +0.000 F 
ATOM     19  F   UNL     1       5.171   4.305  13.947  0.00  0.00    +0.000 F 
ENDBRANCH  15  16
ENDBRANCH  14  15
ENDBRANCH   7  14
ENDBRANCH   2   5
BRANCH   1  20
ATOM     20  C   UNL     1       0.349  10.647  19.754  0.00  0.00    +0.000 C 
ATOM     21  C   UNL     1      -0.723  10.661  18.639  0.00  0.00    +0.000 C 
BRANCH  20  22
ATOM     22  C   UNL     1      -0.420  10.664  21.119  0.00  0.00    +0.000 C 
ATOM     23  O   UNL     1      -0.663   9.637  21.759  0.00  0.00    +0.000 OA
ATOM     24  N   UNL     1      -0.809  11.901  21.628  0.00  0.00    +0.000 N 
ATOM     25  C   UNL     1      -1.427  12.056  22.957  0.00  0.00    +0.000 C 
ATOM     26  C   UNL     1      -2.591  12.801  22.303  0.00  0.00    +0.000 C 
ATOM     27  F   UNL     1      -2.869  14.022  22.818  0.00  0.00    +0.000 F 
ATOM     28  F   UNL     1      -3.768  12.130  22.262  0.00  0.00    +0.000 F 
ATOM     29  C   UNL     1      -1.786  12.798  20.997  0.00  0.00    +0.000 C 
ENDBRANCH  20  22
BRANCH  20  33
ATOM     30  C   UNL     1       2.763  14.726  18.175  0.00  0.00    +0.000 C 
ATOM     31  C   UNL     1       2.209  13.578  18.915  0.00  0.00    +0.000 A 
ATOM     32  N   UNL     1       1.347  12.662  18.536  0.00  0.00    +0.000 NA
ATOM     33  C   UNL     1       1.257  11.857  19.662  0.00  0.00    +0.000 A 
ATOM     34  N   UNL     1       2.061  12.244  20.668  0.00  0.00    +0.000 NA
ATOM     35  O   UNL     1       2.674  13.393  20.181  0.00  0.00    +0.000 OA
ENDBRANCH  20  33
ENDBRANCH   1  20
TORSDOF 8
ENDMDL
MODEL 9
REMARK VINA RESULT:      -7.8      3.260      4.776
REMARK  Name = 
REMARK  10 active torsions:
REMARK  status: ('A' for Active; 'I' for Inactive)
REMARK    1  A    between atoms: C_1  and  C_2
REMARK    2  A    between atoms: C_4  and  C_5
REMARK    3  A    between atoms: C_5  and  C_6
REMARK    4  A    between atoms: C_5  and  N_7
REMARK    5  A    between atoms: C_5  and  C_25
REMARK    6  A    between atoms: C_8  and  C_10
REMARK    7  A    between atoms: C_12  and  O_13
REMARK    8  A    between atoms: O_13  and  C_14
REMARK    9  A    between atoms: C_14  and  C_15
REMARK   10  A    between atoms: C_19  and  C_20
REMARK                            x       y       z     vdW  Elec       q    Type
REMARK                         _______ _______ _______ _____ _____    ______ ____
ROOT
ATOM      1  N   UNL     1       0.997   9.520  19.909  0.00  0.00    +0.000 N 
ATOM      2  C   UNL     1       1.595   9.051  18.763  0.00  0.00    +0.000 C 
ATOM      3  O   UNL     1       1.562   9.638  17.685  0.00  0.00    +0.000 OA
ATOM      4  H   UNL     1       1.176   9.007  20.767  0.00  0.00    +0.000 HD
ENDROOT
BRANCH   2   5
ATOM      5  C   UNL     1       2.303   7.736  18.873  0.00  0.00    +0.000 A 
ATOM      6  C   UNL     1       3.310   7.449  17.960  0.00  0.00    +0.000 A 
ATOM      7  C   UNL     1       3.975   6.231  18.064  0.00  0.00    +0.000 A 
ATOM      8  C   UNL     1       3.619   5.310  19.067  0.00  0.00    +0.000 A 
ATOM      9  C   UNL     1       2.583   5.711  19.921  0.00  0.00    +0.000 A 
ATOM     10  N   UNL     1       1.913   6.892  19.860  0.00  0.00    +0.000 NA
BRANCH   8  11
ATOM     11  C   UNL     1       4.344   3.992  19.266  0.00  0.00    +0.000 C 
ATOM     12  C   UNL     1       3.670   2.836  19.972  0.00  0.00    +0.000 C 
ATOM     13  C   UNL     1       3.925   2.756  18.497  0.00  0.00    +0.000 C 
ENDBRANCH   8  11
BRANCH   7  14
ATOM     14  O   UNL     1       5.045   5.882  17.278  0.00  0.00    +0.000 OA
BRANCH  14  15
ATOM     15  C   UNL     1       6.169   6.773  17.257  0.00  0.00    +0.000 C 
BRANCH  15  16
ATOM     16  C   UNL     1       7.301   6.246  18.136  0.00  0.00    +0.000 C 
ATOM     17  F   UNL     1       6.893   5.908  19.379  0.00  0.00    +0.000 F 
ATOM     18  F   UNL     1       7.874   5.149  17.587  0.00  0.00    +0.000 F 
ATOM     19  F   UNL     1       8.274   7.180  18.273  0.00  0.00    +0.000 F 
ENDBRANCH  15  16
ENDBRANCH  14  15
ENDBRANCH   7  14
ENDBRANCH   2   5
BRANCH   1  20
ATOM     20  C   UNL     1       0.211  10.777  19.962  0.00  0.00    +0.000 C 
ATOM     21  C   UNL     1      -0.882  10.773  18.868  0.00  0.00    +0.000 C 
BRANCH  20  22
ATOM     22  C   UNL     1      -0.531  10.831  21.341  0.00  0.00    +0.000 C 
ATOM     23  O   UNL     1      -0.705   9.830  22.043  0.00  0.00    +0.000 OA
ATOM     24  N   UNL     1      -0.978  12.072  21.788  0.00  0.00    +0.000 N 
ATOM     25  C   UNL     1      -1.578  12.269  23.120  0.00  0.00    +0.000 C 
ATOM     26  C   UNL     1      -2.794  12.912  22.451  0.00  0.00    +0.000 C 
ATOM     27  F   UNL     1      -3.129  14.144  22.902  0.00  0.00    +0.000 F 
ATOM     28  F   UNL     1      -3.932  12.177  22.474  0.00  0.00    +0.000 F 
ATOM     29  C   UNL     1      -2.015  12.877  21.130  0.00  0.00    +0.000 C 
ENDBRANCH  20  22
BRANCH  20  33
ATOM     30  C   UNL     1       3.588  14.358  20.814  0.00  0.00    +0.000 C 
ATOM     31  C   UNL     1       2.577  13.435  20.271  0.00  0.00    +0.000 A 
ATOM     32  N   UNL     1       1.973  12.412  20.833  0.00  0.00    +0.000 NA
ATOM     33  C   UNL     1       1.125  11.978  19.825  0.00  0.00    +0.000 A 
ATOM     34  N   UNL     1       1.181  12.729  18.712  0.00  0.00    +0.000 NA
ATOM     35  O   UNL     1       2.155  13.680  19.000  0.00  0.00    +0.000 OA
ENDBRANCH  20  33
ENDBRANCH   1  20
TORSDOF 8
ENDMDL
