MODEL 1
REMARK VINA RESULT:      -7.7      0.000      0.000
REMARK  Name = 
REMARK  10 active torsions:
REMARK  status: ('A' for Active; 'I' for Inactive)
REMARK    1  A    between atoms: C_1  and  O_2
REMARK    2  A    between atoms: O_2  and  C_3
REMARK    3  A    between atoms: C_7  and  C_8
REMARK    4  A    between atoms: N_13  and  C_14
REMARK    5  A    between atoms: C_14  and  C_15
REMARK    6  A    between atoms: C_15  and  C_16
REMARK    7  A    between atoms: C_16  and  C_17
REMARK    8  A    between atoms: C_24  and  C_25
REMARK    9  A    between atoms: C_25  and  C_26
REMARK   10  A    between atoms: C_26  and  O_27
REMARK                            x       y       z     vdW  Elec       q    Type
REMARK                         _______ _______ _______ _____ _____    ______ ____
ROOT
ATOM      1  C   UNL     1       3.592   5.357  17.274  0.00  0.00    +0.000 C 
ATOM      2  C   UNL     1       4.822   5.613  17.742  0.00  0.00    +0.000 C 
ATOM      3  S   UNL     1       5.650   4.787  18.999  0.00  0.00    +0.000 S 
ATOM      4  C   UNL     1       7.052   5.838  18.904  0.00  0.00    +0.000 C 
ATOM      5  S   UNL     1       8.349   5.636  19.932  0.00  0.00    +0.000 S 
ATOM      6  N   UNL     1       6.866   6.779  17.909  0.00  0.00    +0.000 N 
ATOM      7  C   UNL     1       5.675   6.702  17.200  0.00  0.00    +0.000 C 
ATOM      8  O   UNL     1       5.345   7.401  16.253  0.00  0.00    +0.000 OA
ENDROOT
BRANCH   1  13
ATOM      9  C   UNL     1       1.449   3.329  19.602  0.00  0.00    +0.000 A 
ATOM     10  C   UNL     1       1.521   2.078  18.986  0.00  0.00    +0.000 A 
ATOM     11  C   UNL     1       2.194   1.917  17.773  0.00  0.00    +0.000 A 
ATOM     12  C   UNL     1       2.824   3.006  17.177  0.00  0.00    +0.000 A 
ATOM     13  C   UNL     1       2.775   4.258  17.798  0.00  0.00    +0.000 A 
ATOM     14  C   UNL     1       2.063   4.425  18.996  0.00  0.00    +0.000 A 
BRANCH   9  16
ATOM     15  C   UNL     1       1.427   2.707  21.898  0.00  0.00    +0.000 C 
ATOM     16  O   UNL     1       0.786   3.344  20.799  0.00  0.00    +0.000 OA
ENDBRANCH   9  16
ENDBRANCH   1  13
BRANCH   6  17
ATOM     17  C   UNL     1       7.886   7.736  17.473  0.00  0.00    +0.000 C 
BRANCH  17  18
ATOM     18  C   UNL     1       8.497   8.577  18.605  0.00  0.00    +0.000 C 
BRANCH  18  19
ATOM     19  C   UNL     1       8.885  10.003  18.205  0.00  0.00    +0.000 C 
BRANCH  19  20
ATOM     20  C   UNL     1       9.141  10.905  19.402  0.00  0.00    +0.000 C 
ATOM     21  O   UNL     1       9.198  10.428  20.536  0.00  0.00    +0.000 OA
ATOM     22  N   UNL     1       9.322  12.261  19.162  0.00  0.00    +0.000 N 
ATOM     23  C   UNL     1       9.566  13.142  20.308  0.00  0.00    +0.000 C 
ATOM     24  C   UNL     1       8.498  14.225  20.408  0.00  0.00    +0.000 C 
ATOM     25  C   UNL     1       8.314  14.968  19.087  0.00  0.00    +0.000 C 
ATOM     26  C   UNL     1       8.100  13.992  17.929  0.00  0.00    +0.000 C 
ATOM     27  C   UNL     1       9.211  12.927  17.851  0.00  0.00    +0.000 C 
BRANCH  27  28
ATOM     28  C   UNL     1      10.549  13.529  17.375  0.00  0.00    +0.000 C 
BRANCH  28  29
ATOM     29  C   UNL     1      11.760  12.828  17.975  0.00  0.00    +0.000 C 
BRANCH  29  30
ATOM     30  O   UNL     1      11.990  11.599  17.295  0.00  0.00    +0.000 OA
ATOM     31  H   UNL     1      11.179  11.370  16.810  0.00  0.00    +0.000 HD
ENDBRANCH  29  30
ENDBRANCH  28  29
ENDBRANCH  27  28
ENDBRANCH  19  20
ENDBRANCH  18  19
ENDBRANCH  17  18
ENDBRANCH   6  17
TORSDOF 9
ENDMDL
MODEL 2
REMARK VINA RESULT:      -7.5      7.454     10.057
REMARK  Name = 
REMARK  10 active torsions:
REMARK  status: ('A' for Active; 'I' for Inactive)
REMARK    1  A    between atoms: C_1  and  O_2
REMARK    2  A    between atoms: O_2  and  C_3
REMARK    3  A    between atoms: C_7  and  C_8
REMARK    4  A    between atoms: N_13  and  C_14
REMARK    5  A    between atoms: C_14  and  C_15
REMARK    6  A    between atoms: C_15  and  C_16
REMARK    7  A    between atoms: C_16  and  C_17
REMARK    8  A    between atoms: C_24  and  C_25
REMARK    9  A    between atoms: C_25  and  C_26
REMARK   10  A    between atoms: C_26  and  O_27
REMARK                            x       y       z     vdW  Elec       q    Type
REMARK                         _______ _______ _______ _____ _____    ______ ____
ROOT
ATOM      1  C   UNL     1       2.485   7.773  18.115  0.00  0.00    +0.000 C 
ATOM      2  C   UNL     1       1.906   8.443  19.121  0.00  0.00    +0.000 C 
ATOM      3  S   UNL     1       1.493   7.836  20.674  0.00  0.00    +0.000 S 
ATOM      4  C   UNL     1       0.786   9.359  21.191  0.00  0.00    +0.000 C 
ATOM      5  S   UNL     1       0.099   9.517  22.701  0.00  0.00    +0.000 S 
ATOM      6  N   UNL     1       0.898  10.294  20.180  0.00  0.00    +0.000 N 
ATOM      7  C   UNL     1       1.532   9.877  19.019  0.00  0.00    +0.000 C 
ATOM      8  O   UNL     1       1.777  10.563  18.037  0.00  0.00    +0.000 OA
ENDROOT
BRANCH   1  13
ATOM      9  C   UNL     1       4.625   4.712  18.536  0.00  0.00    +0.000 A 
ATOM     10  C   UNL     1       3.725   3.719  18.142  0.00  0.00    +0.000 A 
ATOM     11  C   UNL     1       2.403   4.038  17.823  0.00  0.00    +0.000 A 
ATOM     12  C   UNL     1       1.977   5.362  17.872  0.00  0.00    +0.000 A 
ATOM     13  C   UNL     1       2.877   6.365  18.244  0.00  0.00    +0.000 A 
ATOM     14  C   UNL     1       4.193   6.036  18.603  0.00  0.00    +0.000 A 
BRANCH   9  16
ATOM     15  C   UNL     1       6.892   4.581  17.826  0.00  0.00    +0.000 C 
ATOM     16  O   UNL     1       5.894   4.269  18.792  0.00  0.00    +0.000 OA
ENDBRANCH   9  16
ENDBRANCH   1  13
BRANCH   6  17
ATOM     17  C   UNL     1       0.525  11.705  20.313  0.00  0.00    +0.000 C 
BRANCH  17  18
ATOM     18  C   UNL     1      -0.649  12.142  19.423  0.00  0.00    +0.000 C 
BRANCH  18  19
ATOM     19  C   UNL     1      -1.975  11.438  19.721  0.00  0.00    +0.000 C 
BRANCH  19  20
ATOM     20  C   UNL     1      -3.158  12.392  19.754  0.00  0.00    +0.000 C 
ATOM     21  O   UNL     1      -3.130  13.387  20.479  0.00  0.00    +0.000 OA
ATOM     22  N   UNL     1      -4.241  12.107  18.933  0.00  0.00    +0.000 N 
ATOM     23  C   UNL     1      -5.390  13.018  18.958  0.00  0.00    +0.000 C 
ATOM     24  C   UNL     1      -6.663  12.287  19.370  0.00  0.00    +0.000 C 
ATOM     25  C   UNL     1      -6.893  11.028  18.536  0.00  0.00    +0.000 C 
ATOM     26  C   UNL     1      -5.646  10.142  18.521  0.00  0.00    +0.000 C 
ATOM     27  C   UNL     1      -4.386  10.912  18.081  0.00  0.00    +0.000 C 
BRANCH  27  28
ATOM     28  C   UNL     1      -4.420  11.254  16.578  0.00  0.00    +0.000 C 
BRANCH  28  29
ATOM     29  C   UNL     1      -3.085  11.011  15.886  0.00  0.00    +0.000 C 
BRANCH  29  30
ATOM     30  O   UNL     1      -3.291  10.849  14.487  0.00  0.00    +0.000 OA
ATOM     31  H   UNL     1      -4.223  11.048  14.298  0.00  0.00    +0.000 HD
ENDBRANCH  29  30
ENDBRANCH  28  29
ENDBRANCH  27  28
ENDBRANCH  19  20
ENDBRANCH  18  19
ENDBRANCH  17  18
ENDBRANCH   6  17
TORSDOF 9
ENDMDL
MODEL 3
REMARK VINA RESULT:      -7.4      5.929      7.105
REMARK  Name = 
REMARK  10 active torsions:
REMARK  status: ('A' for Active; 'I' for Inactive)
REMARK    1  A    between atoms: C_1  and  O_2
REMARK    2  A    between atoms: O_2  and  C_3
REMARK    3  A    between atoms: C_7  and  C_8
REMARK    4  A    between atoms: N_13  and  C_14
REMARK    5  A    between atoms: C_14  and  C_15
REMARK    6  A    between atoms: C_15  and  C_16
REMARK    7  A    between atoms: C_16  and  C_17
REMARK    8  A    between atoms: C_24  and  C_25
REMARK    9  A    between atoms: C_25  and  C_26
REMARK   10  A    between atoms: C_26  and  O_27
REMARK                            x       y       z     vdW  Elec       q    Type
REMARK                         _______ _______ _______ _____ _____    ______ ____
ROOT
ATOM      1  C   UNL     1       2.689   7.354  17.851  0.00  0.00    +0.000 C 
ATOM      2  C   UNL     1       2.079   8.104  18.780  0.00  0.00    +0.000 C 
ATOM      3  S   UNL     1       1.739   7.672  20.408  0.00  0.00    +0.000 S 
ATOM      4  C   UNL     1       0.929   9.193  20.747  0.00  0.00    +0.000 C 
ATOM      5  S   UNL     1       0.258   9.492  22.244  0.00  0.00    +0.000 S 
ATOM      6  N   UNL     1       0.953   9.997  19.624  0.00  0.00    +0.000 N 
ATOM      7  C   UNL     1       1.596   9.482  18.508  0.00  0.00    +0.000 C 
ATOM      8  O   UNL     1       1.772  10.053  17.441  0.00  0.00    +0.000 OA
ENDROOT
BRANCH   1  13
ATOM      9  C   UNL     1       5.066   4.526  18.545  0.00  0.00    +0.000 A 
ATOM     10  C   UNL     1       4.218   3.432  18.353  0.00  0.00    +0.000 A 
ATOM     11  C   UNL     1       2.860   3.619  18.083  0.00  0.00    +0.000 A 
ATOM     12  C   UNL     1       2.343   4.906  17.978  0.00  0.00    +0.000 A 
ATOM     13  C   UNL     1       3.189   6.007  18.147  0.00  0.00    +0.000 A 
ATOM     14  C   UNL     1       4.544   5.816  18.458  0.00  0.00    +0.000 A 
BRANCH   9  16
ATOM     15  C   UNL     1       7.353   4.931  18.037  0.00  0.00    +0.000 C 
ATOM     16  O   UNL     1       6.376   4.205  18.773  0.00  0.00    +0.000 OA
ENDBRANCH   9  16
ENDBRANCH   1  13
BRANCH   6  17
ATOM     17  C   UNL     1       0.477  11.383  19.588  0.00  0.00    +0.000 C 
BRANCH  17  18
ATOM     18  C   UNL     1       1.557  12.436  19.886  0.00  0.00    +0.000 C 
BRANCH  18  19
ATOM     19  C   UNL     1       1.702  13.522  18.817  0.00  0.00    +0.000 C 
BRANCH  19  20
ATOM     20  C   UNL     1       0.594  14.561  18.873  0.00  0.00    +0.000 C 
ATOM     21  O   UNL     1      -0.573  14.212  19.055  0.00  0.00    +0.000 OA
ATOM     22  N   UNL     1       0.952  15.896  18.732  0.00  0.00    +0.000 N 
ATOM     23  C   UNL     1      -0.108  16.907  18.782  0.00  0.00    +0.000 C 
ATOM     24  C   UNL     1      -0.154  17.720  17.493  0.00  0.00    +0.000 C 
ATOM     25  C   UNL     1       1.217  18.282  17.124  0.00  0.00    +0.000 C 
ATOM     26  C   UNL     1       2.282  17.183  17.127  0.00  0.00    +0.000 C 
ATOM     27  C   UNL     1       2.309  16.399  18.453  0.00  0.00    +0.000 C 
BRANCH  27  28
ATOM     28  C   UNL     1       2.879  17.248  19.608  0.00  0.00    +0.000 C 
BRANCH  28  29
ATOM     29  C   UNL     1       4.312  16.876  19.964  0.00  0.00    +0.000 C 
BRANCH  29  30
ATOM     30  O   UNL     1       5.217  17.701  19.240  0.00  0.00    +0.000 OA
ATOM     31  H   UNL     1       4.842  18.597  19.207  0.00  0.00    +0.000 HD
ENDBRANCH  29  30
ENDBRANCH  28  29
ENDBRANCH  27  28
ENDBRANCH  19  20
ENDBRANCH  18  19
ENDBRANCH  17  18
ENDBRANCH   6  17
TORSDOF 9
ENDMDL
MODEL 4
REMARK VINA RESULT:      -7.4      9.581     11.803
REMARK  Name = 
REMARK  10 active torsions:
REMARK  status: ('A' for Active; 'I' for Inactive)
REMARK    1  A    between atoms: C_1  and  O_2
REMARK    2  A    between atoms: O_2  and  C_3
REMARK    3  A    between atoms: C_7  and  C_8
REMARK    4  A    between atoms: N_13  and  C_14
REMARK    5  A    between atoms: C_14  and  C_15
REMARK    6  A    between atoms: C_15  and  C_16
REMARK    7  A    between atoms: C_16  and  C_17
REMARK    8  A    between atoms: C_24  and  C_25
REMARK    9  A    between atoms: C_25  and  C_26
REMARK   10  A    between atoms: C_26  and  O_27
REMARK                            x       y       z     vdW  Elec       q    Type
REMARK                         _______ _______ _______ _____ _____    ______ ____
ROOT
ATOM      1  C   UNL     1       1.405   8.117  21.338  0.00  0.00    +0.000 C 
ATOM      2  C   UNL     1       0.642   9.205  21.162  0.00  0.00    +0.000 C 
ATOM      3  S   UNL     1      -0.034   9.775  19.689  0.00  0.00    +0.000 S 
ATOM      4  C   UNL     1      -0.752  11.186  20.448  0.00  0.00    +0.000 C 
ATOM      5  S   UNL     1      -1.605  12.303  19.551  0.00  0.00    +0.000 S 
ATOM      6  N   UNL     1      -0.477  11.180  21.802  0.00  0.00    +0.000 N 
ATOM      7  C   UNL     1       0.259  10.106  22.279  0.00  0.00    +0.000 C 
ATOM      8  O   UNL     1       0.559   9.888  23.444  0.00  0.00    +0.000 OA
ENDROOT
BRANCH   1  13
ATOM      9  C   UNL     1       2.156   4.972  19.421  0.00  0.00    +0.000 A 
ATOM     10  C   UNL     1       2.729   5.511  18.267  0.00  0.00    +0.000 A 
ATOM     11  C   UNL     1       2.792   6.894  18.079  0.00  0.00    +0.000 A 
ATOM     12  C   UNL     1       2.302   7.752  19.060  0.00  0.00    +0.000 A 
ATOM     13  C   UNL     1       1.746   7.221  20.228  0.00  0.00    +0.000 A 
ATOM     14  C   UNL     1       1.648   5.831  20.395  0.00  0.00    +0.000 A 
BRANCH   9  16
ATOM     15  C   UNL     1       3.025   2.930  18.566  0.00  0.00    +0.000 C 
ATOM     16  O   UNL     1       2.184   3.606  19.493  0.00  0.00    +0.000 OA
ENDBRANCH   9  16
ENDBRANCH   1  13
BRANCH   6  17
ATOM     17  C   UNL     1      -1.026  12.142  22.762  0.00  0.00    +0.000 C 
BRANCH  17  18
ATOM     18  C   UNL     1      -2.435  11.801  23.272  0.00  0.00    +0.000 C 
BRANCH  18  19
ATOM     19  C   UNL     1      -3.279  13.012  23.678  0.00  0.00    +0.000 C 
BRANCH  19  20
ATOM     20  C   UNL     1      -4.671  12.631  24.156  0.00  0.00    +0.000 C 
ATOM     21  O   UNL     1      -4.810  11.892  25.131  0.00  0.00    +0.000 OA
ATOM     22  N   UNL     1      -5.757  13.158  23.469  0.00  0.00    +0.000 N 
ATOM     23  C   UNL     1      -7.104  12.796  23.918  0.00  0.00    +0.000 C 
ATOM     24  C   UNL     1      -7.888  12.106  22.808  0.00  0.00    +0.000 C 
ATOM     25  C   UNL     1      -7.867  12.911  21.510  0.00  0.00    +0.000 C 
ATOM     26  C   UNL     1      -6.437  13.288  21.118  0.00  0.00    +0.000 C 
ATOM     27  C   UNL     1      -5.686  14.000  22.260  0.00  0.00    +0.000 C 
BRANCH  27  28
ATOM     28  C   UNL     1      -6.223  15.426  22.496  0.00  0.00    +0.000 C 
BRANCH  28  29
ATOM     29  C   UNL     1      -5.231  16.318  23.230  0.00  0.00    +0.000 C 
BRANCH  29  30
ATOM     30  O   UNL     1      -5.453  16.232  24.633  0.00  0.00    +0.000 OA
ATOM     31  H   UNL     1      -6.300  15.775  24.773  0.00  0.00    +0.000 HD
ENDBRANCH  29  30
ENDBRANCH  28  29
ENDBRANCH  27  28
ENDBRANCH  19  20
ENDBRANCH  18  19
ENDBRANCH  17  18
ENDBRANCH   6  17
TORSDOF 9
ENDMDL
MODEL 5
REMARK VINA RESULT:      -7.3      8.057      9.950
REMARK  Name = 
REMARK  10 active torsions:
REMARK  status: ('A' for Active; 'I' for Inactive)
REMARK    1  A    between atoms: C_1  and  O_2
REMARK    2  A    between atoms: O_2  and  C_3
REMARK    3  A    between atoms: C_7  and  C_8
REMARK    4  A    between atoms: N_13  and  C_14
REMARK    5  A    between atoms: C_14  and  C_15
REMARK    6  A    between atoms: C_15  and  C_16
REMARK    7  A    between atoms: C_16  and  C_17
REMARK    8  A    between atoms: C_24  and  C_25
REMARK    9  A    between atoms: C_25  and  C_26
REMARK   10  A    between atoms: C_26  and  O_27
REMARK                            x       y       z     vdW  Elec       q    Type
REMARK                         _______ _______ _______ _____ _____    ______ ____
ROOT
ATOM      1  C   UNL     1       2.766   7.393  17.796  0.00  0.00    +0.000 C 
ATOM      2  C   UNL     1       2.157   8.099  18.759  0.00  0.00    +0.000 C 
ATOM      3  S   UNL     1       1.805   7.589  20.360  0.00  0.00    +0.000 S 
ATOM      4  C   UNL     1       1.005   9.096  20.773  0.00  0.00    +0.000 C 
ATOM      5  S   UNL     1       0.328   9.325  22.279  0.00  0.00    +0.000 S 
ATOM      6  N   UNL     1       1.040   9.956  19.691  0.00  0.00    +0.000 N 
ATOM      7  C   UNL     1       1.686   9.493  18.554  0.00  0.00    +0.000 C 
ATOM      8  O   UNL     1       1.872  10.116  17.519  0.00  0.00    +0.000 OA
ENDROOT
BRANCH   1  13
ATOM      9  C   UNL     1       5.116   4.515  18.366  0.00  0.00    +0.000 A 
ATOM     10  C   UNL     1       4.264   3.439  18.107  0.00  0.00    +0.000 A 
ATOM     11  C   UNL     1       2.910   3.649  17.832  0.00  0.00    +0.000 A 
ATOM     12  C   UNL     1       2.403   4.944  17.790  0.00  0.00    +0.000 A 
ATOM     13  C   UNL     1       3.254   6.029  18.026  0.00  0.00    +0.000 A 
ATOM     14  C   UNL     1       4.603   5.812  18.342  0.00  0.00    +0.000 A 
BRANCH   9  16
ATOM     15  C   UNL     1       7.382   4.649  17.655  0.00  0.00    +0.000 C 
ATOM     16  O   UNL     1       6.422   4.174  18.591  0.00  0.00    +0.000 OA
ENDBRANCH   9  16
ENDBRANCH   1  13
BRANCH   6  17
ATOM     17  C   UNL     1       0.576  11.346  19.724  0.00  0.00    +0.000 C 
BRANCH  17  18
ATOM     18  C   UNL     1      -0.932  11.520  19.484  0.00  0.00    +0.000 C 
BRANCH  18  19
ATOM     19  C   UNL     1      -1.732  11.947  20.718  0.00  0.00    +0.000 C 
BRANCH  19  20
ATOM     20  C   UNL     1      -2.158  13.405  20.672  0.00  0.00    +0.000 C 
ATOM     21  O   UNL     1      -1.344  14.279  20.374  0.00  0.00    +0.000 OA
ATOM     22  N   UNL     1      -3.485  13.699  20.959  0.00  0.00    +0.000 N 
ATOM     23  C   UNL     1      -3.909  15.102  20.921  0.00  0.00    +0.000 C 
ATOM     24  C   UNL     1      -4.461  15.547  22.270  0.00  0.00    +0.000 C 
ATOM     25  C   UNL     1      -5.535  14.593  22.789  0.00  0.00    +0.000 C 
ATOM     26  C   UNL     1      -5.043  13.145  22.768  0.00  0.00    +0.000 C 
ATOM     27  C   UNL     1      -4.511  12.729  21.382  0.00  0.00    +0.000 C 
BRANCH  27  28
ATOM     28  C   UNL     1      -5.650  12.580  20.354  0.00  0.00    +0.000 C 
BRANCH  28  29
ATOM     29  C   UNL     1      -5.152  12.164  18.976  0.00  0.00    +0.000 C 
BRANCH  29  30
ATOM     30  O   UNL     1      -5.592  13.103  18.002  0.00  0.00    +0.000 OA
ATOM     31  H   UNL     1      -6.382  12.738  17.571  0.00  0.00    +0.000 HD
ENDBRANCH  29  30
ENDBRANCH  28  29
ENDBRANCH  27  28
ENDBRANCH  19  20
ENDBRANCH  18  19
ENDBRANCH  17  18
ENDBRANCH   6  17
TORSDOF 9
ENDMDL
MODEL 6
REMARK VINA RESULT:      -7.3      7.786     11.067
REMARK  Name = 
REMARK  10 active torsions:
REMARK  status: ('A' for Active; 'I' for Inactive)
REMARK    1  A    between atoms: C_1  and  O_2
REMARK    2  A    between atoms: O_2  and  C_3
REMARK    3  A    between atoms: C_7  and  C_8
REMARK    4  A    between atoms: N_13  and  C_14
REMARK    5  A    between atoms: C_14  and  C_15
REMARK    6  A    between atoms: C_15  and  C_16
REMARK    7  A    between atoms: C_16  and  C_17
REMARK    8  A    between atoms: C_24  and  C_25
REMARK    9  A    between atoms: C_25  and  C_26
REMARK   10  A    between atoms: C_26  and  O_27
REMARK                            x       y       z     vdW  Elec       q    Type
REMARK                         _______ _______ _______ _____ _____    ______ ____
ROOT
ATOM      1  C   UNL     1      -0.943  12.474  22.298  0.00  0.00    +0.000 C 
ATOM      2  C   UNL     1      -0.853  11.883  21.099  0.00  0.00    +0.000 C 
ATOM      3  S   UNL     1      -2.107  11.675  19.944  0.00  0.00    +0.000 S 
ATOM      4  C   UNL     1      -1.071  10.802  18.827  0.00  0.00    +0.000 C 
ATOM      5  S   UNL     1      -1.667  10.213  17.386  0.00  0.00    +0.000 S 
ATOM      6  N   UNL     1       0.204  10.705  19.350  0.00  0.00    +0.000 N 
ATOM      7  C   UNL     1       0.414  11.303  20.583  0.00  0.00    +0.000 C 
ATOM      8  O   UNL     1       1.476  11.376  21.186  0.00  0.00    +0.000 OA
ENDROOT
BRANCH   1  13
ATOM      9  C   UNL     1      -3.503  15.051  23.262  0.00  0.00    +0.000 A 
ATOM     10  C   UNL     1      -4.390  14.263  23.998  0.00  0.00    +0.000 A 
ATOM     11  C   UNL     1      -4.198  12.883  24.108  0.00  0.00    +0.000 A 
ATOM     12  C   UNL     1      -3.099  12.284  23.499  0.00  0.00    +0.000 A 
ATOM     13  C   UNL     1      -2.194  13.069  22.778  0.00  0.00    +0.000 A 
ATOM     14  C   UNL     1      -2.413  14.448  22.636  0.00  0.00    +0.000 A 
BRANCH   9  16
ATOM     15  C   UNL     1      -3.542  17.103  24.464  0.00  0.00    +0.000 C 
ATOM     16  O   UNL     1      -3.789  16.389  23.259  0.00  0.00    +0.000 OA
ENDBRANCH   9  16
ENDBRANCH   1  13
BRANCH   6  17
ATOM     17  C   UNL     1       1.353  10.148  18.630  0.00  0.00    +0.000 C 
BRANCH  17  18
ATOM     18  C   UNL     1       1.766   8.738  19.081  0.00  0.00    +0.000 C 
BRANCH  18  19
ATOM     19  C   UNL     1       1.865   7.708  17.953  0.00  0.00    +0.000 C 
BRANCH  19  20
ATOM     20  C   UNL     1       3.202   6.985  17.926  0.00  0.00    +0.000 C 
ATOM     21  O   UNL     1       4.193   7.535  17.447  0.00  0.00    +0.000 OA
ATOM     22  N   UNL     1       3.257   5.709  18.472  0.00  0.00    +0.000 N 
ATOM     23  C   UNL     1       4.540   5.000  18.450  0.00  0.00    +0.000 C 
ATOM     24  C   UNL     1       4.430   3.686  17.684  0.00  0.00    +0.000 C 
ATOM     25  C   UNL     1       3.262   2.834  18.178  0.00  0.00    +0.000 C 
ATOM     26  C   UNL     1       1.964   3.643  18.212  0.00  0.00    +0.000 C 
ATOM     27  C   UNL     1       2.112   4.952  19.012  0.00  0.00    +0.000 C 
BRANCH  27  28
ATOM     28  C   UNL     1       2.235   4.686  20.526  0.00  0.00    +0.000 C 
BRANCH  28  29
ATOM     29  C   UNL     1       1.429   3.476  20.981  0.00  0.00    +0.000 C 
BRANCH  29  30
ATOM     30  O   UNL     1       2.057   2.877  22.108  0.00  0.00    +0.000 OA
ATOM     31  H   UNL     1       2.680   2.206  21.781  0.00  0.00    +0.000 HD
ENDBRANCH  29  30
ENDBRANCH  28  29
ENDBRANCH  27  28
ENDBRANCH  19  20
ENDBRANCH  18  19
ENDBRANCH  17  18
ENDBRANCH   6  17
TORSDOF 9
ENDMDL
MODEL 7
REMARK VINA RESULT:      -7.2      5.352      8.237
REMARK  Name = 
REMARK  10 active torsions:
REMARK  status: ('A' for Active; 'I' for Inactive)
REMARK    1  A    between atoms: C_1  and  O_2
REMARK    2  A    between atoms: O_2  and  C_3
REMARK    3  A    between atoms: C_7  and  C_8
REMARK    4  A    between atoms: N_13  and  C_14
REMARK    5  A    between atoms: C_14  and  C_15
REMARK    6  A    between atoms: C_15  and  C_16
REMARK    7  A    between atoms: C_16  and  C_17
REMARK    8  A    between atoms: C_24  and  C_25
REMARK    9  A    between atoms: C_25  and  C_26
REMARK   10  A    between atoms: C_26  and  O_27
REMARK                            x       y       z     vdW  Elec       q    Type
REMARK                         _______ _______ _______ _____ _____    ______ ____
ROOT
ATOM      1  C   UNL     1       0.763  10.022  19.957  0.00  0.00    +0.000 C 
ATOM      2  C   UNL     1       1.216   8.760  19.973  0.00  0.00    +0.000 C 
ATOM      3  S   UNL     1       0.832   7.531  21.110  0.00  0.00    +0.000 S 
ATOM      4  C   UNL     1       1.898   6.359  20.353  0.00  0.00    +0.000 C 
ATOM      5  S   UNL     1       2.076   4.826  20.985  0.00  0.00    +0.000 S 
ATOM      6  N   UNL     1       2.505   6.923  19.247  0.00  0.00    +0.000 N 
ATOM      7  C   UNL     1       2.157   8.233  18.951  0.00  0.00    +0.000 C 
ATOM      8  O   UNL     1       2.537   8.888  17.992  0.00  0.00    +0.000 OA
ENDROOT
BRANCH   1  13
ATOM      9  C   UNL     1      -1.793  12.199  21.646  0.00  0.00    +0.000 A 
ATOM     10  C   UNL     1      -1.739  11.689  22.945  0.00  0.00    +0.000 A 
ATOM     11  C   UNL     1      -0.936  10.587  23.248  0.00  0.00    +0.000 A 
ATOM     12  C   UNL     1      -0.159  10.000  22.254  0.00  0.00    +0.000 A 
ATOM     13  C   UNL     1      -0.191  10.517  20.955  0.00  0.00    +0.000 A 
ATOM     14  C   UNL     1      -1.030  11.598  20.646  0.00  0.00    +0.000 A 
BRANCH   9  16
ATOM     15  C   UNL     1      -2.052  14.393  20.764  0.00  0.00    +0.000 C 
ATOM     16  O   UNL     1      -2.595  13.297  21.492  0.00  0.00    +0.000 OA
ENDBRANCH   9  16
ENDBRANCH   1  13
BRANCH   6  17
ATOM     17  C   UNL     1       3.360   6.191  18.309  0.00  0.00    +0.000 C 
BRANCH  17  18
ATOM     18  C   UNL     1       2.726   4.917  17.728  0.00  0.00    +0.000 C 
BRANCH  18  19
ATOM     19  C   UNL     1       3.680   3.726  17.605  0.00  0.00    +0.000 C 
BRANCH  19  20
ATOM     20  C   UNL     1       4.979   3.926  18.370  0.00  0.00    +0.000 C 
ATOM     21  O   UNL     1       5.091   3.502  19.520  0.00  0.00    +0.000 OA
ATOM     22  N   UNL     1       6.017   4.578  17.719  0.00  0.00    +0.000 N 
ATOM     23  C   UNL     1       7.274   4.779  18.446  0.00  0.00    +0.000 C 
ATOM     24  C   UNL     1       7.616   6.261  18.555  0.00  0.00    +0.000 C 
ATOM     25  C   UNL     1       7.571   6.958  17.196  0.00  0.00    +0.000 C 
ATOM     26  C   UNL     1       6.251   6.677  16.476  0.00  0.00    +0.000 C 
ATOM     27  C   UNL     1       5.953   5.169  16.369  0.00  0.00    +0.000 C 
BRANCH  27  28
ATOM     28  C   UNL     1       6.893   4.469  15.367  0.00  0.00    +0.000 C 
BRANCH  28  29
ATOM     29  C   UNL     1       6.368   4.505  13.938  0.00  0.00    +0.000 C 
BRANCH  29  30
ATOM     30  O   UNL     1       6.437   3.204  13.367  0.00  0.00    +0.000 OA
ATOM     31  H   UNL     1       7.375   2.969  13.274  0.00  0.00    +0.000 HD
ENDBRANCH  29  30
ENDBRANCH  28  29
ENDBRANCH  27  28
ENDBRANCH  19  20
ENDBRANCH  18  19
ENDBRANCH  17  18
ENDBRANCH   6  17
TORSDOF 9
ENDMDL
MODEL 8
REMARK VINA RESULT:      -7.2      8.305     10.200
REMARK  Name = 
REMARK  10 active torsions:
REMARK  status: ('A' for Active; 'I' for Inactive)
REMARK    1  A    between atoms: C_1  and  O_2
REMARK    2  A    between atoms: O_2  and  C_3
REMARK    3  A    between atoms: C_7  and  C_8
REMARK    4  A    between atoms: N_13  and  C_14
REMARK    5  A    between atoms: C_14  and  C_15
REMARK    6  A    between atoms: C_15  and  C_16
REMARK    7  A    between atoms: C_16  and  C_17
REMARK    8  A    between atoms: C_24  and  C_25
REMARK    9  A    between atoms: C_25  and  C_26
REMARK   10  A    between atoms: C_26  and  O_27
REMARK                            x       y       z     vdW  Elec       q    Type
REMARK                         _______ _______ _______ _____ _____    ______ ____
ROOT
ATOM      1  C   UNL     1       2.430   7.542  18.096  0.00  0.00    +0.000 C 
ATOM      2  C   UNL     1       1.872   8.218  19.110  0.00  0.00    +0.000 C 
ATOM      3  S   UNL     1       1.600   7.656  20.711  0.00  0.00    +0.000 S 
ATOM      4  C   UNL     1       0.826   9.150  21.211  0.00  0.00    +0.000 C 
ATOM      5  S   UNL     1       0.227   9.331  22.756  0.00  0.00    +0.000 S 
ATOM      6  N   UNL     1       0.810  10.045  20.158  0.00  0.00    +0.000 N 
ATOM      7  C   UNL     1       1.396   9.618  18.975  0.00  0.00    +0.000 C 
ATOM      8  O   UNL     1       1.532  10.274  17.952  0.00  0.00    +0.000 OA
ENDROOT
BRANCH   1  13
ATOM      9  C   UNL     1       4.792   4.653  18.546  0.00  0.00    +0.000 A 
ATOM     10  C   UNL     1       3.954   3.587  18.209  0.00  0.00    +0.000 A 
ATOM     11  C   UNL     1       2.604   3.804  17.919  0.00  0.00    +0.000 A 
ATOM     12  C   UNL     1       2.087   5.095  17.940  0.00  0.00    +0.000 A 
ATOM     13  C   UNL     1       2.924   6.170  18.256  0.00  0.00    +0.000 A 
ATOM     14  C   UNL     1       4.269   5.945  18.587  0.00  0.00    +0.000 A 
BRANCH   9  16
ATOM     15  C   UNL     1       7.041   4.658  17.775  0.00  0.00    +0.000 C 
ATOM     16  O   UNL     1       6.095   4.309  18.778  0.00  0.00    +0.000 OA
ENDBRANCH   9  16
ENDBRANCH   1  13
BRANCH   6  17
ATOM     17  C   UNL     1       0.352  11.434  20.259  0.00  0.00    +0.000 C 
BRANCH  17  18
ATOM     18  C   UNL     1      -1.152  11.629  20.010  0.00  0.00    +0.000 C 
BRANCH  18  19
ATOM     19  C   UNL     1      -1.940  12.139  21.219  0.00  0.00    +0.000 C 
BRANCH  19  20
ATOM     20  C   UNL     1      -2.260  13.623  21.134  0.00  0.00    +0.000 C 
ATOM     21  O   UNL     1      -1.697  14.331  20.300  0.00  0.00    +0.000 OA
ATOM     22  N   UNL     1      -3.211  14.129  22.011  0.00  0.00    +0.000 N 
ATOM     23  C   UNL     1      -3.527  15.559  21.942  0.00  0.00    +0.000 C 
ATOM     24  C   UNL     1      -3.248  16.250  23.272  0.00  0.00    +0.000 C 
ATOM     25  C   UNL     1      -3.915  15.527  24.441  0.00  0.00    +0.000 C 
ATOM     26  C   UNL     1      -3.575  14.035  24.433  0.00  0.00    +0.000 C 
ATOM     27  C   UNL     1      -3.890  13.371  23.079  0.00  0.00    +0.000 C 
BRANCH  27  28
ATOM     28  C   UNL     1      -5.409  13.243  22.844  0.00  0.00    +0.000 C 
BRANCH  28  29
ATOM     29  C   UNL     1      -6.158  12.751  24.075  0.00  0.00    +0.000 C 
BRANCH  29  30
ATOM     30  O   UNL     1      -7.064  11.717  23.706  0.00  0.00    +0.000 OA
ATOM     31  H   UNL     1      -6.683  11.244  22.947  0.00  0.00    +0.000 HD
ENDBRANCH  29  30
ENDBRANCH  28  29
ENDBRANCH  27  28
ENDBRANCH  19  20
ENDBRANCH  18  19
ENDBRANCH  17  18
ENDBRANCH   6  17
TORSDOF 9
ENDMDL
MODEL 9
REMARK VINA RESULT:      -7.2      7.901      9.698
REMARK  Name = 
REMARK  10 active torsions:
REMARK  status: ('A' for Active; 'I' for Inactive)
REMARK    1  A    between atoms: C_1  and  O_2
REMARK    2  A    between atoms: O_2  and  C_3
REMARK    3  A    between atoms: C_7  and  C_8
REMARK    4  A    between atoms: N_13  and  C_14
REMARK    5  A    between atoms: C_14  and  C_15
REMARK    6  A    between atoms: C_15  and  C_16
REMARK    7  A    between atoms: C_16  and  C_17
REMARK    8  A    between atoms: C_24  and  C_25
REMARK    9  A    between atoms: C_25  and  C_26
REMARK   10  A    between atoms: C_26  and  O_27
REMARK                            x       y       z     vdW  Elec       q    Type
REMARK                         _______ _______ _______ _____ _____    ______ ____
ROOT
ATOM      1  C   UNL     1       2.762   7.245  17.864  0.00  0.00    +0.000 C 
ATOM      2  C   UNL     1       2.113   7.939  18.809  0.00  0.00    +0.000 C 
ATOM      3  S   UNL     1       1.803   7.455  20.428  0.00  0.00    +0.000 S 
ATOM      4  C   UNL     1       0.910   8.919  20.801  0.00  0.00    +0.000 C 
ATOM      5  S   UNL     1       0.227   9.149  22.305  0.00  0.00    +0.000 S 
ATOM      6  N   UNL     1       0.884   9.747  19.695  0.00  0.00    +0.000 N 
ATOM      7  C   UNL     1       1.552   9.293  18.567  0.00  0.00    +0.000 C 
ATOM      8  O   UNL     1       1.692   9.895  17.512  0.00  0.00    +0.000 OA
ENDROOT
BRANCH   1  13
ATOM      9  C   UNL     1       5.298   4.540  18.483  0.00  0.00    +0.000 A 
ATOM     10  C   UNL     1       4.510   3.405  18.280  0.00  0.00    +0.000 A 
ATOM     11  C   UNL     1       3.141   3.521  18.026  0.00  0.00    +0.000 A 
ATOM     12  C   UNL     1       2.553   4.780  17.949  0.00  0.00    +0.000 A 
ATOM     13  C   UNL     1       3.338   5.923  18.130  0.00  0.00    +0.000 A 
ATOM     14  C   UNL     1       4.705   5.801  18.425  0.00  0.00    +0.000 A 
BRANCH   9  16
ATOM     15  C   UNL     1       7.518   4.615  17.634  0.00  0.00    +0.000 C 
ATOM     16  O   UNL     1       6.626   4.289  18.693  0.00  0.00    +0.000 OA
ENDBRANCH   9  16
ENDBRANCH   1  13
BRANCH   6  17
ATOM     17  C   UNL     1       0.330  11.104  19.690  0.00  0.00    +0.000 C 
BRANCH  17  18
ATOM     18  C   UNL     1      -1.157  11.185  19.309  0.00  0.00    +0.000 C 
BRANCH  18  19
ATOM     19  C   UNL     1      -1.757  12.592  19.368  0.00  0.00    +0.000 C 
BRANCH  19  20
ATOM     20  C   UNL     1      -3.239  12.591  19.708  0.00  0.00    +0.000 C 
ATOM     21  O   UNL     1      -4.014  11.860  19.092  0.00  0.00    +0.000 OA
ATOM     22  N   UNL     1      -3.666  13.420  20.737  0.00  0.00    +0.000 N 
ATOM     23  C   UNL     1      -5.093  13.430  21.072  0.00  0.00    +0.000 C 
ATOM     24  C   UNL     1      -5.686  14.826  20.916  0.00  0.00    +0.000 C 
ATOM     25  C   UNL     1      -4.870  15.879  21.663  0.00  0.00    +0.000 C 
ATOM     26  C   UNL     1      -3.387  15.790  21.296  0.00  0.00    +0.000 C 
ATOM     27  C   UNL     1      -2.822  14.369  21.486  0.00  0.00    +0.000 C 
BRANCH  27  28
ATOM     28  C   UNL     1      -2.693  14.000  22.978  0.00  0.00    +0.000 C 
BRANCH  28  29
ATOM     29  C   UNL     1      -2.104  12.613  23.195  0.00  0.00    +0.000 C 
BRANCH  29  30
ATOM     30  O   UNL     1      -3.123  11.721  23.632  0.00  0.00    +0.000 OA
ATOM     31  H   UNL     1      -3.655  11.473  22.857  0.00  0.00    +0.000 HD
ENDBRANCH  29  30
ENDBRANCH  28  29
ENDBRANCH  27  28
ENDBRANCH  19  20
ENDBRANCH  18  19
ENDBRANCH  17  18
ENDBRANCH   6  17
TORSDOF 9
ENDMDL
