MODEL 1
REMARK VINA RESULT:      -7.9      0.000      0.000
REMARK  Name = 
REMARK  5 active torsions:
REMARK  status: ('A' for Active; 'I' for Inactive)
REMARK    1  A    between atoms: C_1  and  C_2
REMARK    2  A    between atoms: N_4  and  C_5
REMARK    3  A    between atoms: C_9  and  C_10
REMARK    4  A    between atoms: N_12  and  N_13
REMARK    5  A    between atoms: C_20  and  C_21
REMARK                            x       y       z     vdW  Elec       q    Type
REMARK                         _______ _______ _______ _____ _____    ______ ____
ROOT
ATOM      1  C   UNL     1       1.941   8.994  18.426  0.00  0.00    +0.000 C 
ATOM      2  O   UNL     1       2.183   9.838  17.572  0.00  0.00    +0.000 OA
ATOM      3  N   UNL     1       1.095   9.167  19.499  0.00  0.00    +0.000 N 
ATOM      4  H   UNL     1       0.921   8.446  20.190  0.00  0.00    +0.000 HD
ENDROOT
BRANCH   3   5
ATOM      5  N   UNL     1       0.397  10.358  19.702  0.00  0.00    +0.000 N 
ATOM      6  C   UNL     1      -0.850  10.497  19.146  0.00  0.00    +0.000 C 
ATOM      7  O   UNL     1      -1.330   9.851  18.227  0.00  0.00    +0.000 OA
ATOM      8  N   UNL     1      -1.557  11.423  19.882  0.00  0.00    +0.000 N 
ATOM      9  C   UNL     1      -0.793  11.922  21.012  0.00  0.00    +0.000 C 
ATOM     10  C   UNL     1      -1.453  11.620  22.358  0.00  0.00    +0.000 C 
ATOM     11  C   UNL     1      -2.670  12.496  22.637  0.00  0.00    +0.000 C 
ATOM     12  C   UNL     1      -2.378  13.992  22.459  0.00  0.00    +0.000 C 
ATOM     13  C   UNL     1      -1.490  14.537  23.582  0.00  0.00    +0.000 C 
ATOM     14  C   UNL     1      -1.760  14.260  21.079  0.00  0.00    +0.000 C 
ATOM     15  C   UNL     1      -0.508  13.415  20.809  0.00  0.00    +0.000 C 
ATOM     16  C   UNL     1       0.468  11.049  20.888  0.00  0.00    +0.000 C 
ATOM     17  O   UNL     1       1.314  10.949  21.768  0.00  0.00    +0.000 OA
ATOM     18  H   UNL     1      -2.512  11.662  19.650  0.00  0.00    +0.000 HD
ENDBRANCH   3   5
BRANCH   1  23
ATOM     19  C   UNL     1       2.971   5.451  19.325  0.00  0.00    +0.000 A 
ATOM     20  C   UNL     1       3.896   5.188  18.311  0.00  0.00    +0.000 A 
ATOM     21  C   UNL     1       4.183   6.142  17.336  0.00  0.00    +0.000 A 
ATOM     22  C   UNL     1       3.551   7.379  17.364  0.00  0.00    +0.000 A 
ATOM     23  C   UNL     1       2.597   7.653  18.352  0.00  0.00    +0.000 A 
ATOM     24  C   UNL     1       2.294   6.679  19.322  0.00  0.00    +0.000 A 
BRANCH  19  28
ATOM     25  C   UNL     1       1.586   2.787  21.620  0.00  0.00    +0.000 C 
ATOM     26  C   UNL     1       1.665   3.593  20.350  0.00  0.00    +0.000 C 
ATOM     27  O   UNL     1       0.870   3.389  19.439  0.00  0.00    +0.000 OA
ATOM     28  N   UNL     1       2.696   4.523  20.357  0.00  0.00    +0.000 N 
ATOM     29  H   UNL     1       3.387   4.443  21.093  0.00  0.00    +0.000 HD
ENDBRANCH  19  28
ENDBRANCH   1  23
TORSDOF 3
ENDMDL
MODEL 2
REMARK VINA RESULT:      -7.9      3.069      4.779
REMARK  Name = 
REMARK  5 active torsions:
REMARK  status: ('A' for Active; 'I' for Inactive)
REMARK    1  A    between atoms: C_1  and  C_2
REMARK    2  A    between atoms: N_4  and  C_5
REMARK    3  A    between atoms: C_9  and  C_10
REMARK    4  A    between atoms: N_12  and  N_13
REMARK    5  A    between atoms: C_20  and  C_21
REMARK                            x       y       z     vdW  Elec       q    Type
REMARK                         _______ _______ _______ _____ _____    ______ ____
ROOT
ATOM      1  C   UNL     1       3.090   6.182  18.041  0.00  0.00    +0.000 C 
ATOM      2  O   UNL     1       2.068   5.516  17.935  0.00  0.00    +0.000 OA
ATOM      3  N   UNL     1       3.147   7.495  18.453  0.00  0.00    +0.000 N 
ATOM      4  H   UNL     1       4.013   8.017  18.527  0.00  0.00    +0.000 HD
ENDROOT
BRANCH   3   5
ATOM      5  N   UNL     1       2.001   8.201  18.821  0.00  0.00    +0.000 N 
ATOM      6  C   UNL     1       1.542   8.094  20.111  0.00  0.00    +0.000 C 
ATOM      7  O   UNL     1       1.806   7.221  20.923  0.00  0.00    +0.000 OA
ATOM      8  N   UNL     1       0.811   9.223  20.410  0.00  0.00    +0.000 N 
ATOM      9  C   UNL     1       0.787  10.168  19.308  0.00  0.00    +0.000 C 
ATOM     10  C   UNL     1       1.407  11.519  19.667  0.00  0.00    +0.000 C 
ATOM     11  C   UNL     1       0.518  12.364  20.572  0.00  0.00    +0.000 C 
ATOM     12  C   UNL     1      -0.911  12.510  20.031  0.00  0.00    +0.000 C 
ATOM     13  C   UNL     1      -0.965  13.424  18.804  0.00  0.00    +0.000 C 
ATOM     14  C   UNL     1      -1.516  11.131  19.727  0.00  0.00    +0.000 C 
ATOM     15  C   UNL     1      -0.648  10.292  18.781  0.00  0.00    +0.000 C 
ATOM     16  C   UNL     1       1.727   9.452  18.322  0.00  0.00    +0.000 C 
ATOM     17  O   UNL     1       2.199   9.986  17.325  0.00  0.00    +0.000 OA
ATOM     18  H   UNL     1       0.395   9.353  21.323  0.00  0.00    +0.000 HD
ENDBRANCH   3   5
BRANCH   1  23
ATOM     19  C   UNL     1       5.825   4.404  16.095  0.00  0.00    +0.000 A 
ATOM     20  C   UNL     1       6.822   4.322  17.071  0.00  0.00    +0.000 A 
ATOM     21  C   UNL     1       6.621   4.844  18.348  0.00  0.00    +0.000 A 
ATOM     22  C   UNL     1       5.413   5.452  18.670  0.00  0.00    +0.000 A 
ATOM     23  C   UNL     1       4.412   5.573  17.699  0.00  0.00    +0.000 A 
ATOM     24  C   UNL     1       4.627   5.065  16.405  0.00  0.00    +0.000 A 
BRANCH  19  28
ATOM     25  C   UNL     1       6.634   3.595  12.493  0.00  0.00    +0.000 C 
ATOM     26  C   UNL     1       6.709   4.397  13.766  0.00  0.00    +0.000 C 
ATOM     27  O   UNL     1       7.374   5.427  13.808  0.00  0.00    +0.000 OA
ATOM     28  N   UNL     1       5.979   3.840  14.807  0.00  0.00    +0.000 N 
ATOM     29  H   UNL     1       5.644   2.892  14.682  0.00  0.00    +0.000 HD
ENDBRANCH  19  28
ENDBRANCH   1  23
TORSDOF 3
ENDMDL
MODEL 3
REMARK VINA RESULT:      -7.5      1.456      1.976
REMARK  Name = 
REMARK  5 active torsions:
REMARK  status: ('A' for Active; 'I' for Inactive)
REMARK    1  A    between atoms: C_1  and  C_2
REMARK    2  A    between atoms: N_4  and  C_5
REMARK    3  A    between atoms: C_9  and  C_10
REMARK    4  A    between atoms: N_12  and  N_13
REMARK    5  A    between atoms: C_20  and  C_21
REMARK                            x       y       z     vdW  Elec       q    Type
REMARK                         _______ _______ _______ _____ _____    ______ ____
ROOT
ATOM      1  C   UNL     1       0.994  10.528  19.499  0.00  0.00    +0.000 C 
ATOM      2  O   UNL     1       1.547  11.577  19.191  0.00  0.00    +0.000 OA
ATOM      3  N   UNL     1      -0.164  10.425  20.239  0.00  0.00    +0.000 N 
ATOM      4  H   UNL     1      -0.593   9.538  20.477  0.00  0.00    +0.000 HD
ENDROOT
BRANCH   3   5
ATOM      5  N   UNL     1      -0.844  11.552  20.703  0.00  0.00    +0.000 N 
ATOM      6  C   UNL     1      -1.997  11.937  20.067  0.00  0.00    +0.000 C 
ATOM      7  O   UNL     1      -2.368  11.625  18.946  0.00  0.00    +0.000 OA
ATOM      8  N   UNL     1      -2.767  12.656  20.956  0.00  0.00    +0.000 N 
ATOM      9  C   UNL     1      -2.150  12.746  22.266  0.00  0.00    +0.000 C 
ATOM     10  C   UNL     1      -2.998  12.113  23.370  0.00  0.00    +0.000 C 
ATOM     11  C   UNL     1      -4.212  12.954  23.749  0.00  0.00    +0.000 C 
ATOM     12  C   UNL     1      -3.849  14.412  24.064  0.00  0.00    +0.000 C 
ATOM     13  C   UNL     1      -3.106  14.539  25.397  0.00  0.00    +0.000 C 
ATOM     14  C   UNL     1      -3.039  15.027  22.913  0.00  0.00    +0.000 C 
ATOM     15  C   UNL     1      -1.790  14.209  22.556  0.00  0.00    +0.000 C 
ATOM     16  C   UNL     1      -0.913  11.860  22.040  0.00  0.00    +0.000 C 
ATOM     17  O   UNL     1      -0.199  11.446  22.947  0.00  0.00    +0.000 OA
ATOM     18  H   UNL     1      -3.673  13.021  20.691  0.00  0.00    +0.000 HD
ENDBRANCH   3   5
BRANCH   1  23
ATOM     19  C   UNL     1       2.263   6.951  19.627  0.00  0.00    +0.000 A 
ATOM     20  C   UNL     1       2.788   6.819  18.338  0.00  0.00    +0.000 A 
ATOM     21  C   UNL     1       2.727   7.872  17.427  0.00  0.00    +0.000 A 
ATOM     22  C   UNL     1       2.144   9.079  17.795  0.00  0.00    +0.000 A 
ATOM     23  C   UNL     1       1.583   9.224  19.070  0.00  0.00    +0.000 A 
ATOM     24  C   UNL     1       1.627   8.150  19.979  0.00  0.00    +0.000 A 
BRANCH  19  28
ATOM     25  C   UNL     1       2.043   3.777  21.666  0.00  0.00    +0.000 C 
ATOM     26  C   UNL     1       1.849   4.633  20.443  0.00  0.00    +0.000 C 
ATOM     27  O   UNL     1       1.297   4.174  19.449  0.00  0.00    +0.000 OA
ATOM     28  N   UNL     1       2.354   5.919  20.589  0.00  0.00    +0.000 N 
ATOM     29  H   UNL     1       2.952   6.092  21.388  0.00  0.00    +0.000 HD
ENDBRANCH  19  28
ENDBRANCH   1  23
TORSDOF 3
ENDMDL
MODEL 4
REMARK VINA RESULT:      -7.4      1.909      2.876
REMARK  Name = 
REMARK  5 active torsions:
REMARK  status: ('A' for Active; 'I' for Inactive)
REMARK    1  A    between atoms: C_1  and  C_2
REMARK    2  A    between atoms: N_4  and  C_5
REMARK    3  A    between atoms: C_9  and  C_10
REMARK    4  A    between atoms: N_12  and  N_13
REMARK    5  A    between atoms: C_20  and  C_21
REMARK                            x       y       z     vdW  Elec       q    Type
REMARK                         _______ _______ _______ _____ _____    ______ ____
ROOT
ATOM      1  C   UNL     1       2.164   8.625  18.518  0.00  0.00    +0.000 C 
ATOM      2  O   UNL     1       2.463   9.449  17.662  0.00  0.00    +0.000 OA
ATOM      3  N   UNL     1       1.329   8.855  19.588  0.00  0.00    +0.000 N 
ATOM      4  H   UNL     1       1.105   8.149  20.280  0.00  0.00    +0.000 HD
ENDROOT
BRANCH   3   5
ATOM      5  N   UNL     1       0.709  10.090  19.787  0.00  0.00    +0.000 N 
ATOM      6  C   UNL     1      -0.455  10.364  19.112  0.00  0.00    +0.000 C 
ATOM      7  O   UNL     1      -0.882   9.808  18.112  0.00  0.00    +0.000 OA
ATOM      8  N   UNL     1      -1.161  11.309  19.825  0.00  0.00    +0.000 N 
ATOM      9  C   UNL     1      -0.487  11.683  21.055  0.00  0.00    +0.000 C 
ATOM     10  C   UNL     1      -1.312  11.373  22.305  0.00  0.00    +0.000 C 
ATOM     11  C   UNL     1      -2.478  12.334  22.506  0.00  0.00    +0.000 C 
ATOM     12  C   UNL     1      -2.049  13.807  22.448  0.00  0.00    +0.000 C 
ATOM     13  C   UNL     1      -1.249  14.217  23.687  0.00  0.00    +0.000 C 
ATOM     14  C   UNL     1      -1.265  14.090  21.158  0.00  0.00    +0.000 C 
ATOM     15  C   UNL     1      -0.063  13.154  20.971  0.00  0.00    +0.000 C 
ATOM     16  C   UNL     1       0.706  10.713  21.012  0.00  0.00    +0.000 C 
ATOM     17  O   UNL     1       1.441  10.497  21.969  0.00  0.00    +0.000 OA
ATOM     18  H   UNL     1      -2.063  11.640  19.508  0.00  0.00    +0.000 HD
ENDBRANCH   3   5
BRANCH   1  23
ATOM     19  C   UNL     1       4.111   5.604  17.290  0.00  0.00    +0.000 A 
ATOM     20  C   UNL     1       3.706   4.643  18.221  0.00  0.00    +0.000 A 
ATOM     21  C   UNL     1       2.817   4.965  19.246  0.00  0.00    +0.000 A 
ATOM     22  C   UNL     1       2.314   6.257  19.351  0.00  0.00    +0.000 A 
ATOM     23  C   UNL     1       2.730   7.244  18.449  0.00  0.00    +0.000 A 
ATOM     24  C   UNL     1       3.644   6.919  17.429  0.00  0.00    +0.000 A 
BRANCH  19  28
ATOM     25  C   UNL     1       6.999   4.866  14.967  0.00  0.00    +0.000 C 
ATOM     26  C   UNL     1       6.346   5.123  16.300  0.00  0.00    +0.000 C 
ATOM     27  O   UNL     1       7.022   5.155  17.323  0.00  0.00    +0.000 OA
ATOM     28  N   UNL     1       4.971   5.295  16.211  0.00  0.00    +0.000 N 
ATOM     29  H   UNL     1       4.530   5.048  15.333  0.00  0.00    +0.000 HD
ENDBRANCH  19  28
ENDBRANCH   1  23
TORSDOF 3
ENDMDL
MODEL 5
REMARK VINA RESULT:      -7.4      2.044      8.345
REMARK  Name = 
REMARK  5 active torsions:
REMARK  status: ('A' for Active; 'I' for Inactive)
REMARK    1  A    between atoms: C_1  and  C_2
REMARK    2  A    between atoms: N_4  and  C_5
REMARK    3  A    between atoms: C_9  and  C_10
REMARK    4  A    between atoms: N_12  and  N_13
REMARK    5  A    between atoms: C_20  and  C_21
REMARK                            x       y       z     vdW  Elec       q    Type
REMARK                         _______ _______ _______ _____ _____    ______ ____
ROOT
ATOM      1  C   UNL     1       0.264   9.950  19.742  0.00  0.00    +0.000 C 
ATOM      2  O   UNL     1      -0.591   9.701  18.902  0.00  0.00    +0.000 OA
ATOM      3  N   UNL     1       1.401   9.205  19.967  0.00  0.00    +0.000 N 
ATOM      4  H   UNL     1       2.088   9.441  20.674  0.00  0.00    +0.000 HD
ENDROOT
BRANCH   3   5
ATOM      5  N   UNL     1       1.699   8.070  19.213  0.00  0.00    +0.000 N 
ATOM      6  C   UNL     1       2.417   8.215  18.052  0.00  0.00    +0.000 C 
ATOM      7  O   UNL     1       2.578   9.235  17.401  0.00  0.00    +0.000 OA
ATOM      8  N   UNL     1       3.057   7.025  17.782  0.00  0.00    +0.000 N 
ATOM      9  C   UNL     1       2.808   6.025  18.805  0.00  0.00    +0.000 C 
ATOM     10  C   UNL     1       4.085   5.562  19.508  0.00  0.00    +0.000 C 
ATOM     11  C   UNL     1       4.944   4.643  18.646  0.00  0.00    +0.000 C 
ATOM     12  C   UNL     1       4.149   3.469  18.057  0.00  0.00    +0.000 C 
ATOM     13  C   UNL     1       3.781   2.437  19.127  0.00  0.00    +0.000 C 
ATOM     14  C   UNL     1       2.902   3.977  17.320  0.00  0.00    +0.000 C 
ATOM     15  C   UNL     1       2.010   4.867  18.196  0.00  0.00    +0.000 C 
ATOM     16  C   UNL     1       1.986   6.861  19.801  0.00  0.00    +0.000 C 
ATOM     17  O   UNL     1       1.739   6.503  20.947  0.00  0.00    +0.000 OA
ATOM     18  H   UNL     1       3.657   6.922  16.974  0.00  0.00    +0.000 HD
ENDBRANCH   3   5
BRANCH   1  23
ATOM     19  C   UNL     1      -1.064  12.256  22.452  0.00  0.00    +0.000 A 
ATOM     20  C   UNL     1      -0.289  13.396  22.221  0.00  0.00    +0.000 A 
ATOM     21  C   UNL     1       0.664  13.422  21.204  0.00  0.00    +0.000 A 
ATOM     22  C   UNL     1       0.852  12.306  20.396  0.00  0.00    +0.000 A 
ATOM     23  C   UNL     1       0.109  11.142  20.629  0.00  0.00    +0.000 A 
ATOM     24  C   UNL     1      -0.836  11.113  21.671  0.00  0.00    +0.000 A 
BRANCH  19  28
ATOM     25  C   UNL     1      -4.240  12.421  24.493  0.00  0.00    +0.000 C 
ATOM     26  C   UNL     1      -3.420  12.480  23.232  0.00  0.00    +0.000 C 
ATOM     27  O   UNL     1      -3.955  12.735  22.158  0.00  0.00    +0.000 OA
ATOM     28  N   UNL     1      -2.073  12.215  23.443  0.00  0.00    +0.000 N 
ATOM     29  H   UNL     1      -1.813  11.832  24.343  0.00  0.00    +0.000 HD
ENDBRANCH  19  28
ENDBRANCH   1  23
TORSDOF 3
ENDMDL
MODEL 6
REMARK VINA RESULT:      -7.2      1.550      2.197
REMARK  Name = 
REMARK  5 active torsions:
REMARK  status: ('A' for Active; 'I' for Inactive)
REMARK    1  A    between atoms: C_1  and  C_2
REMARK    2  A    between atoms: N_4  and  C_5
REMARK    3  A    between atoms: C_9  and  C_10
REMARK    4  A    between atoms: N_12  and  N_13
REMARK    5  A    between atoms: C_20  and  C_21
REMARK                            x       y       z     vdW  Elec       q    Type
REMARK                         _______ _______ _______ _____ _____    ______ ____
ROOT
ATOM      1  C   UNL     1       0.463  10.021  19.871  0.00  0.00    +0.000 C 
ATOM      2  O   UNL     1      -0.741  10.030  19.642  0.00  0.00    +0.000 OA
ATOM      3  N   UNL     1       1.150  10.997  20.559  0.00  0.00    +0.000 N 
ATOM      4  H   UNL     1       2.148  10.958  20.728  0.00  0.00    +0.000 HD
ENDROOT
BRANCH   3   5
ATOM      5  N   UNL     1       0.505  12.114  21.093  0.00  0.00    +0.000 N 
ATOM      6  C   UNL     1       0.074  13.100  20.241  0.00  0.00    +0.000 C 
ATOM      7  O   UNL     1       0.443  13.306  19.095  0.00  0.00    +0.000 OA
ATOM      8  N   UNL     1      -0.965  13.775  20.844  0.00  0.00    +0.000 N 
ATOM      9  C   UNL     1      -1.297  13.221  22.144  0.00  0.00    +0.000 C 
ATOM     10  C   UNL     1      -2.730  12.694  22.220  0.00  0.00    +0.000 C 
ATOM     11  C   UNL     1      -3.773  13.803  22.290  0.00  0.00    +0.000 C 
ATOM     12  C   UNL     1      -3.476  14.828  23.394  0.00  0.00    +0.000 C 
ATOM     13  C   UNL     1      -3.720  14.249  24.790  0.00  0.00    +0.000 C 
ATOM     14  C   UNL     1      -2.045  15.369  23.256  0.00  0.00    +0.000 C 
ATOM     15  C   UNL     1      -0.985  14.259  23.229  0.00  0.00    +0.000 C 
ATOM     16  C   UNL     1      -0.338  12.018  22.174  0.00  0.00    +0.000 C 
ATOM     17  O   UNL     1      -0.418  11.107  22.989  0.00  0.00    +0.000 OA
ATOM     18  H   UNL     1      -1.441  14.535  20.375  0.00  0.00    +0.000 HD
ENDBRANCH   3   5
BRANCH   1  23
ATOM     19  C   UNL     1       2.336   6.718  19.789  0.00  0.00    +0.000 A 
ATOM     20  C   UNL     1       2.967   6.813  18.545  0.00  0.00    +0.000 A 
ATOM     21  C   UNL     1       2.786   7.930  17.731  0.00  0.00    +0.000 A 
ATOM     22  C   UNL     1       1.972   8.975  18.153  0.00  0.00    +0.000 A 
ATOM     23  C   UNL     1       1.304   8.888  19.381  0.00  0.00    +0.000 A 
ATOM     24  C   UNL     1       1.473   7.749  20.190  0.00  0.00    +0.000 A 
BRANCH  19  28
ATOM     25  C   UNL     1       2.227   3.479  21.732  0.00  0.00    +0.000 C 
ATOM     26  C   UNL     1       1.824   4.433  20.639  0.00  0.00    +0.000 C 
ATOM     27  O   UNL     1       0.946   4.122  19.841  0.00  0.00    +0.000 OA
ATOM     28  N   UNL     1       2.541   5.623  20.659  0.00  0.00    +0.000 N 
ATOM     29  H   UNL     1       3.362   5.657  21.250  0.00  0.00    +0.000 HD
ENDBRANCH  19  28
ENDBRANCH   1  23
TORSDOF 3
ENDMDL
MODEL 7
REMARK VINA RESULT:      -7.2      1.506      2.566
REMARK  Name = 
REMARK  5 active torsions:
REMARK  status: ('A' for Active; 'I' for Inactive)
REMARK    1  A    between atoms: C_1  and  C_2
REMARK    2  A    between atoms: N_4  and  C_5
REMARK    3  A    between atoms: C_9  and  C_10
REMARK    4  A    between atoms: N_12  and  N_13
REMARK    5  A    between atoms: C_20  and  C_21
REMARK                            x       y       z     vdW  Elec       q    Type
REMARK                         _______ _______ _______ _____ _____    ______ ____
ROOT
ATOM      1  C   UNL     1       0.873   9.962  20.156  0.00  0.00    +0.000 C 
ATOM      2  O   UNL     1       1.414  11.059  20.102  0.00  0.00    +0.000 OA
ATOM      3  N   UNL     1      -0.335   9.698  20.762  0.00  0.00    +0.000 N 
ATOM      4  H   UNL     1      -0.753   8.775  20.789  0.00  0.00    +0.000 HD
ENDROOT
BRANCH   3   5
ATOM      5  N   UNL     1      -1.087  10.703  21.374  0.00  0.00    +0.000 N 
ATOM      6  C   UNL     1      -0.788  11.060  22.665  0.00  0.00    +0.000 C 
ATOM      7  O   UNL     1      -0.156  10.415  23.487  0.00  0.00    +0.000 OA
ATOM      8  N   UNL     1      -1.214  12.355  22.870  0.00  0.00    +0.000 N 
ATOM      9  C   UNL     1      -1.797  12.935  21.674  0.00  0.00    +0.000 C 
ATOM     10  C   UNL     1      -1.043  14.172  21.183  0.00  0.00    +0.000 C 
ATOM     11  C   UNL     1      -1.287  15.404  22.047  0.00  0.00    +0.000 C 
ATOM     12  C   UNL     1      -2.779  15.687  22.269  0.00  0.00    +0.000 C 
ATOM     13  C   UNL     1      -3.455  16.210  20.999  0.00  0.00    +0.000 C 
ATOM     14  C   UNL     1      -3.491  14.437  22.807  0.00  0.00    +0.000 C 
ATOM     15  C   UNL     1      -3.287  13.203  21.917  0.00  0.00    +0.000 C 
ATOM     16  C   UNL     1      -1.550  11.792  20.675  0.00  0.00    +0.000 C 
ATOM     17  O   UNL     1      -1.668  11.913  19.461  0.00  0.00    +0.000 OA
ATOM     18  H   UNL     1      -1.074  12.820  23.758  0.00  0.00    +0.000 HD
ENDBRANCH   3   5
BRANCH   1  23
ATOM     19  C   UNL     1       2.422   6.516  19.766  0.00  0.00    +0.000 A 
ATOM     20  C   UNL     1       2.883   6.590  18.449  0.00  0.00    +0.000 A 
ATOM     21  C   UNL     1       2.690   7.739  17.684  0.00  0.00    +0.000 A 
ATOM     22  C   UNL     1       2.036   8.838  18.230  0.00  0.00    +0.000 A 
ATOM     23  C   UNL     1       1.537   8.775  19.537  0.00  0.00    +0.000 A 
ATOM     24  C   UNL     1       1.716   7.605  20.298  0.00  0.00    +0.000 A 
BRANCH  19  28
ATOM     25  C   UNL     1       2.256   3.296  21.738  0.00  0.00    +0.000 C 
ATOM     26  C   UNL     1       1.766   4.324  20.753  0.00  0.00    +0.000 C 
ATOM     27  O   UNL     1       0.688   4.173  20.188  0.00  0.00    +0.000 OA
ATOM     28  N   UNL     1       2.647   5.384  20.584  0.00  0.00    +0.000 N 
ATOM     29  H   UNL     1       3.579   5.276  20.966  0.00  0.00    +0.000 HD
ENDBRANCH  19  28
ENDBRANCH   1  23
TORSDOF 3
ENDMDL
MODEL 8
REMARK VINA RESULT:      -7.1      1.400      1.632
REMARK  Name = 
REMARK  5 active torsions:
REMARK  status: ('A' for Active; 'I' for Inactive)
REMARK    1  A    between atoms: C_1  and  C_2
REMARK    2  A    between atoms: N_4  and  C_5
REMARK    3  A    between atoms: C_9  and  C_10
REMARK    4  A    between atoms: N_12  and  N_13
REMARK    5  A    between atoms: C_20  and  C_21
REMARK                            x       y       z     vdW  Elec       q    Type
REMARK                         _______ _______ _______ _____ _____    ______ ____
ROOT
ATOM      1  C   UNL     1       0.841   9.536  20.063  0.00  0.00    +0.000 C 
ATOM      2  O   UNL     1       0.286   9.369  21.141  0.00  0.00    +0.000 OA
ATOM      3  N   UNL     1       0.782  10.685  19.306  0.00  0.00    +0.000 N 
ATOM      4  H   UNL     1       1.254  10.787  18.414  0.00  0.00    +0.000 HD
ENDROOT
BRANCH   3   5
ATOM      5  N   UNL     1       0.073  11.810  19.729  0.00  0.00    +0.000 N 
ATOM      6  C   UNL     1      -1.294  11.817  19.605  0.00  0.00    +0.000 C 
ATOM      7  O   UNL     1      -1.978  11.104  18.888  0.00  0.00    +0.000 OA
ATOM      8  N   UNL     1      -1.813  12.692  20.535  0.00  0.00    +0.000 N 
ATOM      9  C   UNL     1      -0.779  13.290  21.360  0.00  0.00    +0.000 C 
ATOM     10  C   UNL     1      -0.938  12.965  22.846  0.00  0.00    +0.000 C 
ATOM     11  C   UNL     1      -2.080  13.729  23.507  0.00  0.00    +0.000 C 
ATOM     12  C   UNL     1      -2.008  15.241  23.251  0.00  0.00    +0.000 C 
ATOM     13  C   UNL     1      -0.864  15.897  24.030  0.00  0.00    +0.000 C 
ATOM     14  C   UNL     1      -1.896  15.529  21.747  0.00  0.00    +0.000 C 
ATOM     15  C   UNL     1      -0.721  14.797  21.083  0.00  0.00    +0.000 C 
ATOM     16  C   UNL     1       0.454  12.537  20.831  0.00  0.00    +0.000 C 
ATOM     17  O   UNL     1       1.544  12.541  21.391  0.00  0.00    +0.000 OA
ATOM     18  H   UNL     1      -2.811  12.834  20.625  0.00  0.00    +0.000 HD
ENDBRANCH   3   5
BRANCH   1  23
ATOM     19  C   UNL     1       2.649   6.218  19.679  0.00  0.00    +0.000 A 
ATOM     20  C   UNL     1       3.271   6.407  18.441  0.00  0.00    +0.000 A 
ATOM     21  C   UNL     1       3.103   7.592  17.727  0.00  0.00    +0.000 A 
ATOM     22  C   UNL     1       2.314   8.613  18.245  0.00  0.00    +0.000 A 
ATOM     23  C   UNL     1       1.656   8.434  19.469  0.00  0.00    +0.000 A 
ATOM     24  C   UNL     1       1.811   7.227  20.176  0.00  0.00    +0.000 A 
BRANCH  19  28
ATOM     25  C   UNL     1       2.358   2.984  21.611  0.00  0.00    +0.000 C 
ATOM     26  C   UNL     1       1.875   4.082  20.701  0.00  0.00    +0.000 C 
ATOM     27  O   UNL     1       0.733   4.058  20.256  0.00  0.00    +0.000 OA
ATOM     28  N   UNL     1       2.841   5.048  20.450  0.00  0.00    +0.000 N 
ATOM     29  H   UNL     1       3.791   4.834  20.725  0.00  0.00    +0.000 HD
ENDBRANCH  19  28
ENDBRANCH   1  23
TORSDOF 3
ENDMDL
MODEL 9
REMARK VINA RESULT:      -7.0      1.309      1.352
REMARK  Name = 
REMARK  5 active torsions:
REMARK  status: ('A' for Active; 'I' for Inactive)
REMARK    1  A    between atoms: C_1  and  C_2
REMARK    2  A    between atoms: N_4  and  C_5
REMARK    3  A    between atoms: C_9  and  C_10
REMARK    4  A    between atoms: N_12  and  N_13
REMARK    5  A    between atoms: C_20  and  C_21
REMARK                            x       y       z     vdW  Elec       q    Type
REMARK                         _______ _______ _______ _____ _____    ______ ____
ROOT
ATOM      1  C   UNL     1       1.310   8.801  19.588  0.00  0.00    +0.000 C 
ATOM      2  O   UNL     1       0.781   8.488  20.647  0.00  0.00    +0.000 OA
ATOM      3  N   UNL     1       1.090   9.976  18.904  0.00  0.00    +0.000 N 
ATOM      4  H   UNL     1       1.545  10.201  18.026  0.00  0.00    +0.000 HD
ENDROOT
BRANCH   3   5
ATOM      5  N   UNL     1       0.228  10.961  19.390  0.00  0.00    +0.000 N 
ATOM      6  C   UNL     1      -1.121  10.822  19.180  0.00  0.00    +0.000 C 
ATOM      7  O   UNL     1      -1.675  10.115  18.352  0.00  0.00    +0.000 OA
ATOM      8  N   UNL     1      -1.790  11.527  20.156  0.00  0.00    +0.000 N 
ATOM      9  C   UNL     1      -0.882  12.151  21.101  0.00  0.00    +0.000 C 
ATOM     10  C   UNL     1      -1.078  11.654  22.534  0.00  0.00    +0.000 C 
ATOM     11  C   UNL     1      -2.337  12.207  23.192  0.00  0.00    +0.000 C 
ATOM     12  C   UNL     1      -2.436  13.735  23.092  0.00  0.00    +0.000 C 
ATOM     13  C   UNL     1      -1.423  14.433  24.004  0.00  0.00    +0.000 C 
ATOM     14  C   UNL     1      -2.282  14.191  21.634  0.00  0.00    +0.000 C 
ATOM     15  C   UNL     1      -0.993  13.675  20.979  0.00  0.00    +0.000 C 
ATOM     16  C   UNL     1       0.460  11.606  20.581  0.00  0.00    +0.000 C 
ATOM     17  O   UNL     1       1.510  11.677  21.208  0.00  0.00    +0.000 OA
ATOM     18  H   UNL     1      -2.801  11.543  20.194  0.00  0.00    +0.000 HD
ENDBRANCH   3   5
BRANCH   1  23
ATOM     19  C   UNL     1       3.560   5.796  19.009  0.00  0.00    +0.000 A 
ATOM     20  C   UNL     1       4.160   6.155  17.799  0.00  0.00    +0.000 A 
ATOM     21  C   UNL     1       3.838   7.354  17.165  0.00  0.00    +0.000 A 
ATOM     22  C   UNL     1       2.911   8.218  17.738  0.00  0.00    +0.000 A 
ATOM     23  C   UNL     1       2.274   7.864  18.934  0.00  0.00    +0.000 A 
ATOM     24  C   UNL     1       2.587   6.643  19.559  0.00  0.00    +0.000 A 
BRANCH  19  28
ATOM     25  C   UNL     1       4.050   2.266  20.264  0.00  0.00    +0.000 C 
ATOM     26  C   UNL     1       3.614   3.321  19.282  0.00  0.00    +0.000 C 
ATOM     27  O   UNL     1       3.069   2.998  18.231  0.00  0.00    +0.000 OA
ATOM     28  N   UNL     1       3.904   4.612  19.702  0.00  0.00    +0.000 N 
ATOM     29  H   UNL     1       4.527   4.712  20.494  0.00  0.00    +0.000 HD
ENDBRANCH  19  28
ENDBRANCH   1  23
TORSDOF 3
ENDMDL
