MODEL 1
REMARK VINA RESULT:      -7.0      0.000      0.000
REMARK  Name = 
REMARK  4 active torsions:
REMARK  status: ('A' for Active; 'I' for Inactive)
REMARK    1  A    between atoms: C_1  and  C_2
REMARK    2  A    between atoms: C_5  and  S_6
REMARK    3  A    between atoms: S_6  and  C_7
REMARK    4  A    between atoms: C_13  and  C_14
REMARK                            x       y       z     vdW  Elec       q    Type
REMARK                         _______ _______ _______ _____ _____    ______ ____
ROOT
ATOM      1  C   UNL     1       3.645   3.205  18.471  0.00  0.00    +0.000 A 
ATOM      2  C   UNL     1       4.241   2.573  19.547  0.00  0.00    +0.000 A 
ATOM      3  N   UNL     1       3.669   2.412  20.760  0.00  0.00    +0.000 NA
ATOM      4  C   UNL     1       2.439   2.904  20.898  0.00  0.00    +0.000 A 
ATOM      5  N   UNL     1       1.835   2.774  22.130  0.00  0.00    +0.000 N 
ATOM      6  N   UNL     1       1.771   3.559  19.946  0.00  0.00    +0.000 NA
ATOM      7  C   UNL     1       2.376   3.701  18.737  0.00  0.00    +0.000 A 
ATOM      8  C   UNL     1       1.573   4.445  17.708  0.00  0.00    +0.000 C 
ATOM      9  H   UNL     1       2.543   2.658  22.843  0.00  0.00    +0.000 HD
ATOM     10  H   UNL     1       1.164   3.517  22.259  0.00  0.00    +0.000 HD
ENDROOT
BRANCH   1  11
ATOM     11  S   UNL     1       4.517   3.427  16.942  0.00  0.00    +0.000 S 
BRANCH  11  16
ATOM     12  C   UNL     1       8.066   8.304  17.826  0.00  0.00    +0.000 C 
ATOM     13  C   UNL     1       7.168   7.112  17.669  0.00  0.00    +0.000 A 
ATOM     14  C   UNL     1       7.569   5.847  18.114  0.00  0.00    +0.000 A 
ATOM     15  C   UNL     1       6.745   4.733  17.922  0.00  0.00    +0.000 A 
ATOM     16  C   UNL     1       5.511   4.868  17.280  0.00  0.00    +0.000 A 
ATOM     17  C   UNL     1       5.106   6.132  16.837  0.00  0.00    +0.000 A 
ATOM     18  C   UNL     1       5.926   7.248  17.035  0.00  0.00    +0.000 A 
ENDBRANCH  11  16
ENDBRANCH   1  11
TORSDOF 2
ENDMDL
MODEL 2
REMARK VINA RESULT:      -6.9      0.208      1.221
REMARK  Name = 
REMARK  4 active torsions:
REMARK  status: ('A' for Active; 'I' for Inactive)
REMARK    1  A    between atoms: C_1  and  C_2
REMARK    2  A    between atoms: C_5  and  S_6
REMARK    3  A    between atoms: S_6  and  C_7
REMARK    4  A    between atoms: C_13  and  C_14
REMARK                            x       y       z     vdW  Elec       q    Type
REMARK                         _______ _______ _______ _____ _____    ______ ____
ROOT
ATOM      1  C   UNL     1       3.600   3.202  18.392  0.00  0.00    +0.000 A 
ATOM      2  C   UNL     1       4.231   2.579  19.453  0.00  0.00    +0.000 A 
ATOM      3  N   UNL     1       3.727   2.487  20.703  0.00  0.00    +0.000 NA
ATOM      4  C   UNL     1       2.533   3.043  20.896  0.00  0.00    +0.000 A 
ATOM      5  N   UNL     1       2.000   2.985  22.166  0.00  0.00    +0.000 N 
ATOM      6  N   UNL     1       1.838   3.697  19.961  0.00  0.00    +0.000 NA
ATOM      7  C   UNL     1       2.373   3.768  18.714  0.00  0.00    +0.000 A 
ATOM      8  C   UNL     1       1.545   4.514  17.708  0.00  0.00    +0.000 C 
ATOM      9  H   UNL     1       2.744   2.859  22.838  0.00  0.00    +0.000 HD
ATOM     10  H   UNL     1       1.373   3.764  22.307  0.00  0.00    +0.000 HD
ENDROOT
BRANCH   1  11
ATOM     11  S   UNL     1       4.386   3.328  16.806  0.00  0.00    +0.000 S 
BRANCH  11  16
ATOM     12  C   UNL     1       7.933   8.174  17.857  0.00  0.00    +0.000 C 
ATOM     13  C   UNL     1       7.081   6.980  17.536  0.00  0.00    +0.000 A 
ATOM     14  C   UNL     1       5.804   7.136  16.985  0.00  0.00    +0.000 A 
ATOM     15  C   UNL     1       5.000   6.020  16.732  0.00  0.00    +0.000 A 
ATOM     16  C   UNL     1       5.459   4.734  17.029  0.00  0.00    +0.000 A 
ATOM     17  C   UNL     1       6.737   4.575  17.576  0.00  0.00    +0.000 A 
ATOM     18  C   UNL     1       7.545   5.690  17.823  0.00  0.00    +0.000 A 
ENDBRANCH  11  16
ENDBRANCH   1  11
TORSDOF 2
ENDMDL
MODEL 3
REMARK VINA RESULT:      -6.8      3.582      6.044
REMARK  Name = 
REMARK  4 active torsions:
REMARK  status: ('A' for Active; 'I' for Inactive)
REMARK    1  A    between atoms: C_1  and  C_2
REMARK    2  A    between atoms: C_5  and  S_6
REMARK    3  A    between atoms: S_6  and  C_7
REMARK    4  A    between atoms: C_13  and  C_14
REMARK                            x       y       z     vdW  Elec       q    Type
REMARK                         _______ _______ _______ _____ _____    ______ ____
ROOT
ATOM      1  C   UNL     1       6.259   5.322  17.626  0.00  0.00    +0.000 A 
ATOM      2  C   UNL     1       7.310   4.562  17.148  0.00  0.00    +0.000 A 
ATOM      3  N   UNL     1       7.694   4.505  15.854  0.00  0.00    +0.000 NA
ATOM      4  C   UNL     1       6.992   5.249  15.001  0.00  0.00    +0.000 A 
ATOM      5  N   UNL     1       7.345   5.197  13.670  0.00  0.00    +0.000 N 
ATOM      6  N   UNL     1       5.940   6.000  15.335  0.00  0.00    +0.000 NA
ATOM      7  C   UNL     1       5.582   6.036  16.646  0.00  0.00    +0.000 A 
ATOM      8  C   UNL     1       4.393   6.899  16.958  0.00  0.00    +0.000 C 
ATOM      9  H   UNL     1       7.836   4.334  13.484  0.00  0.00    +0.000 HD
ATOM     10  H   UNL     1       6.540   5.407  13.096  0.00  0.00    +0.000 HD
ENDROOT
BRANCH   1  11
ATOM     11  S   UNL     1       5.794   5.266  19.338  0.00  0.00    +0.000 S 
BRANCH  11  16
ATOM     12  C   UNL     1       0.514   2.251  18.890  0.00  0.00    +0.000 C 
ATOM     13  C   UNL     1       1.824   2.965  19.059  0.00  0.00    +0.000 A 
ATOM     14  C   UNL     1       1.893   4.185  19.741  0.00  0.00    +0.000 A 
ATOM     15  C   UNL     1       3.110   4.866  19.853  0.00  0.00    +0.000 A 
ATOM     16  C   UNL     1       4.272   4.338  19.285  0.00  0.00    +0.000 A 
ATOM     17  C   UNL     1       4.206   3.117  18.606  0.00  0.00    +0.000 A 
ATOM     18  C   UNL     1       2.991   2.432  18.498  0.00  0.00    +0.000 A 
ENDBRANCH  11  16
ENDBRANCH   1  11
TORSDOF 2
ENDMDL
MODEL 4
REMARK VINA RESULT:      -6.8      3.506      6.251
REMARK  Name = 
REMARK  4 active torsions:
REMARK  status: ('A' for Active; 'I' for Inactive)
REMARK    1  A    between atoms: C_1  and  C_2
REMARK    2  A    between atoms: C_5  and  S_6
REMARK    3  A    between atoms: S_6  and  C_7
REMARK    4  A    between atoms: C_13  and  C_14
REMARK                            x       y       z     vdW  Elec       q    Type
REMARK                         _______ _______ _______ _____ _____    ______ ____
ROOT
ATOM      1  C   UNL     1       6.316   5.055  17.512  0.00  0.00    +0.000 A 
ATOM      2  C   UNL     1       5.884   4.015  16.711  0.00  0.00    +0.000 A 
ATOM      3  N   UNL     1       6.176   3.880  15.398  0.00  0.00    +0.000 NA
ATOM      4  C   UNL     1       6.941   4.831  14.867  0.00  0.00    +0.000 A 
ATOM      5  N   UNL     1       7.240   4.734  13.525  0.00  0.00    +0.000 N 
ATOM      6  N   UNL     1       7.396   5.899  15.528  0.00  0.00    +0.000 NA
ATOM      7  C   UNL     1       7.085   6.002  16.848  0.00  0.00    +0.000 A 
ATOM      8  C   UNL     1       7.626   7.223  17.535  0.00  0.00    +0.000 C 
ATOM      9  H   UNL     1       6.543   4.167  13.064  0.00  0.00    +0.000 HD
ATOM     10  H   UNL     1       7.414   5.655  13.149  0.00  0.00    +0.000 HD
ENDROOT
BRANCH   1  11
ATOM     11  S   UNL     1       5.812   5.174  19.209  0.00  0.00    +0.000 S 
BRANCH  11  16
ATOM     12  C   UNL     1       0.431   2.332  18.839  0.00  0.00    +0.000 C 
ATOM     13  C   UNL     1       1.736   3.059  18.986  0.00  0.00    +0.000 A 
ATOM     14  C   UNL     1       1.888   4.365  18.506  0.00  0.00    +0.000 A 
ATOM     15  C   UNL     1       3.121   5.018  18.606  0.00  0.00    +0.000 A 
ATOM     16  C   UNL     1       4.218   4.375  19.186  0.00  0.00    +0.000 A 
ATOM     17  C   UNL     1       4.068   3.072  19.670  0.00  0.00    +0.000 A 
ATOM     18  C   UNL     1       2.833   2.419  19.576  0.00  0.00    +0.000 A 
ENDBRANCH  11  16
ENDBRANCH   1  11
TORSDOF 2
ENDMDL
MODEL 5
REMARK VINA RESULT:      -6.7      4.045      5.683
REMARK  Name = 
REMARK  4 active torsions:
REMARK  status: ('A' for Active; 'I' for Inactive)
REMARK    1  A    between atoms: C_1  and  C_2
REMARK    2  A    between atoms: C_5  and  S_6
REMARK    3  A    between atoms: S_6  and  C_7
REMARK    4  A    between atoms: C_13  and  C_14
REMARK                            x       y       z     vdW  Elec       q    Type
REMARK                         _______ _______ _______ _____ _____    ______ ____
ROOT
ATOM      1  C   UNL     1       5.797   4.569  17.073  0.00  0.00    +0.000 A 
ATOM      2  C   UNL     1       5.347   4.048  15.874  0.00  0.00    +0.000 A 
ATOM      3  N   UNL     1       5.931   4.257  14.675  0.00  0.00    +0.000 NA
ATOM      4  C   UNL     1       7.021   5.022  14.679  0.00  0.00    +0.000 A 
ATOM      5  N   UNL     1       7.629   5.273  13.468  0.00  0.00    +0.000 N 
ATOM      6  N   UNL     1       7.535   5.606  15.764  0.00  0.00    +0.000 NA
ATOM      7  C   UNL     1       6.924   5.373  16.955  0.00  0.00    +0.000 A 
ATOM      8  C   UNL     1       7.550   6.056  18.137  0.00  0.00    +0.000 C 
ATOM      9  H   UNL     1       6.959   5.148  12.722  0.00  0.00    +0.000 HD
ATOM     10  H   UNL     1       8.119   6.155  13.510  0.00  0.00    +0.000 HD
ENDROOT
BRANCH   1  11
ATOM     11  S   UNL     1       4.909   4.290  18.584  0.00  0.00    +0.000 S 
BRANCH  11  16
ATOM     12  C   UNL     1       1.374   9.244  18.933  0.00  0.00    +0.000 C 
ATOM     13  C   UNL     1       2.193   7.992  18.821  0.00  0.00    +0.000 A 
ATOM     14  C   UNL     1       2.176   7.029  19.837  0.00  0.00    +0.000 A 
ATOM     15  C   UNL     1       2.978   5.887  19.746  0.00  0.00    +0.000 A 
ATOM     16  C   UNL     1       3.810   5.693  18.640  0.00  0.00    +0.000 A 
ATOM     17  C   UNL     1       3.826   6.651  17.621  0.00  0.00    +0.000 A 
ATOM     18  C   UNL     1       3.020   7.791  17.708  0.00  0.00    +0.000 A 
ENDBRANCH  11  16
ENDBRANCH   1  11
TORSDOF 2
ENDMDL
MODEL 6
REMARK VINA RESULT:      -6.7      3.589      6.032
REMARK  Name = 
REMARK  4 active torsions:
REMARK  status: ('A' for Active; 'I' for Inactive)
REMARK    1  A    between atoms: C_1  and  C_2
REMARK    2  A    between atoms: C_5  and  S_6
REMARK    3  A    between atoms: S_6  and  C_7
REMARK    4  A    between atoms: C_13  and  C_14
REMARK                            x       y       z     vdW  Elec       q    Type
REMARK                         _______ _______ _______ _____ _____    ______ ____
ROOT
ATOM      1  C   UNL     1       6.235   5.302  17.687  0.00  0.00    +0.000 A 
ATOM      2  C   UNL     1       7.299   4.540  17.243  0.00  0.00    +0.000 A 
ATOM      3  N   UNL     1       7.760   4.525  15.973  0.00  0.00    +0.000 NA
ATOM      4  C   UNL     1       7.126   5.317  15.110  0.00  0.00    +0.000 A 
ATOM      5  N   UNL     1       7.559   5.309  13.802  0.00  0.00    +0.000 N 
ATOM      6  N   UNL     1       6.070   6.076  15.410  0.00  0.00    +0.000 NA
ATOM      7  C   UNL     1       5.633   6.068  16.698  0.00  0.00    +0.000 A 
ATOM      8  C   UNL     1       4.444   6.943  16.972  0.00  0.00    +0.000 C 
ATOM      9  H   UNL     1       8.044   4.443  13.611  0.00  0.00    +0.000 HD
ATOM     10  H   UNL     1       6.794   5.558  13.190  0.00  0.00    +0.000 HD
ENDROOT
BRANCH   1  11
ATOM     11  S   UNL     1       5.665   5.190  19.364  0.00  0.00    +0.000 S 
BRANCH  11  16
ATOM     12  C   UNL     1       0.399   2.142  18.982  0.00  0.00    +0.000 C 
ATOM     13  C   UNL     1       1.682   2.920  19.017  0.00  0.00    +0.000 A 
ATOM     14  C   UNL     1       2.844   2.416  18.420  0.00  0.00    +0.000 A 
ATOM     15  C   UNL     1       4.046   3.126  18.498  0.00  0.00    +0.000 A 
ATOM     16  C   UNL     1       4.105   4.347  19.176  0.00  0.00    +0.000 A 
ATOM     17  C   UNL     1       2.945   4.854  19.770  0.00  0.00    +0.000 A 
ATOM     18  C   UNL     1       1.740   4.148  19.688  0.00  0.00    +0.000 A 
ENDBRANCH  11  16
ENDBRANCH   1  11
TORSDOF 2
ENDMDL
MODEL 7
REMARK VINA RESULT:      -6.7      3.572      6.220
REMARK  Name = 
REMARK  4 active torsions:
REMARK  status: ('A' for Active; 'I' for Inactive)
REMARK    1  A    between atoms: C_1  and  C_2
REMARK    2  A    between atoms: C_5  and  S_6
REMARK    3  A    between atoms: S_6  and  C_7
REMARK    4  A    between atoms: C_13  and  C_14
REMARK                            x       y       z     vdW  Elec       q    Type
REMARK                         _______ _______ _______ _____ _____    ______ ____
ROOT
ATOM      1  C   UNL     1       6.378   5.102  17.469  0.00  0.00    +0.000 A 
ATOM      2  C   UNL     1       6.009   4.104  16.587  0.00  0.00    +0.000 A 
ATOM      3  N   UNL     1       6.360   4.058  15.283  0.00  0.00    +0.000 NA
ATOM      4  C   UNL     1       7.122   5.060  14.846  0.00  0.00    +0.000 A 
ATOM      5  N   UNL     1       7.481   5.055  13.516  0.00  0.00    +0.000 N 
ATOM      6  N   UNL     1       7.519   6.094  15.592  0.00  0.00    +0.000 NA
ATOM      7  C   UNL     1       7.149   6.107  16.900  0.00  0.00    +0.000 A 
ATOM      8  C   UNL     1       7.627   7.294  17.685  0.00  0.00    +0.000 C 
ATOM      9  H   UNL     1       6.819   4.501  12.990  0.00  0.00    +0.000 HD
ATOM     10  H   UNL     1       7.646   6.001  13.204  0.00  0.00    +0.000 HD
ENDROOT
BRANCH   1  11
ATOM     11  S   UNL     1       5.799   5.101  19.147  0.00  0.00    +0.000 S 
BRANCH  11  16
ATOM     12  C   UNL     1       0.366   2.342  18.945  0.00  0.00    +0.000 C 
ATOM     13  C   UNL     1       1.720   2.991  18.939  0.00  0.00    +0.000 A 
ATOM     14  C   UNL     1       2.830   2.343  19.493  0.00  0.00    +0.000 A 
ATOM     15  C   UNL     1       4.077   2.974  19.524  0.00  0.00    +0.000 A 
ATOM     16  C   UNL     1       4.232   4.262  19.004  0.00  0.00    +0.000 A 
ATOM     17  C   UNL     1       3.125   4.911  18.446  0.00  0.00    +0.000 A 
ATOM     18  C   UNL     1       1.878   4.278  18.408  0.00  0.00    +0.000 A 
ENDBRANCH  11  16
ENDBRANCH   1  11
TORSDOF 2
ENDMDL
MODEL 8
REMARK VINA RESULT:      -6.7      4.061      5.729
REMARK  Name = 
REMARK  4 active torsions:
REMARK  status: ('A' for Active; 'I' for Inactive)
REMARK    1  A    between atoms: C_1  and  C_2
REMARK    2  A    between atoms: C_5  and  S_6
REMARK    3  A    between atoms: S_6  and  C_7
REMARK    4  A    between atoms: C_13  and  C_14
REMARK                            x       y       z     vdW  Elec       q    Type
REMARK                         _______ _______ _______ _____ _____    ______ ____
ROOT
ATOM      1  C   UNL     1       5.705   4.538  16.958  0.00  0.00    +0.000 A 
ATOM      2  C   UNL     1       5.270   4.080  15.728  0.00  0.00    +0.000 A 
ATOM      3  N   UNL     1       5.901   4.305  14.555  0.00  0.00    +0.000 NA
ATOM      4  C   UNL     1       7.023   5.018  14.620  0.00  0.00    +0.000 A 
ATOM      5  N   UNL     1       7.680   5.283  13.438  0.00  0.00    +0.000 N 
ATOM      6  N   UNL     1       7.528   5.540  15.741  0.00  0.00    +0.000 NA
ATOM      7  C   UNL     1       6.869   5.293  16.904  0.00  0.00    +0.000 A 
ATOM      8  C   UNL     1       7.488   5.904  18.128  0.00  0.00    +0.000 C 
ATOM      9  H   UNL     1       7.029   5.216  12.668  0.00  0.00    +0.000 HD
ATOM     10  H   UNL     1       8.208   6.140  13.527  0.00  0.00    +0.000 HD
ENDROOT
BRANCH   1  11
ATOM     11  S   UNL     1       4.758   4.247  18.431  0.00  0.00    +0.000 S 
BRANCH  11  16
ATOM     12  C   UNL     1       1.334   9.279  18.794  0.00  0.00    +0.000 C 
ATOM     13  C   UNL     1       2.227   8.074  18.731  0.00  0.00    +0.000 A 
ATOM     14  C   UNL     1       3.076   7.865  17.638  0.00  0.00    +0.000 A 
ATOM     15  C   UNL     1       3.870   6.716  17.566  0.00  0.00    +0.000 A 
ATOM     16  C   UNL     1       3.825   5.760  18.584  0.00  0.00    +0.000 A 
ATOM     17  C   UNL     1       2.981   5.967  19.680  0.00  0.00    +0.000 A 
ATOM     18  C   UNL     1       2.191   7.120  19.756  0.00  0.00    +0.000 A 
ENDBRANCH  11  16
ENDBRANCH   1  11
TORSDOF 2
ENDMDL
MODEL 9
REMARK VINA RESULT:      -6.7      3.121      5.685
REMARK  Name = 
REMARK  4 active torsions:
REMARK  status: ('A' for Active; 'I' for Inactive)
REMARK    1  A    between atoms: C_1  and  C_2
REMARK    2  A    between atoms: C_5  and  S_6
REMARK    3  A    between atoms: S_6  and  C_7
REMARK    4  A    between atoms: C_13  and  C_14
REMARK                            x       y       z     vdW  Elec       q    Type
REMARK                         _______ _______ _______ _____ _____    ______ ____
ROOT
ATOM      1  C   UNL     1       6.127   5.017  16.971  0.00  0.00    +0.000 A 
ATOM      2  C   UNL     1       7.062   4.757  17.956  0.00  0.00    +0.000 A 
ATOM      3  N   UNL     1       7.847   5.690  18.538  0.00  0.00    +0.000 NA
ATOM      4  C   UNL     1       7.683   6.942  18.115  0.00  0.00    +0.000 A 
ATOM      5  N   UNL     1       8.484   7.914  18.675  0.00  0.00    +0.000 N 
ATOM      6  N   UNL     1       6.836   7.314  17.153  0.00  0.00    +0.000 NA
ATOM      7  C   UNL     1       6.059   6.351  16.589  0.00  0.00    +0.000 A 
ATOM      8  C   UNL     1       5.127   6.832  15.515  0.00  0.00    +0.000 C 
ATOM      9  H   UNL     1       9.320   7.488  19.048  0.00  0.00    +0.000 HD
ATOM     10  H   UNL     1       8.602   8.675  18.021  0.00  0.00    +0.000 HD
ENDROOT
BRANCH   1  11
ATOM     11  S   UNL     1       5.198   3.704  16.221  0.00  0.00    +0.000 S 
BRANCH  11  16
ATOM     12  C   UNL     1       0.659   3.201  20.260  0.00  0.00    +0.000 C 
ATOM     13  C   UNL     1       1.735   3.306  19.219  0.00  0.00    +0.000 A 
ATOM     14  C   UNL     1       2.502   2.190  18.865  0.00  0.00    +0.000 A 
ATOM     15  C   UNL     1       3.534   2.307  17.927  0.00  0.00    +0.000 A 
ATOM     16  C   UNL     1       3.812   3.541  17.332  0.00  0.00    +0.000 A 
ATOM     17  C   UNL     1       3.045   4.656  17.681  0.00  0.00    +0.000 A 
ATOM     18  C   UNL     1       2.009   4.539  18.614  0.00  0.00    +0.000 A 
ENDBRANCH  11  16
ENDBRANCH   1  11
TORSDOF 2
ENDMDL
