MODEL 1
REMARK VINA RESULT:      -7.0      0.000      0.000
REMARK  Name = 
REMARK  7 active torsions:
REMARK  status: ('A' for Active; 'I' for Inactive)
REMARK    1  A    between atoms: C_1  and  N_2
REMARK    2  A    between atoms: N_2  and  C_3
REMARK    3  A    between atoms: N_2  and  S_4
REMARK    4  A    between atoms: S_4  and  N_7
REMARK    5  A    between atoms: C_13  and  C_14
REMARK    6  A    between atoms: C_14  and  O_15
REMARK    7  A    between atoms: O_15  and  C_16
REMARK                            x       y       z     vdW  Elec       q    Type
REMARK                         _______ _______ _______ _____ _____    ______ ____
ROOT
ATOM      1  N   UNL     1       3.704   3.649  18.624  0.00  0.00    +0.000 NA
ATOM      2  C   UNL     1       4.432   3.074  17.508  0.00  0.00    +0.000 C 
ATOM      3  C   UNL     1       5.157   4.267  16.944  0.00  0.00    +0.000 C 
ATOM      4  C   UNL     1       5.426   4.058  15.460  0.00  0.00    +0.000 C 
ATOM      5  C   UNL     1       5.695   5.457  14.993  0.00  0.00    +0.000 C 
ATOM      6  C   UNL     1       5.587   6.267  16.282  0.00  0.00    +0.000 C 
ATOM      7  C   UNL     1       4.315   5.611  17.096  0.00  0.00    +0.000 C 
ATOM      8  C   UNL     1       4.123   5.095  18.662  0.00  0.00    +0.000 C 
ENDROOT
BRANCH   1   9
ATOM      9  S   UNL     1       2.038   3.313  18.598  0.00  0.00    +0.000 S 
ATOM     10  O   UNL     1       1.851   1.904  18.343  0.00  0.00    +0.000 OA
ATOM     11  O   UNL     1       1.402   4.327  17.789  0.00  0.00    +0.000 OA
BRANCH   9  13
ATOM     12  C   UNL     1       0.984   4.804  20.598  0.00  0.00    +0.000 C 
ATOM     13  N   UNL     1       1.636   3.571  20.185  0.00  0.00    +0.000 NA
ATOM     14  C   UNL     1       1.851   2.528  21.176  0.00  0.00    +0.000 C 
ENDBRANCH   9  13
ENDBRANCH   1   9
BRANCH   7  15
ATOM     15  C   UNL     1       3.877   7.057  17.567  0.00  0.00    +0.000 C 
BRANCH  15  16
ATOM     16  O   UNL     1       3.036   6.950  18.746  0.00  0.00    +0.000 OA
BRANCH  16  17
ATOM     17  C   UNL     1       2.153   7.983  18.897  0.00  0.00    +0.000 A 
ATOM     18  C   UNL     1       1.732   8.815  17.864  0.00  0.00    +0.000 A 
ATOM     19  C   UNL     1       0.851   9.859  18.142  0.00  0.00    +0.000 A 
ATOM     20  C   UNL     1       0.429  10.038  19.450  0.00  0.00    +0.000 A 
ATOM     21  N   UNL     1       0.824   9.257  20.477  0.00  0.00    +0.000 NA
ATOM     22  C   UNL     1       1.687   8.256  20.178  0.00  0.00    +0.000 A 
ENDBRANCH  16  17
ENDBRANCH  15  16
ENDBRANCH   7  15
TORSDOF 5
ENDMDL
MODEL 2
REMARK VINA RESULT:      -7.0      2.192      4.348
REMARK  Name = 
REMARK  7 active torsions:
REMARK  status: ('A' for Active; 'I' for Inactive)
REMARK    1  A    between atoms: C_1  and  N_2
REMARK    2  A    between atoms: N_2  and  C_3
REMARK    3  A    between atoms: N_2  and  S_4
REMARK    4  A    between atoms: S_4  and  N_7
REMARK    5  A    between atoms: C_13  and  C_14
REMARK    6  A    between atoms: C_14  and  O_15
REMARK    7  A    between atoms: O_15  and  C_16
REMARK                            x       y       z     vdW  Elec       q    Type
REMARK                         _______ _______ _______ _____ _____    ______ ____
ROOT
ATOM      1  N   UNL     1       3.704   4.621  17.837  0.00  0.00    +0.000 NA
ATOM      2  C   UNL     1       3.954   3.329  18.450  0.00  0.00    +0.000 C 
ATOM      3  C   UNL     1       2.830   3.221  19.447  0.00  0.00    +0.000 C 
ATOM      4  C   UNL     1       3.248   2.324  20.604  0.00  0.00    +0.000 C 
ATOM      5  C   UNL     1       2.258   2.704  21.664  0.00  0.00    +0.000 C 
ATOM      6  C   UNL     1       1.383   3.733  20.953  0.00  0.00    +0.000 C 
ATOM      7  C   UNL     1       2.427   4.637  20.056  0.00  0.00    +0.000 C 
ATOM      8  C   UNL     1       2.427   5.113  18.465  0.00  0.00    +0.000 C 
ENDROOT
BRANCH   1   9
ATOM      9  S   UNL     1       5.048   5.661  17.865  0.00  0.00    +0.000 S 
ATOM     10  O   UNL     1       5.723   5.515  19.132  0.00  0.00    +0.000 OA
ATOM     11  O   UNL     1       4.613   6.948  17.373  0.00  0.00    +0.000 OA
BRANCH   9  13
ATOM     12  C   UNL     1       5.556   4.788  15.351  0.00  0.00    +0.000 C 
ATOM     13  N   UNL     1       6.019   4.957  16.721  0.00  0.00    +0.000 NA
ATOM     14  C   UNL     1       7.384   4.576  17.049  0.00  0.00    +0.000 C 
ENDBRANCH   9  13
ENDBRANCH   1   9
BRANCH   7  15
ATOM     15  C   UNL     1       1.588   5.935  20.397  0.00  0.00    +0.000 C 
BRANCH  15  16
ATOM     16  O   UNL     1       2.340   7.115  20.012  0.00  0.00    +0.000 OA
BRANCH  16  17
ATOM     17  C   UNL     1       1.618   8.276  20.056  0.00  0.00    +0.000 A 
ATOM     18  C   UNL     1       0.883   8.702  21.157  0.00  0.00    +0.000 A 
ATOM     19  C   UNL     1       0.156   9.890  21.076  0.00  0.00    +0.000 A 
ATOM     20  C   UNL     1       0.188  10.605  19.889  0.00  0.00    +0.000 A 
ATOM     21  N   UNL     1       0.882  10.217  18.800  0.00  0.00    +0.000 NA
ATOM     22  C   UNL     1       1.570   9.054  18.905  0.00  0.00    +0.000 A 
ENDBRANCH  16  17
ENDBRANCH  15  16
ENDBRANCH   7  15
TORSDOF 5
ENDMDL
MODEL 3
REMARK VINA RESULT:      -7.0      3.053      5.558
REMARK  Name = 
REMARK  7 active torsions:
REMARK  status: ('A' for Active; 'I' for Inactive)
REMARK    1  A    between atoms: C_1  and  N_2
REMARK    2  A    between atoms: N_2  and  C_3
REMARK    3  A    between atoms: N_2  and  S_4
REMARK    4  A    between atoms: S_4  and  N_7
REMARK    5  A    between atoms: C_13  and  C_14
REMARK    6  A    between atoms: C_14  and  O_15
REMARK    7  A    between atoms: O_15  and  C_16
REMARK                            x       y       z     vdW  Elec       q    Type
REMARK                         _______ _______ _______ _____ _____    ______ ____
ROOT
ATOM      1  N   UNL     1       3.587   4.396  19.078  0.00  0.00    +0.000 NA
ATOM      2  C   UNL     1       4.722   4.700  19.931  0.00  0.00    +0.000 C 
ATOM      3  C   UNL     1       5.531   5.637  19.073  0.00  0.00    +0.000 C 
ATOM      4  C   UNL     1       7.002   5.555  19.457  0.00  0.00    +0.000 C 
ATOM      5  C   UNL     1       7.671   6.145  18.253  0.00  0.00    +0.000 C 
ATOM      6  C   UNL     1       6.490   6.523  17.364  0.00  0.00    +0.000 C 
ATOM      7  C   UNL     1       5.418   5.283  17.523  0.00  0.00    +0.000 C 
ATOM      8  C   UNL     1       3.789   5.233  17.843  0.00  0.00    +0.000 C 
ENDROOT
BRANCH   1   9
ATOM      9  S   UNL     1       3.320   2.732  18.867  0.00  0.00    +0.000 S 
ATOM     10  O   UNL     1       4.263   2.001  19.680  0.00  0.00    +0.000 OA
ATOM     11  O   UNL     1       3.183   2.489  17.449  0.00  0.00    +0.000 OA
BRANCH   9  13
ATOM     12  C   UNL     1       0.655   2.256  18.782  0.00  0.00    +0.000 C 
ATOM     13  N   UNL     1       1.834   2.554  19.580  0.00  0.00    +0.000 NA
ATOM     14  C   UNL     1       1.703   2.609  21.028  0.00  0.00    +0.000 C 
ENDBRANCH   9  13
ENDBRANCH   1   9
BRANCH   7  15
ATOM     15  C   UNL     1       5.066   5.396  15.985  0.00  0.00    +0.000 C 
BRANCH  15  16
ATOM     16  O   UNL     1       5.292   4.117  15.338  0.00  0.00    +0.000 OA
BRANCH  16  17
ATOM     17  C   UNL     1       5.975   4.202  14.156  0.00  0.00    +0.000 A 
ATOM     18  C   UNL     1       5.706   3.424  13.035  0.00  0.00    +0.000 A 
ATOM     19  C   UNL     1       6.491   3.575  11.892  0.00  0.00    +0.000 A 
ATOM     20  C   UNL     1       7.526   4.497  11.918  0.00  0.00    +0.000 A 
ATOM     21  N   UNL     1       7.822   5.260  12.990  0.00  0.00    +0.000 NA
ATOM     22  C   UNL     1       7.047   5.084  14.089  0.00  0.00    +0.000 A 
ENDBRANCH  16  17
ENDBRANCH  15  16
ENDBRANCH   7  15
TORSDOF 5
ENDMDL
MODEL 4
REMARK VINA RESULT:      -7.0      2.189      4.211
REMARK  Name = 
REMARK  7 active torsions:
REMARK  status: ('A' for Active; 'I' for Inactive)
REMARK    1  A    between atoms: C_1  and  N_2
REMARK    2  A    between atoms: N_2  and  C_3
REMARK    3  A    between atoms: N_2  and  S_4
REMARK    4  A    between atoms: S_4  and  N_7
REMARK    5  A    between atoms: C_13  and  C_14
REMARK    6  A    between atoms: C_14  and  O_15
REMARK    7  A    between atoms: O_15  and  C_16
REMARK                            x       y       z     vdW  Elec       q    Type
REMARK                         _______ _______ _______ _____ _____    ______ ____
ROOT
ATOM      1  N   UNL     1       3.830   4.239  17.678  0.00  0.00    +0.000 NA
ATOM      2  C   UNL     1       4.164   3.089  18.498  0.00  0.00    +0.000 C 
ATOM      3  C   UNL     1       2.990   3.010  19.438  0.00  0.00    +0.000 C 
ATOM      4  C   UNL     1       3.413   2.349  20.743  0.00  0.00    +0.000 C 
ATOM      5  C   UNL     1       2.318   2.773  21.674  0.00  0.00    +0.000 C 
ATOM      6  C   UNL     1       1.397   3.581  20.765  0.00  0.00    +0.000 C 
ATOM      7  C   UNL     1       2.406   4.449  19.795  0.00  0.00    +0.000 C 
ATOM      8  C   UNL     1       2.471   4.678  18.151  0.00  0.00    +0.000 C 
ENDROOT
BRANCH   1   9
ATOM      9  S   UNL     1       5.059   5.411  17.615  0.00  0.00    +0.000 S 
ATOM     10  O   UNL     1       5.508   5.689  18.959  0.00  0.00    +0.000 OA
ATOM     11  O   UNL     1       4.615   6.460  16.725  0.00  0.00    +0.000 OA
BRANCH   9  13
ATOM     12  C   UNL     1       6.058   3.938  15.573  0.00  0.00    +0.000 C 
ATOM     13  N   UNL     1       6.272   4.562  16.869  0.00  0.00    +0.000 NA
ATOM     14  C   UNL     1       7.599   4.502  17.463  0.00  0.00    +0.000 C 
ENDBRANCH   9  13
ENDBRANCH   1   9
BRANCH   7  15
ATOM     15  C   UNL     1       1.420   5.683  19.882  0.00  0.00    +0.000 C 
BRANCH  15  16
ATOM     16  O   UNL     1       2.145   6.853  20.346  0.00  0.00    +0.000 OA
BRANCH  16  17
ATOM     17  C   UNL     1       1.798   8.013  19.711  0.00  0.00    +0.000 A 
ATOM     18  C   UNL     1       2.120   8.312  18.391  0.00  0.00    +0.000 A 
ATOM     19  C   UNL     1       1.741   9.544  17.856  0.00  0.00    +0.000 A 
ATOM     20  C   UNL     1       1.059  10.436  18.669  0.00  0.00    +0.000 A 
ATOM     21  N   UNL     1       0.740  10.183  19.955  0.00  0.00    +0.000 NA
ATOM     22  C   UNL     1       1.129   8.982  20.449  0.00  0.00    +0.000 A 
ENDBRANCH  16  17
ENDBRANCH  15  16
ENDBRANCH   7  15
TORSDOF 5
ENDMDL
MODEL 5
REMARK VINA RESULT:      -6.9      2.174      4.217
REMARK  Name = 
REMARK  7 active torsions:
REMARK  status: ('A' for Active; 'I' for Inactive)
REMARK    1  A    between atoms: C_1  and  N_2
REMARK    2  A    between atoms: N_2  and  C_3
REMARK    3  A    between atoms: N_2  and  S_4
REMARK    4  A    between atoms: S_4  and  N_7
REMARK    5  A    between atoms: C_13  and  C_14
REMARK    6  A    between atoms: C_14  and  O_15
REMARK    7  A    between atoms: O_15  and  C_16
REMARK                            x       y       z     vdW  Elec       q    Type
REMARK                         _______ _______ _______ _____ _____    ______ ____
ROOT
ATOM      1  N   UNL     1       3.529   4.280  17.160  0.00  0.00    +0.000 NA
ATOM      2  C   UNL     1       2.888   3.027  17.516  0.00  0.00    +0.000 C 
ATOM      3  C   UNL     1       1.955   3.444  18.622  0.00  0.00    +0.000 C 
ATOM      4  C   UNL     1       1.695   2.268  19.554  0.00  0.00    +0.000 C 
ATOM      5  C   UNL     1       1.176   2.953  20.782  0.00  0.00    +0.000 C 
ATOM      6  C   UNL     1       1.170   4.423  20.369  0.00  0.00    +0.000 C 
ATOM      7  C   UNL     1       2.554   4.631  19.501  0.00  0.00    +0.000 C 
ATOM      8  C   UNL     1       2.865   5.320  18.023  0.00  0.00    +0.000 C 
ENDROOT
BRANCH   1   9
ATOM      9  S   UNL     1       5.227   4.207  17.178  0.00  0.00    +0.000 S 
ATOM     10  O   UNL     1       5.670   3.392  16.072  0.00  0.00    +0.000 OA
ATOM     11  O   UNL     1       5.636   3.940  18.538  0.00  0.00    +0.000 OA
BRANCH   9  13
ATOM     12  C   UNL     1       6.380   6.594  17.734  0.00  0.00    +0.000 C 
ATOM     13  N   UNL     1       5.617   5.775  16.805  0.00  0.00    +0.000 NA
ATOM     14  C   UNL     1       5.276   6.328  15.504  0.00  0.00    +0.000 C 
ENDBRANCH   9  13
ENDBRANCH   1   9
BRANCH   7  15
ATOM     15  C   UNL     1       2.744   6.059  20.155  0.00  0.00    +0.000 C 
BRANCH  15  16
ATOM     16  O   UNL     1       2.263   7.080  19.242  0.00  0.00    +0.000 OA
BRANCH  16  17
ATOM     17  C   UNL     1       1.671   8.147  19.860  0.00  0.00    +0.000 A 
ATOM     18  C   UNL     1       1.289   8.168  21.197  0.00  0.00    +0.000 A 
ATOM     19  C   UNL     1       0.661   9.302  21.712  0.00  0.00    +0.000 A 
ATOM     20  C   UNL     1       0.431  10.373  20.863  0.00  0.00    +0.000 A 
ATOM     21  N   UNL     1       0.779  10.383  19.559  0.00  0.00    +0.000 NA
ATOM     22  C   UNL     1       1.378   9.264  19.086  0.00  0.00    +0.000 A 
ENDBRANCH  16  17
ENDBRANCH  15  16
ENDBRANCH   7  15
TORSDOF 5
ENDMDL
MODEL 6
REMARK VINA RESULT:      -6.9      2.065      4.030
REMARK  Name = 
REMARK  7 active torsions:
REMARK  status: ('A' for Active; 'I' for Inactive)
REMARK    1  A    between atoms: C_1  and  N_2
REMARK    2  A    between atoms: N_2  and  C_3
REMARK    3  A    between atoms: N_2  and  S_4
REMARK    4  A    between atoms: S_4  and  N_7
REMARK    5  A    between atoms: C_13  and  C_14
REMARK    6  A    between atoms: C_14  and  O_15
REMARK    7  A    between atoms: O_15  and  C_16
REMARK                            x       y       z     vdW  Elec       q    Type
REMARK                         _______ _______ _______ _____ _____    ______ ____
ROOT
ATOM      1  N   UNL     1       3.612   4.212  17.131  0.00  0.00    +0.000 NA
ATOM      2  C   UNL     1       3.051   2.928  17.507  0.00  0.00    +0.000 C 
ATOM      3  C   UNL     1       2.042   3.310  18.559  0.00  0.00    +0.000 C 
ATOM      4  C   UNL     1       1.830   2.150  19.522  0.00  0.00    +0.000 C 
ATOM      5  C   UNL     1       1.211   2.835  20.702  0.00  0.00    +0.000 C 
ATOM      6  C   UNL     1       1.113   4.285  20.235  0.00  0.00    +0.000 C 
ATOM      7  C   UNL     1       2.514   4.568  19.417  0.00  0.00    +0.000 C 
ATOM      8  C   UNL     1       2.837   5.228  17.928  0.00  0.00    +0.000 C 
ENDROOT
BRANCH   1   9
ATOM      9  S   UNL     1       5.308   4.269  17.221  0.00  0.00    +0.000 S 
ATOM     10  O   UNL     1       5.858   3.490  16.136  0.00  0.00    +0.000 OA
ATOM     11  O   UNL     1       5.679   4.033  18.597  0.00  0.00    +0.000 OA
BRANCH   9  13
ATOM     12  C   UNL     1       6.397   6.693  17.742  0.00  0.00    +0.000 C 
ATOM     13  N   UNL     1       5.593   5.862  16.860  0.00  0.00    +0.000 NA
ATOM     14  C   UNL     1       5.115   6.429  15.609  0.00  0.00    +0.000 C 
ENDBRANCH   9  13
ENDBRANCH   1   9
BRANCH   7  15
ATOM     15  C   UNL     1       2.569   6.027  20.025  0.00  0.00    +0.000 C 
BRANCH  15  16
ATOM     16  O   UNL     1       2.729   6.995  18.954  0.00  0.00    +0.000 OA
BRANCH  16  17
ATOM     17  C   UNL     1       1.975   8.125  19.106  0.00  0.00    +0.000 A 
ATOM     18  C   UNL     1       1.704   9.032  18.087  0.00  0.00    +0.000 A 
ATOM     19  C   UNL     1       0.949  10.171  18.366  0.00  0.00    +0.000 A 
ATOM     20  C   UNL     1       0.499  10.363  19.663  0.00  0.00    +0.000 A 
ATOM     21  N   UNL     1       0.751   9.511  20.677  0.00  0.00    +0.000 NA
ATOM     22  C   UNL     1       1.496   8.419  20.377  0.00  0.00    +0.000 A 
ENDBRANCH  16  17
ENDBRANCH  15  16
ENDBRANCH   7  15
TORSDOF 5
ENDMDL
MODEL 7
REMARK VINA RESULT:      -6.9      0.627      1.274
REMARK  Name = 
REMARK  7 active torsions:
REMARK  status: ('A' for Active; 'I' for Inactive)
REMARK    1  A    between atoms: C_1  and  N_2
REMARK    2  A    between atoms: N_2  and  C_3
REMARK    3  A    between atoms: N_2  and  S_4
REMARK    4  A    between atoms: S_4  and  N_7
REMARK    5  A    between atoms: C_13  and  C_14
REMARK    6  A    between atoms: C_14  and  O_15
REMARK    7  A    between atoms: O_15  and  C_16
REMARK                            x       y       z     vdW  Elec       q    Type
REMARK                         _______ _______ _______ _____ _____    ______ ____
ROOT
ATOM      1  N   UNL     1       3.794   3.486  18.551  0.00  0.00    +0.000 NA
ATOM      2  C   UNL     1       4.494   2.988  17.381  0.00  0.00    +0.000 C 
ATOM      3  C   UNL     1       5.172   4.227  16.857  0.00  0.00    +0.000 C 
ATOM      4  C   UNL     1       5.391   4.103  15.355  0.00  0.00    +0.000 C 
ATOM      5  C   UNL     1       5.612   5.530  14.955  0.00  0.00    +0.000 C 
ATOM      6  C   UNL     1       5.532   6.269  16.288  0.00  0.00    +0.000 C 
ATOM      7  C   UNL     1       4.305   5.540  17.110  0.00  0.00    +0.000 C 
ATOM      8  C   UNL     1       4.182   4.937  18.652  0.00  0.00    +0.000 C 
ENDROOT
BRANCH   1   9
ATOM      9  S   UNL     1       2.136   3.112  18.565  0.00  0.00    +0.000 S 
ATOM     10  O   UNL     1       1.980   1.684  18.421  0.00  0.00    +0.000 OA
ATOM     11  O   UNL     1       1.471   4.046  17.686  0.00  0.00    +0.000 OA
BRANCH   9  13
ATOM     12  C   UNL     1       2.388   2.807  21.244  0.00  0.00    +0.000 C 
ATOM     13  N   UNL     1       1.739   3.482  20.131  0.00  0.00    +0.000 NA
ATOM     14  C   UNL     1       0.796   4.552  20.417  0.00  0.00    +0.000 C 
ENDBRANCH   9  13
ENDBRANCH   1   9
BRANCH   7  15
ATOM     15  C   UNL     1       3.853   6.948  17.673  0.00  0.00    +0.000 C 
BRANCH  15  16
ATOM     16  O   UNL     1       2.962   6.756  18.803  0.00  0.00    +0.000 OA
BRANCH  16  17
ATOM     17  C   UNL     1       2.174   7.838  19.083  0.00  0.00    +0.000 A 
ATOM     18  C   UNL     1       1.622   8.107  20.331  0.00  0.00    +0.000 A 
ATOM     19  C   UNL     1       0.805   9.226  20.491  0.00  0.00    +0.000 A 
ATOM     20  C   UNL     1       0.563  10.031  19.389  0.00  0.00    +0.000 A 
ATOM     21  N   UNL     1       1.073   9.795  18.163  0.00  0.00    +0.000 NA
ATOM     22  C   UNL     1       1.856   8.696  18.036  0.00  0.00    +0.000 A 
ENDBRANCH  16  17
ENDBRANCH  15  16
ENDBRANCH   7  15
TORSDOF 5
ENDMDL
MODEL 8
REMARK VINA RESULT:      -6.9      2.093      4.321
REMARK  Name = 
REMARK  7 active torsions:
REMARK  status: ('A' for Active; 'I' for Inactive)
REMARK    1  A    between atoms: C_1  and  N_2
REMARK    2  A    between atoms: N_2  and  C_3
REMARK    3  A    between atoms: N_2  and  S_4
REMARK    4  A    between atoms: S_4  and  N_7
REMARK    5  A    between atoms: C_13  and  C_14
REMARK    6  A    between atoms: C_14  and  O_15
REMARK    7  A    between atoms: O_15  and  C_16
REMARK                            x       y       z     vdW  Elec       q    Type
REMARK                         _______ _______ _______ _____ _____    ______ ____
ROOT
ATOM      1  N   UNL     1       4.314   3.767  18.091  0.00  0.00    +0.000 NA
ATOM      2  C   UNL     1       4.373   2.734  19.110  0.00  0.00    +0.000 C 
ATOM      3  C   UNL     1       3.014   2.835  19.752  0.00  0.00    +0.000 C 
ATOM      4  C   UNL     1       3.083   2.351  21.194  0.00  0.00    +0.000 C 
ATOM      5  C   UNL     1       1.839   2.945  21.781  0.00  0.00    +0.000 C 
ATOM      6  C   UNL     1       1.207   3.651  20.584  0.00  0.00    +0.000 C 
ATOM      7  C   UNL     1       2.467   4.332  19.772  0.00  0.00    +0.000 C 
ATOM      8  C   UNL     1       2.917   4.321  18.174  0.00  0.00    +0.000 C 
ENDROOT
BRANCH   1   9
ATOM      9  S   UNL     1       5.604   4.870  18.165  0.00  0.00    +0.000 S 
ATOM     10  O   UNL     1       6.783   4.179  18.632  0.00  0.00    +0.000 OA
ATOM     11  O   UNL     1       5.116   6.069  18.807  0.00  0.00    +0.000 OA
BRANCH   9  13
ATOM     12  C   UNL     1       6.632   4.292  15.726  0.00  0.00    +0.000 C 
ATOM     13  N   UNL     1       5.843   5.190  16.556  0.00  0.00    +0.000 NA
ATOM     14  C   UNL     1       5.192   6.330  15.929  0.00  0.00    +0.000 C 
ENDBRANCH   9  13
ENDBRANCH   1   9
BRANCH   7  15
ATOM     15  C   UNL     1       1.576   5.603  19.465  0.00  0.00    +0.000 C 
BRANCH  15  16
ATOM     16  O   UNL     1       2.099   6.749  20.187  0.00  0.00    +0.000 OA
BRANCH  16  17
ATOM     17  C   UNL     1       1.830   7.952  19.594  0.00  0.00    +0.000 A 
ATOM     18  C   UNL     1       2.200   8.288  18.296  0.00  0.00    +0.000 A 
ATOM     19  C   UNL     1       1.901   9.559  17.806  0.00  0.00    +0.000 A 
ATOM     20  C   UNL     1       1.247  10.452  18.641  0.00  0.00    +0.000 A 
ATOM     21  N   UNL     1       0.883  10.163  19.907  0.00  0.00    +0.000 NA
ATOM     22  C   UNL     1       1.195   8.924  20.358  0.00  0.00    +0.000 A 
ENDBRANCH  16  17
ENDBRANCH  15  16
ENDBRANCH   7  15
TORSDOF 5
ENDMDL
MODEL 9
REMARK VINA RESULT:      -6.9      2.164      4.256
REMARK  Name = 
REMARK  7 active torsions:
REMARK  status: ('A' for Active; 'I' for Inactive)
REMARK    1  A    between atoms: C_1  and  N_2
REMARK    2  A    between atoms: N_2  and  C_3
REMARK    3  A    between atoms: N_2  and  S_4
REMARK    4  A    between atoms: S_4  and  N_7
REMARK    5  A    between atoms: C_13  and  C_14
REMARK    6  A    between atoms: C_14  and  O_15
REMARK    7  A    between atoms: O_15  and  C_16
REMARK                            x       y       z     vdW  Elec       q    Type
REMARK                         _______ _______ _______ _____ _____    ______ ____
ROOT
ATOM      1  N   UNL     1       3.808   4.819  17.748  0.00  0.00    +0.000 NA
ATOM      2  C   UNL     1       3.986   3.514  18.358  0.00  0.00    +0.000 C 
ATOM      3  C   UNL     1       2.857   3.466  19.354  0.00  0.00    +0.000 C 
ATOM      4  C   UNL     1       3.223   2.545  20.510  0.00  0.00    +0.000 C 
ATOM      5  C   UNL     1       2.254   2.976  21.569  0.00  0.00    +0.000 C 
ATOM      6  C   UNL     1       1.439   4.054  20.860  0.00  0.00    +0.000 C 
ATOM      7  C   UNL     1       2.532   4.901  19.966  0.00  0.00    +0.000 C 
ATOM      8  C   UNL     1       2.561   5.380  18.377  0.00  0.00    +0.000 C 
ENDROOT
BRANCH   1   9
ATOM      9  S   UNL     1       5.208   5.782  17.780  0.00  0.00    +0.000 S 
ATOM     10  O   UNL     1       5.892   5.570  19.034  0.00  0.00    +0.000 OA
ATOM     11  O   UNL     1       4.838   7.103  17.325  0.00  0.00    +0.000 OA
BRANCH   9  13
ATOM     12  C   UNL     1       7.426   4.487  16.920  0.00  0.00    +0.000 C 
ATOM     13  N   UNL     1       6.123   5.054  16.605  0.00  0.00    +0.000 NA
ATOM     14  C   UNL     1       5.599   4.894  15.258  0.00  0.00    +0.000 C 
ENDBRANCH   9  13
ENDBRANCH   1   9
BRANCH   7  15
ATOM     15  C   UNL     1       1.766   6.242  20.309  0.00  0.00    +0.000 C 
BRANCH  15  16
ATOM     16  O   UNL     1       2.291   7.324  19.495  0.00  0.00    +0.000 OA
BRANCH  16  17
ATOM     17  C   UNL     1       1.595   8.496  19.609  0.00  0.00    +0.000 A 
ATOM     18  C   UNL     1       1.453   9.427  18.586  0.00  0.00    +0.000 A 
ATOM     19  C   UNL     1       0.747  10.606  18.826  0.00  0.00    +0.000 A 
ATOM     20  C   UNL     1       0.216  10.812  20.089  0.00  0.00    +0.000 A 
ATOM     21  N   UNL     1       0.343   9.935  21.107  0.00  0.00    +0.000 NA
ATOM     22  C   UNL     1       1.041   8.804  20.846  0.00  0.00    +0.000 A 
ENDBRANCH  16  17
ENDBRANCH  15  16
ENDBRANCH   7  15
TORSDOF 5
ENDMDL
