MODEL 1
REMARK VINA RESULT:      -7.7      0.000      0.000
REMARK  Name = 
REMARK  5 active torsions:
REMARK  status: ('A' for Active; 'I' for Inactive)
REMARK    1  A    between atoms: C_1  and  N_2
REMARK    2  A    between atoms: N_2  and  C_24
REMARK    3  A    between atoms: C_3  and  C_5
REMARK    4  A    between atoms: N_7  and  C_8
REMARK    5  A    between atoms: C_15  and  C_16
REMARK                            x       y       z     vdW  Elec       q    Type
REMARK                         _______ _______ _______ _____ _____    ______ ____
ROOT
ATOM      1  C   UNL     1       0.793   9.834  18.546  0.00  0.00    +0.000 A 
ATOM      2  C   UNL     1      -0.565   9.748  18.322  0.00  0.00    +0.000 A 
ATOM      3  N   UNL     1      -1.077  11.021  18.481  0.00  0.00    +0.000 N 
ATOM      4  C   UNL     1      -0.020  11.811  18.960  0.00  0.00    +0.000 A 
ATOM      5  N   UNL     1       1.091  11.094  19.002  0.00  0.00    +0.000 NA
ENDROOT
BRANCH   3   6
ATOM      6  C   UNL     1      -2.433  11.390  18.213  0.00  0.00    +0.000 A 
ATOM      7  C   UNL     1      -2.972  11.198  16.932  0.00  0.00    +0.000 A 
ATOM      8  C   UNL     1      -4.329  11.452  16.700  0.00  0.00    +0.000 A 
ATOM      9  C   UNL     1      -5.141  11.913  17.735  0.00  0.00    +0.000 A 
ATOM     10 CL   UNL     1      -6.820  12.167  17.464  0.00  0.00    +0.000 Cl
ATOM     11  C   UNL     1      -4.599  12.164  18.992  0.00  0.00    +0.000 A 
ATOM     12  C   UNL     1      -3.242  11.921  19.227  0.00  0.00    +0.000 A 
ENDBRANCH   3   6
BRANCH   4  13
ATOM     13  C   UNL     1      -0.081  13.200  19.458  0.00  0.00    +0.000 A 
ATOM     14  C   UNL     1      -0.018  14.280  18.558  0.00  0.00    +0.000 A 
ATOM     15  C   UNL     1      -0.025  15.604  19.003  0.00  0.00    +0.000 A 
ATOM     16  C   UNL     1      -0.176  15.882  20.356  0.00  0.00    +0.000 A 
ATOM     17  C   UNL     1      -0.313  14.832  21.259  0.00  0.00    +0.000 A 
ATOM     18  C   UNL     1      -0.254  13.503  20.824  0.00  0.00    +0.000 A 
ATOM     19 CL   UNL     1      -0.378  12.303  22.067  0.00  0.00    +0.000 Cl
ENDBRANCH   4  13
BRANCH   1  22
ATOM     20  C   UNL     1       1.348   7.991  20.761  0.00  0.00    +0.000 C 
ATOM     21  N   UNL     1       1.967   7.829  19.452  0.00  0.00    +0.000 N 
ATOM     22  C   UNL     1       1.774   8.746  18.390  0.00  0.00    +0.000 C 
ATOM     23  O   UNL     1       2.424   8.672  17.347  0.00  0.00    +0.000 OA
BRANCH  21  24
ATOM     24  C   UNL     1       2.860   6.669  19.209  0.00  0.00    +0.000 C 
ATOM     25  C   UNL     1       2.842   5.658  20.373  0.00  0.00    +0.000 C 
ATOM     26  C   UNL     1       1.612   4.760  20.346  0.00  0.00    +0.000 C 
ATOM     27  C   UNL     1       1.551   3.967  19.048  0.00  0.00    +0.000 C 
ATOM     28  C   UNL     1       1.569   4.872  17.822  0.00  0.00    +0.000 C 
ATOM     29  C   UNL     1       2.685   5.924  17.863  0.00  0.00    +0.000 C 
ENDBRANCH  21  24
ENDBRANCH   1  22
TORSDOF 4
ENDMDL
MODEL 2
REMARK VINA RESULT:      -7.6      3.512      9.219
REMARK  Name = 
REMARK  5 active torsions:
REMARK  status: ('A' for Active; 'I' for Inactive)
REMARK    1  A    between atoms: C_1  and  N_2
REMARK    2  A    between atoms: N_2  and  C_24
REMARK    3  A    between atoms: C_3  and  C_5
REMARK    4  A    between atoms: N_7  and  C_8
REMARK    5  A    between atoms: C_15  and  C_16
REMARK                            x       y       z     vdW  Elec       q    Type
REMARK                         _______ _______ _______ _____ _____    ______ ____
ROOT
ATOM      1  C   UNL     1       1.559   8.110  20.352  0.00  0.00    +0.000 A 
ATOM      2  C   UNL     1       2.721   8.074  19.609  0.00  0.00    +0.000 A 
ATOM      3  N   UNL     1       2.962   6.747  19.310  0.00  0.00    +0.000 N 
ATOM      4  C   UNL     1       2.012   6.005  20.028  0.00  0.00    +0.000 A 
ATOM      5  N   UNL     1       1.182   6.825  20.652  0.00  0.00    +0.000 NA
ENDROOT
BRANCH   3   6
ATOM      6  C   UNL     1       4.005   6.286  18.446  0.00  0.00    +0.000 A 
ATOM      7  C   UNL     1       4.934   5.343  18.910  0.00  0.00    +0.000 A 
ATOM      8  C   UNL     1       5.884   4.807  18.031  0.00  0.00    +0.000 A 
ATOM      9  C   UNL     1       5.919   5.223  16.701  0.00  0.00    +0.000 A 
ATOM     10 CL   UNL     1       7.046   4.520  15.609  0.00  0.00    +0.000 Cl
ATOM     11  C   UNL     1       5.039   6.203  16.250  0.00  0.00    +0.000 A 
ATOM     12  C   UNL     1       4.095   6.748  17.126  0.00  0.00    +0.000 A 
ENDBRANCH   3   6
BRANCH   4  13
ATOM     13  C   UNL     1       1.945   4.539  20.195  0.00  0.00    +0.000 A 
ATOM     14  C   UNL     1       2.151   3.958  21.460  0.00  0.00    +0.000 A 
ATOM     15  C   UNL     1       2.142   2.573  21.640  0.00  0.00    +0.000 A 
ATOM     16  C   UNL     1       1.845   1.736  20.570  0.00  0.00    +0.000 A 
ATOM     17  C   UNL     1       1.566   2.289  19.325  0.00  0.00    +0.000 A 
ATOM     18  C   UNL     1       1.626   3.674  19.129  0.00  0.00    +0.000 A 
ATOM     19 CL   UNL     1       1.314   4.214  17.512  0.00  0.00    +0.000 Cl
ENDBRANCH   4  13
BRANCH   1  22
ATOM     20  C   UNL     1       0.402   9.995  18.423  0.00  0.00    +0.000 C 
ATOM     21  N   UNL     1       0.245  10.172  19.861  0.00  0.00    +0.000 N 
ATOM     22  C   UNL     1       0.855   9.319  20.813  0.00  0.00    +0.000 C 
ATOM     23  O   UNL     1       0.834   9.576  22.017  0.00  0.00    +0.000 OA
BRANCH  21  24
ATOM     24  C   UNL     1      -0.569  11.303  20.368  0.00  0.00    +0.000 C 
ATOM     25  C   UNL     1       0.299  12.460  20.902  0.00  0.00    +0.000 C 
ATOM     26  C   UNL     1       0.868  13.325  19.787  0.00  0.00    +0.000 C 
ATOM     27  C   UNL     1      -0.250  13.938  18.954  0.00  0.00    +0.000 C 
ATOM     28  C   UNL     1      -1.179  12.878  18.375  0.00  0.00    +0.000 C 
ATOM     29  C   UNL     1      -1.658  11.859  19.418  0.00  0.00    +0.000 C 
ENDBRANCH  21  24
ENDBRANCH   1  22
TORSDOF 4
ENDMDL
MODEL 3
REMARK VINA RESULT:      -7.6      1.350      4.008
REMARK  Name = 
REMARK  5 active torsions:
REMARK  status: ('A' for Active; 'I' for Inactive)
REMARK    1  A    between atoms: C_1  and  N_2
REMARK    2  A    between atoms: N_2  and  C_24
REMARK    3  A    between atoms: C_3  and  C_5
REMARK    4  A    between atoms: N_7  and  C_8
REMARK    5  A    between atoms: C_15  and  C_16
REMARK                            x       y       z     vdW  Elec       q    Type
REMARK                         _______ _______ _______ _____ _____    ______ ____
ROOT
ATOM      1  C   UNL     1       1.229   9.505  18.472  0.00  0.00    +0.000 A 
ATOM      2  C   UNL     1       1.613  10.800  18.756  0.00  0.00    +0.000 A 
ATOM      3  N   UNL     1       0.460  11.559  18.787  0.00  0.00    +0.000 N 
ATOM      4  C   UNL     1      -0.577  10.716  18.357  0.00  0.00    +0.000 A 
ATOM      5  N   UNL     1      -0.109   9.494  18.165  0.00  0.00    +0.000 NA
ENDROOT
BRANCH   3   6
ATOM      6  C   UNL     1       0.404  12.936  19.172  0.00  0.00    +0.000 A 
ATOM      7  C   UNL     1       0.992  13.352  20.375  0.00  0.00    +0.000 A 
ATOM      8  C   UNL     1       1.038  14.714  20.696  0.00  0.00    +0.000 A 
ATOM      9  C   UNL     1       0.485  15.656  19.830  0.00  0.00    +0.000 A 
ATOM     10 CL   UNL     1       0.596  17.333  20.196  0.00  0.00    +0.000 Cl
ATOM     11  C   UNL     1      -0.153  15.244  18.663  0.00  0.00    +0.000 A 
ATOM     12  C   UNL     1      -0.210  13.885  18.343  0.00  0.00    +0.000 A 
ENDBRANCH   3   6
BRANCH   4  13
ATOM     13  C   UNL     1      -1.973  11.083  18.044  0.00  0.00    +0.000 A 
ATOM     14  C   UNL     1      -2.507  10.819  16.769  0.00  0.00    +0.000 A 
ATOM     15  C   UNL     1      -3.808  11.199  16.429  0.00  0.00    +0.000 A 
ATOM     16  C   UNL     1      -4.635  11.780  17.383  0.00  0.00    +0.000 A 
ATOM     17  C   UNL     1      -4.153  11.985  18.673  0.00  0.00    +0.000 A 
ATOM     18  C   UNL     1      -2.834  11.654  19.003  0.00  0.00    +0.000 A 
ATOM     19 CL   UNL     1      -2.355  12.023  20.627  0.00  0.00    +0.000 Cl
ENDBRANCH   4  13
BRANCH   1  22
ATOM     20  C   UNL     1       1.384   7.686  20.770  0.00  0.00    +0.000 C 
ATOM     21  N   UNL     1       2.106   7.425  19.531  0.00  0.00    +0.000 N 
ATOM     22  C   UNL     1       2.107   8.323  18.436  0.00  0.00    +0.000 C 
ATOM     23  O   UNL     1       2.843   8.154  17.464  0.00  0.00    +0.000 OA
BRANCH  21  24
ATOM     24  C   UNL     1       2.898   6.177  19.402  0.00  0.00    +0.000 C 
ATOM     25  C   UNL     1       2.589   5.164  20.522  0.00  0.00    +0.000 C 
ATOM     26  C   UNL     1       1.292   4.406  20.282  0.00  0.00    +0.000 C 
ATOM     27  C   UNL     1       1.353   3.634  18.970  0.00  0.00    +0.000 C 
ATOM     28  C   UNL     1       1.659   4.542  17.785  0.00  0.00    +0.000 C 
ATOM     29  C   UNL     1       2.860   5.466  18.027  0.00  0.00    +0.000 C 
ENDBRANCH  21  24
ENDBRANCH   1  22
TORSDOF 4
ENDMDL
MODEL 4
REMARK VINA RESULT:      -7.5      1.483      4.051
REMARK  Name = 
REMARK  5 active torsions:
REMARK  status: ('A' for Active; 'I' for Inactive)
REMARK    1  A    between atoms: C_1  and  N_2
REMARK    2  A    between atoms: N_2  and  C_24
REMARK    3  A    between atoms: C_3  and  C_5
REMARK    4  A    between atoms: N_7  and  C_8
REMARK    5  A    between atoms: C_15  and  C_16
REMARK                            x       y       z     vdW  Elec       q    Type
REMARK                         _______ _______ _______ _____ _____    ______ ____
ROOT
ATOM      1  C   UNL     1       0.985   9.824  18.532  0.00  0.00    +0.000 A 
ATOM      2  C   UNL     1       1.354  11.123  18.814  0.00  0.00    +0.000 A 
ATOM      3  N   UNL     1       0.186  11.841  18.982  0.00  0.00    +0.000 N 
ATOM      4  C   UNL     1      -0.861  10.974  18.634  0.00  0.00    +0.000 A 
ATOM      5  N   UNL     1      -0.376   9.774  18.360  0.00  0.00    +0.000 NA
ENDROOT
BRANCH   3   6
ATOM      6  C   UNL     1       0.126  13.205  19.411  0.00  0.00    +0.000 A 
ATOM      7  C   UNL     1      -0.082  14.226  18.473  0.00  0.00    +0.000 A 
ATOM      8  C   UNL     1      -0.255  15.547  18.906  0.00  0.00    +0.000 A 
ATOM      9  C   UNL     1      -0.202  15.850  20.265  0.00  0.00    +0.000 A 
ATOM     10 CL   UNL     1      -0.475  17.462  20.798  0.00  0.00    +0.000 Cl
ATOM     11  C   UNL     1       0.064  14.850  21.196  0.00  0.00    +0.000 A 
ATOM     12  C   UNL     1       0.246  13.532  20.769  0.00  0.00    +0.000 A 
ENDBRANCH   3   6
BRANCH   4  13
ATOM     13  C   UNL     1      -2.293  11.300  18.473  0.00  0.00    +0.000 A 
ATOM     14  C   UNL     1      -2.976  12.011  19.477  0.00  0.00    +0.000 A 
ATOM     15  C   UNL     1      -4.341  12.292  19.375  0.00  0.00    +0.000 A 
ATOM     16  C   UNL     1      -5.038  11.938  18.226  0.00  0.00    +0.000 A 
ATOM     17  C   UNL     1      -4.368  11.299  17.187  0.00  0.00    +0.000 A 
ATOM     18  C   UNL     1      -3.013  10.969  17.308  0.00  0.00    +0.000 A 
ATOM     19 CL   UNL     1      -2.329  10.121  15.961  0.00  0.00    +0.000 Cl
ENDBRANCH   4  13
BRANCH   1  22
ATOM     20  C   UNL     1       1.468   7.980  20.763  0.00  0.00    +0.000 C 
ATOM     21  N   UNL     1       2.049   7.761  19.445  0.00  0.00    +0.000 N 
ATOM     22  C   UNL     1       1.892   8.674  18.373  0.00  0.00    +0.000 C 
ATOM     23  O   UNL     1       2.515   8.545  17.319  0.00  0.00    +0.000 OA
BRANCH  21  24
ATOM     24  C   UNL     1       2.862   6.545  19.203  0.00  0.00    +0.000 C 
ATOM     25  C   UNL     1       2.780   5.539  20.369  0.00  0.00    +0.000 C 
ATOM     26  C   UNL     1       1.494   4.725  20.349  0.00  0.00    +0.000 C 
ATOM     27  C   UNL     1       1.376   3.935  19.052  0.00  0.00    +0.000 C 
ATOM     28  C   UNL     1       1.449   4.833  17.824  0.00  0.00    +0.000 C 
ATOM     29  C   UNL     1       2.633   5.809  17.859  0.00  0.00    +0.000 C 
ENDBRANCH  21  24
ENDBRANCH   1  22
TORSDOF 4
ENDMDL
MODEL 5
REMARK VINA RESULT:      -7.5      2.774      7.820
REMARK  Name = 
REMARK  5 active torsions:
REMARK  status: ('A' for Active; 'I' for Inactive)
REMARK    1  A    between atoms: C_1  and  N_2
REMARK    2  A    between atoms: N_2  and  C_24
REMARK    3  A    between atoms: C_3  and  C_5
REMARK    4  A    between atoms: N_7  and  C_8
REMARK    5  A    between atoms: C_15  and  C_16
REMARK                            x       y       z     vdW  Elec       q    Type
REMARK                         _______ _______ _______ _____ _____    ______ ____
ROOT
ATOM      1  C   UNL     1      -2.160  11.345  17.784  0.00  0.00    +0.000 A 
ATOM      2  C   UNL     1      -1.397  12.374  18.296  0.00  0.00    +0.000 A 
ATOM      3  N   UNL     1      -0.166  11.837  18.618  0.00  0.00    +0.000 N 
ATOM      4  C   UNL     1      -0.285  10.450  18.435  0.00  0.00    +0.000 A 
ATOM      5  N   UNL     1      -1.479  10.164  17.943  0.00  0.00    +0.000 NA
ENDROOT
BRANCH   3   6
ATOM      6  C   UNL     1       0.961  12.597  19.063  0.00  0.00    +0.000 A 
ATOM      7  C   UNL     1       1.987  12.922  18.163  0.00  0.00    +0.000 A 
ATOM      8  C   UNL     1       3.032  13.762  18.570  0.00  0.00    +0.000 A 
ATOM      9  C   UNL     1       3.063  14.260  19.871  0.00  0.00    +0.000 A 
ATOM     10 CL   UNL     1       4.313  15.339  20.350  0.00  0.00    +0.000 Cl
ATOM     11  C   UNL     1       2.080  13.892  20.785  0.00  0.00    +0.000 A 
ATOM     12  C   UNL     1       1.040  13.047  20.388  0.00  0.00    +0.000 A 
ENDBRANCH   3   6
BRANCH   4  13
ATOM     13  C   UNL     1       0.686   9.401  18.807  0.00  0.00    +0.000 A 
ATOM     14  C   UNL     1       1.562   8.870  17.841  0.00  0.00    +0.000 A 
ATOM     15  C   UNL     1       2.458   7.844  18.152  0.00  0.00    +0.000 A 
ATOM     16  C   UNL     1       2.555   7.378  19.458  0.00  0.00    +0.000 A 
ATOM     17  C   UNL     1       1.751   7.938  20.446  0.00  0.00    +0.000 A 
ATOM     18  C   UNL     1       0.816   8.930  20.129  0.00  0.00    +0.000 A 
ATOM     19 CL   UNL     1      -0.158   9.488  21.449  0.00  0.00    +0.000 Cl
ENDBRANCH   4  13
BRANCH   1  22
ATOM     20  C   UNL     1      -4.445  12.056  19.483  0.00  0.00    +0.000 C 
ATOM     21  N   UNL     1      -4.582  11.878  18.043  0.00  0.00    +0.000 N 
ATOM     22  C   UNL     1      -3.512  11.462  17.213  0.00  0.00    +0.000 C 
ATOM     23  O   UNL     1      -3.689  11.173  16.029  0.00  0.00    +0.000 OA
BRANCH  21  24
ATOM     24  C   UNL     1      -5.900  12.115  17.405  0.00  0.00    +0.000 C 
ATOM     25  C   UNL     1      -7.059  11.462  18.184  0.00  0.00    +0.000 C 
ATOM     26  C   UNL     1      -7.467  12.269  19.408  0.00  0.00    +0.000 C 
ATOM     27  C   UNL     1      -7.916  13.668  19.007  0.00  0.00    +0.000 C 
ATOM     28  C   UNL     1      -6.842  14.411  18.221  0.00  0.00    +0.000 C 
ATOM     29  C   UNL     1      -6.256  13.584  17.068  0.00  0.00    +0.000 C 
ENDBRANCH  21  24
ENDBRANCH   1  22
TORSDOF 4
ENDMDL
MODEL 6
REMARK VINA RESULT:      -7.4      2.660      7.383
REMARK  Name = 
REMARK  5 active torsions:
REMARK  status: ('A' for Active; 'I' for Inactive)
REMARK    1  A    between atoms: C_1  and  N_2
REMARK    2  A    between atoms: N_2  and  C_24
REMARK    3  A    between atoms: C_3  and  C_5
REMARK    4  A    between atoms: N_7  and  C_8
REMARK    5  A    between atoms: C_15  and  C_16
REMARK                            x       y       z     vdW  Elec       q    Type
REMARK                         _______ _______ _______ _____ _____    ______ ____
ROOT
ATOM      1  C   UNL     1      -2.271  11.335  17.753  0.00  0.00    +0.000 A 
ATOM      2  C   UNL     1      -1.531  10.171  17.750  0.00  0.00    +0.000 A 
ATOM      3  N   UNL     1      -0.347  10.450  18.404  0.00  0.00    +0.000 N 
ATOM      4  C   UNL     1      -0.347  11.833  18.641  0.00  0.00    +0.000 A 
ATOM      5  N   UNL     1      -1.495  12.356  18.245  0.00  0.00    +0.000 NA
ENDROOT
BRANCH   3   6
ATOM      6  C   UNL     1       0.650   9.476  18.728  0.00  0.00    +0.000 A 
ATOM      7  C   UNL     1       0.769   9.006  20.044  0.00  0.00    +0.000 A 
ATOM      8  C   UNL     1       1.666   7.971  20.337  0.00  0.00    +0.000 A 
ATOM      9  C   UNL     1       2.454   7.421  19.328  0.00  0.00    +0.000 A 
ATOM     10 CL   UNL     1       3.511   6.110  19.677  0.00  0.00    +0.000 Cl
ATOM     11  C   UNL     1       2.384   7.925  18.032  0.00  0.00    +0.000 A 
ATOM     12  C   UNL     1       1.497   8.964  17.736  0.00  0.00    +0.000 A 
ENDBRANCH   3   6
BRANCH   4  13
ATOM     13  C   UNL     1       0.762  12.664  19.153  0.00  0.00    +0.000 A 
ATOM     14  C   UNL     1       1.709  13.209  18.266  0.00  0.00    +0.000 A 
ATOM     15  C   UNL     1       2.795  13.959  18.725  0.00  0.00    +0.000 A 
ATOM     16  C   UNL     1       2.915  14.250  20.079  0.00  0.00    +0.000 A 
ATOM     17  C   UNL     1       1.952  13.783  20.968  0.00  0.00    +0.000 A 
ATOM     18  C   UNL     1       0.891  12.988  20.519  0.00  0.00    +0.000 A 
ATOM     19 CL   UNL     1      -0.196  12.429  21.747  0.00  0.00    +0.000 Cl
ENDBRANCH   4  13
BRANCH   1  22
ATOM     20  C   UNL     1      -4.415  12.227  19.547  0.00  0.00    +0.000 C 
ATOM     21  N   UNL     1      -4.646  11.997  18.127  0.00  0.00    +0.000 N 
ATOM     22  C   UNL     1      -3.649  11.495  17.256  0.00  0.00    +0.000 C 
ATOM     23  O   UNL     1      -3.908  11.166  16.098  0.00  0.00    +0.000 OA
BRANCH  21  24
ATOM     24  C   UNL     1      -5.988  12.272  17.556  0.00  0.00    +0.000 C 
ATOM     25  C   UNL     1      -7.119  11.600  18.358  0.00  0.00    +0.000 C 
ATOM     26  C   UNL     1      -7.466  12.362  19.629  0.00  0.00    +0.000 C 
ATOM     27  C   UNL     1      -7.916  13.780  19.302  0.00  0.00    +0.000 C 
ATOM     28  C   UNL     1      -6.868  14.543  18.500  0.00  0.00    +0.000 C 
ATOM     29  C   UNL     1      -6.341  13.757  17.293  0.00  0.00    +0.000 C 
ENDBRANCH  21  24
ENDBRANCH   1  22
TORSDOF 4
ENDMDL
MODEL 7
REMARK VINA RESULT:      -7.3      1.844      4.203
REMARK  Name = 
REMARK  5 active torsions:
REMARK  status: ('A' for Active; 'I' for Inactive)
REMARK    1  A    between atoms: C_1  and  N_2
REMARK    2  A    between atoms: N_2  and  C_24
REMARK    3  A    between atoms: C_3  and  C_5
REMARK    4  A    between atoms: N_7  and  C_8
REMARK    5  A    between atoms: C_15  and  C_16
REMARK                            x       y       z     vdW  Elec       q    Type
REMARK                         _______ _______ _______ _____ _____    ______ ____
ROOT
ATOM      1  C   UNL     1       1.376   9.609  18.577  0.00  0.00    +0.000 A 
ATOM      2  C   UNL     1       1.851  10.903  18.525  0.00  0.00    +0.000 A 
ATOM      3  N   UNL     1       0.776  11.734  18.773  0.00  0.00    +0.000 N 
ATOM      4  C   UNL     1      -0.358  10.906  18.808  0.00  0.00    +0.000 A 
ATOM      5  N   UNL     1       0.007   9.641  18.684  0.00  0.00    +0.000 NA
ENDROOT
BRANCH   3   6
ATOM      6  C   UNL     1       0.865  13.152  18.933  0.00  0.00    +0.000 A 
ATOM      7  C   UNL     1       1.993  13.719  19.545  0.00  0.00    +0.000 A 
ATOM      8  C   UNL     1       2.133  15.112  19.598  0.00  0.00    +0.000 A 
ATOM      9  C   UNL     1       1.145  15.935  19.060  0.00  0.00    +0.000 A 
ATOM     10 CL   UNL     1       1.346  17.643  19.072  0.00  0.00    +0.000 Cl
ATOM     11  C   UNL     1      -0.005  15.379  18.507  0.00  0.00    +0.000 A 
ATOM     12  C   UNL     1      -0.154  13.989  18.460  0.00  0.00    +0.000 A 
ENDBRANCH   3   6
BRANCH   4  13
ATOM     13  C   UNL     1      -1.776  11.315  18.867  0.00  0.00    +0.000 A 
ATOM     14  C   UNL     1      -2.262  12.034  19.975  0.00  0.00    +0.000 A 
ATOM     15  C   UNL     1      -3.609  12.392  20.080  0.00  0.00    +0.000 A 
ATOM     16  C   UNL     1      -4.486  12.109  19.040  0.00  0.00    +0.000 A 
ATOM     17  C   UNL     1      -4.014  11.462  17.902  0.00  0.00    +0.000 A 
ATOM     18  C   UNL     1      -2.678  11.056  17.815  0.00  0.00    +0.000 A 
ATOM     19 CL   UNL     1      -2.248  10.208  16.366  0.00  0.00    +0.000 Cl
ENDBRANCH   4  13
BRANCH   1  22
ATOM     20  C   UNL     1       1.549   7.738  20.831  0.00  0.00    +0.000 C 
ATOM     21  N   UNL     1       2.185   7.460  19.549  0.00  0.00    +0.000 N 
ATOM     22  C   UNL     1       2.179   8.379  18.472  0.00  0.00    +0.000 C 
ATOM     23  O   UNL     1       2.850   8.188  17.457  0.00  0.00    +0.000 OA
BRANCH  21  24
ATOM     24  C   UNL     1       2.894   6.172  19.355  0.00  0.00    +0.000 C 
ATOM     25  C   UNL     1       2.607   5.165  20.486  0.00  0.00    +0.000 C 
ATOM     26  C   UNL     1       1.255   4.483  20.331  0.00  0.00    +0.000 C 
ATOM     27  C   UNL     1       1.181   3.725  19.013  0.00  0.00    +0.000 C 
ATOM     28  C   UNL     1       1.455   4.628  17.816  0.00  0.00    +0.000 C 
ATOM     29  C   UNL     1       2.720   5.481  17.980  0.00  0.00    +0.000 C 
ENDBRANCH  21  24
ENDBRANCH   1  22
TORSDOF 4
ENDMDL
MODEL 8
REMARK VINA RESULT:      -7.2      1.039      1.507
REMARK  Name = 
REMARK  5 active torsions:
REMARK  status: ('A' for Active; 'I' for Inactive)
REMARK    1  A    between atoms: C_1  and  N_2
REMARK    2  A    between atoms: N_2  and  C_24
REMARK    3  A    between atoms: C_3  and  C_5
REMARK    4  A    between atoms: N_7  and  C_8
REMARK    5  A    between atoms: C_15  and  C_16
REMARK                            x       y       z     vdW  Elec       q    Type
REMARK                         _______ _______ _______ _____ _____    ______ ____
ROOT
ATOM      1  C   UNL     1       0.690   9.747  18.805  0.00  0.00    +0.000 A 
ATOM      2  C   UNL     1      -0.607   9.760  18.334  0.00  0.00    +0.000 A 
ATOM      3  N   UNL     1      -1.197  10.908  18.825  0.00  0.00    +0.000 N 
ATOM      4  C   UNL     1      -0.274  11.473  19.718  0.00  0.00    +0.000 A 
ATOM      5  N   UNL     1       0.848  10.771  19.706  0.00  0.00    +0.000 NA
ENDROOT
BRANCH   3   6
ATOM      6  C   UNL     1      -2.505  11.365  18.468  0.00  0.00    +0.000 A 
ATOM      7  C   UNL     1      -2.972  11.200  17.156  0.00  0.00    +0.000 A 
ATOM      8  C   UNL     1      -4.292  11.542  16.836  0.00  0.00    +0.000 A 
ATOM      9  C   UNL     1      -5.136  12.062  17.814  0.00  0.00    +0.000 A 
ATOM     10 CL   UNL     1      -6.774  12.425  17.434  0.00  0.00    +0.000 Cl
ATOM     11  C   UNL     1      -4.661  12.285  19.103  0.00  0.00    +0.000 A 
ATOM     12  C   UNL     1      -3.341  11.954  19.426  0.00  0.00    +0.000 A 
ENDBRANCH   3   6
BRANCH   4  13
ATOM     13  C   UNL     1      -0.482  12.609  20.639  0.00  0.00    +0.000 A 
ATOM     14  C   UNL     1      -0.676  12.382  22.014  0.00  0.00    +0.000 A 
ATOM     15  C   UNL     1      -0.924  13.432  22.901  0.00  0.00    +0.000 A 
ATOM     16  C   UNL     1      -0.901  14.745  22.447  0.00  0.00    +0.000 A 
ATOM     17  C   UNL     1      -0.639  15.001  21.104  0.00  0.00    +0.000 A 
ATOM     18  C   UNL     1      -0.443  13.949  20.202  0.00  0.00    +0.000 A 
ATOM     19 CL   UNL     1      -0.188  14.416  18.553  0.00  0.00    +0.000 Cl
ENDBRANCH   4  13
BRANCH   1  22
ATOM     20  C   UNL     1       1.460   7.652  20.711  0.00  0.00    +0.000 C 
ATOM     21  N   UNL     1       2.032   7.723  19.372  0.00  0.00    +0.000 N 
ATOM     22  C   UNL     1       1.733   8.765  18.461  0.00  0.00    +0.000 C 
ATOM     23  O   UNL     1       2.341   8.888  17.398  0.00  0.00    +0.000 OA
BRANCH  21  24
ATOM     24  C   UNL     1       2.989   6.677  18.935  0.00  0.00    +0.000 C 
ATOM     25  C   UNL     1       3.349   5.697  20.070  0.00  0.00    +0.000 C 
ATOM     26  C   UNL     1       2.266   4.655  20.308  0.00  0.00    +0.000 C 
ATOM     27  C   UNL     1       2.024   3.831  19.050  0.00  0.00    +0.000 C 
ATOM     28  C   UNL     1       1.661   4.703  17.854  0.00  0.00    +0.000 C 
ATOM     29  C   UNL     1       2.619   5.885  17.656  0.00  0.00    +0.000 C 
ENDBRANCH  21  24
ENDBRANCH   1  22
TORSDOF 4
ENDMDL
MODEL 9
REMARK VINA RESULT:      -7.2      2.947      7.410
REMARK  Name = 
REMARK  5 active torsions:
REMARK  status: ('A' for Active; 'I' for Inactive)
REMARK    1  A    between atoms: C_1  and  N_2
REMARK    2  A    between atoms: N_2  and  C_24
REMARK    3  A    between atoms: C_3  and  C_5
REMARK    4  A    between atoms: N_7  and  C_8
REMARK    5  A    between atoms: C_15  and  C_16
REMARK                            x       y       z     vdW  Elec       q    Type
REMARK                         _______ _______ _______ _____ _____    ______ ____
ROOT
ATOM      1  C   UNL     1      -2.514  11.733  18.724  0.00  0.00    +0.000 A 
ATOM      2  C   UNL     1      -1.858  10.524  18.616  0.00  0.00    +0.000 A 
ATOM      3  N   UNL     1      -0.540  10.753  18.960  0.00  0.00    +0.000 N 
ATOM      4  C   UNL     1      -0.411  12.142  19.111  0.00  0.00    +0.000 A 
ATOM      5  N   UNL     1      -1.591  12.720  18.963  0.00  0.00    +0.000 NA
ENDROOT
BRANCH   3   6
ATOM      6  C   UNL     1       0.452   9.732  19.098  0.00  0.00    +0.000 A 
ATOM      7  C   UNL     1       0.683   9.143  20.350  0.00  0.00    +0.000 A 
ATOM      8  C   UNL     1       1.571   8.066  20.462  0.00  0.00    +0.000 A 
ATOM      9  C   UNL     1       2.240   7.591  19.336  0.00  0.00    +0.000 A 
ATOM     10 CL   UNL     1       3.284   6.230  19.464  0.00  0.00    +0.000 Cl
ATOM     11  C   UNL     1       2.061   8.210  18.102  0.00  0.00    +0.000 A 
ATOM     12  C   UNL     1       1.183   9.291  17.986  0.00  0.00    +0.000 A 
ENDBRANCH   3   6
BRANCH   4  13
ATOM     13  C   UNL     1       0.830  12.921  19.303  0.00  0.00    +0.000 A 
ATOM     14  C   UNL     1       1.749  13.065  18.247  0.00  0.00    +0.000 A 
ATOM     15  C   UNL     1       2.952  13.755  18.413  0.00  0.00    +0.000 A 
ATOM     16  C   UNL     1       3.229  14.388  19.619  0.00  0.00    +0.000 A 
ATOM     17  C   UNL     1       2.303  14.322  20.656  0.00  0.00    +0.000 A 
ATOM     18  C   UNL     1       1.120  13.588  20.511  0.00  0.00    +0.000 A 
ATOM     19 CL   UNL     1       0.093  13.544  21.905  0.00  0.00    +0.000 Cl
ENDBRANCH   4  13
BRANCH   1  22
ATOM     20  C   UNL     1      -4.166  12.623  20.980  0.00  0.00    +0.000 C 
ATOM     21  N   UNL     1      -4.716  12.459  19.640  0.00  0.00    +0.000 N 
ATOM     22  C   UNL     1      -3.959  11.960  18.553  0.00  0.00    +0.000 C 
ATOM     23  O   UNL     1      -4.483  11.687  17.472  0.00  0.00    +0.000 OA
BRANCH  21  24
ATOM     24  C   UNL     1      -6.138  12.803  19.392  0.00  0.00    +0.000 C 
ATOM     25  C   UNL     1      -7.102  11.690  19.846  0.00  0.00    +0.000 C 
ATOM     26  C   UNL     1      -7.329  11.692  21.351  0.00  0.00    +0.000 C 
ATOM     27  C   UNL     1      -7.916  13.021  21.807  0.00  0.00    +0.000 C 
ATOM     28  C   UNL     1      -7.041  14.202  21.405  0.00  0.00    +0.000 C 
ATOM     29  C   UNL     1      -6.627  14.172  19.928  0.00  0.00    +0.000 C 
ENDBRANCH  21  24
ENDBRANCH   1  22
TORSDOF 4
ENDMDL
