MODEL 1
REMARK VINA RESULT:      -8.3      0.000      0.000
REMARK  Name = 
REMARK  5 active torsions:
REMARK  status: ('A' for Active; 'I' for Inactive)
REMARK    1  A    between atoms: C_6  and  O_7
REMARK    2  A    between atoms: O_7  and  C_8
REMARK    3  A    between atoms: C_8  and  C_9
REMARK    4  A    between atoms: C_9  and  N_10
REMARK    5  A    between atoms: C_17  and  C_18
REMARK                            x       y       z     vdW  Elec       q    Type
REMARK                         _______ _______ _______ _____ _____    ______ ____
ROOT
ATOM      1  C   UNL     1       7.018   7.562  17.604  0.00  0.00    +0.000 C 
ENDROOT
BRANCH   1   2
ATOM      2  N   UNL     1       7.394   6.400  16.769  0.00  0.00    +0.000 NA
ATOM      3  C   UNL     1       6.341   6.154  15.754  0.00  0.00    +0.000 C 
ATOM      4  C   UNL     1       4.944   5.930  16.374  0.00  0.00    +0.000 C 
ATOM      5  N   UNL     1       5.023   5.117  17.575  0.00  0.00    +0.000 N 
ATOM      6  C   UNL     1       6.213   4.762  18.170  0.00  0.00    +0.000 A 
ATOM      7  N   UNL     1       5.966   4.208  19.333  0.00  0.00    +0.000 NA
ATOM      8  N   UNL     1       4.604   4.253  19.533  0.00  0.00    +0.000 NA
ATOM      9  C   UNL     1       4.049   4.840  18.491  0.00  0.00    +0.000 A 
ATOM     10  C   UNL     1       7.525   5.166  17.588  0.00  0.00    +0.000 C 
BRANCH   9  11
ATOM     11  C   UNL     1       2.576   5.211  18.401  0.00  0.00    +0.000 C 
ATOM     12  C   UNL     1       1.614   4.329  17.630  0.00  0.00    +0.000 C 
ATOM     13  C   UNL     1       1.595   4.301  19.118  0.00  0.00    +0.000 C 
ENDBRANCH   9  11
ENDBRANCH   1   2
BRANCH   1  14
ATOM     14  C   UNL     1       7.972   8.751  17.561  0.00  0.00    +0.000 C 
BRANCH  14  15
ATOM     15  O   UNL     1       8.673   8.799  18.808  0.00  0.00    +0.000 OA
BRANCH  15  21
ATOM     16  C   UNL     1      11.222  14.619  18.721  0.00  0.00    +0.000 A 
ATOM     17  C   UNL     1      11.192  14.117  17.427  0.00  0.00    +0.000 A 
ATOM     18  C   UNL     1      10.698  12.831  17.181  0.00  0.00    +0.000 A 
ATOM     19  C   UNL     1      10.229  12.038  18.242  0.00  0.00    +0.000 A 
ATOM     20  C   UNL     1       9.705  10.757  18.029  0.00  0.00    +0.000 A 
ATOM     21  C   UNL     1       9.235  10.004  19.108  0.00  0.00    +0.000 A 
ATOM     22  C   UNL     1       9.295  10.524  20.399  0.00  0.00    +0.000 A 
ATOM     23  C   UNL     1       9.814  11.788  20.626  0.00  0.00    +0.000 A 
ATOM     24  C   UNL     1      10.273  12.562  19.554  0.00  0.00    +0.000 A 
ATOM     25  C   UNL     1      10.763  13.838  19.787  0.00  0.00    +0.000 A 
ENDBRANCH  15  21
ENDBRANCH  14  15
ENDBRANCH   1  14
TORSDOF 5
ENDMDL
MODEL 2
REMARK VINA RESULT:      -8.2      5.173      6.794
REMARK  Name = 
REMARK  5 active torsions:
REMARK  status: ('A' for Active; 'I' for Inactive)
REMARK    1  A    between atoms: C_6  and  O_7
REMARK    2  A    between atoms: O_7  and  C_8
REMARK    3  A    between atoms: C_8  and  C_9
REMARK    4  A    between atoms: C_9  and  N_10
REMARK    5  A    between atoms: C_17  and  C_18
REMARK                            x       y       z     vdW  Elec       q    Type
REMARK                         _______ _______ _______ _____ _____    ______ ____
ROOT
ATOM      1  C   UNL     1       4.855   6.745  16.179  0.00  0.00    +0.000 C 
ENDROOT
BRANCH   1   2
ATOM      2  N   UNL     1       6.210   6.182  15.984  0.00  0.00    +0.000 NA
ATOM      3  C   UNL     1       6.119   4.926  15.200  0.00  0.00    +0.000 C 
ATOM      4  C   UNL     1       5.197   3.872  15.851  0.00  0.00    +0.000 C 
ATOM      5  N   UNL     1       5.368   3.837  17.292  0.00  0.00    +0.000 N 
ATOM      6  C   UNL     1       6.120   4.760  17.985  0.00  0.00    +0.000 A 
ATOM      7  N   UNL     1       5.926   4.594  19.273  0.00  0.00    +0.000 NA
ATOM      8  N   UNL     1       4.991   3.594  19.426  0.00  0.00    +0.000 NA
ATOM      9  C   UNL     1       4.629   3.174  18.230  0.00  0.00    +0.000 A 
ATOM     10  C   UNL     1       6.850   5.853  17.285  0.00  0.00    +0.000 C 
BRANCH   9  11
ATOM     11  C   UNL     1       3.507   2.179  17.974  0.00  0.00    +0.000 C 
ATOM     12  C   UNL     1       2.400   2.002  18.995  0.00  0.00    +0.000 C 
ATOM     13  C   UNL     1       2.122   2.754  17.740  0.00  0.00    +0.000 C 
ENDBRANCH   9  11
ENDBRANCH   1   2
BRANCH   1  14
ATOM     14  C   UNL     1       4.574   7.349  17.550  0.00  0.00    +0.000 C 
BRANCH  14  15
ATOM     15  O   UNL     1       3.336   6.809  18.024  0.00  0.00    +0.000 OA
BRANCH  15  21
ATOM     16  C   UNL     1      -0.403  10.522  21.575  0.00  0.00    +0.000 A 
ATOM     17  C   UNL     1       0.062   9.471  22.353  0.00  0.00    +0.000 A 
ATOM     18  C   UNL     1       0.889   8.491  21.792  0.00  0.00    +0.000 A 
ATOM     19  C   UNL     1       1.253   8.564  20.437  0.00  0.00    +0.000 A 
ATOM     20  C   UNL     1       2.099   7.616  19.849  0.00  0.00    +0.000 A 
ATOM     21  C   UNL     1       2.451   7.730  18.501  0.00  0.00    +0.000 A 
ATOM     22  C   UNL     1       1.953   8.784  17.739  0.00  0.00    +0.000 A 
ATOM     23  C   UNL     1       1.113   9.728  18.305  0.00  0.00    +0.000 A 
ATOM     24  C   UNL     1       0.765   9.638  19.658  0.00  0.00    +0.000 A 
ATOM     25  C   UNL     1      -0.052  10.604  20.224  0.00  0.00    +0.000 A 
ENDBRANCH  15  21
ENDBRANCH  14  15
ENDBRANCH   1  14
TORSDOF 5
ENDMDL
MODEL 3
REMARK VINA RESULT:      -8.0      0.882      1.897
REMARK  Name = 
REMARK  5 active torsions:
REMARK  status: ('A' for Active; 'I' for Inactive)
REMARK    1  A    between atoms: C_6  and  O_7
REMARK    2  A    between atoms: O_7  and  C_8
REMARK    3  A    between atoms: C_8  and  C_9
REMARK    4  A    between atoms: C_9  and  N_10
REMARK    5  A    between atoms: C_17  and  C_18
REMARK                            x       y       z     vdW  Elec       q    Type
REMARK                         _______ _______ _______ _____ _____    ______ ____
ROOT
ATOM      1  C   UNL     1       7.323   7.073  18.025  0.00  0.00    +0.000 C 
ENDROOT
BRANCH   1   2
ATOM      2  N   UNL     1       7.387   6.034  16.972  0.00  0.00    +0.000 NA
ATOM      3  C   UNL     1       6.246   6.200  16.039  0.00  0.00    +0.000 C 
ATOM      4  C   UNL     1       4.874   6.152  16.747  0.00  0.00    +0.000 C 
ATOM      5  N   UNL     1       4.847   5.131  17.780  0.00  0.00    +0.000 N 
ATOM      6  C   UNL     1       5.966   4.439  18.186  0.00  0.00    +0.000 A 
ATOM      7  N   UNL     1       5.674   3.740  19.258  0.00  0.00    +0.000 NA
ATOM      8  N   UNL     1       4.369   4.023  19.596  0.00  0.00    +0.000 NA
ATOM      9  C   UNL     1       3.893   4.893  18.727  0.00  0.00    +0.000 A 
ATOM     10  C   UNL     1       7.296   4.669  17.555  0.00  0.00    +0.000 C 
BRANCH   9  11
ATOM     11  C   UNL     1       2.533   5.565  18.846  0.00  0.00    +0.000 C 
ATOM     12  C   UNL     1       1.895   5.756  20.208  0.00  0.00    +0.000 C 
ATOM     13  C   UNL     1       2.499   6.927  19.516  0.00  0.00    +0.000 C 
ENDBRANCH   9  11
ENDBRANCH   1   2
BRANCH   1  14
ATOM     14  C   UNL     1       8.018   8.391  17.703  0.00  0.00    +0.000 C 
BRANCH  14  15
ATOM     15  O   UNL     1       8.789   8.773  18.847  0.00  0.00    +0.000 OA
BRANCH  15  21
ATOM     16  C   UNL     1      10.352  14.665  20.643  0.00  0.00    +0.000 A 
ATOM     17  C   UNL     1      10.017  13.922  21.767  0.00  0.00    +0.000 A 
ATOM     18  C   UNL     1       9.607  12.590  21.635  0.00  0.00    +0.000 A 
ATOM     19  C   UNL     1       9.530  11.996  20.364  0.00  0.00    +0.000 A 
ATOM     20  C   UNL     1       9.148  10.659  20.198  0.00  0.00    +0.000 A 
ATOM     21  C   UNL     1       9.098  10.100  18.918  0.00  0.00    +0.000 A 
ATOM     22  C   UNL     1       9.420  10.874  17.806  0.00  0.00    +0.000 A 
ATOM     23  C   UNL     1       9.796  12.198  17.954  0.00  0.00    +0.000 A 
ATOM     24  C   UNL     1       9.869  12.769  19.230  0.00  0.00    +0.000 A 
ATOM     25  C   UNL     1      10.275  14.087  19.372  0.00  0.00    +0.000 A 
ENDBRANCH  15  21
ENDBRANCH  14  15
ENDBRANCH   1  14
TORSDOF 5
ENDMDL
MODEL 4
REMARK VINA RESULT:      -7.9      6.440      8.271
REMARK  Name = 
REMARK  5 active torsions:
REMARK  status: ('A' for Active; 'I' for Inactive)
REMARK    1  A    between atoms: C_6  and  O_7
REMARK    2  A    between atoms: O_7  and  C_8
REMARK    3  A    between atoms: C_8  and  C_9
REMARK    4  A    between atoms: C_9  and  N_10
REMARK    5  A    between atoms: C_17  and  C_18
REMARK                            x       y       z     vdW  Elec       q    Type
REMARK                         _______ _______ _______ _____ _____    ______ ____
ROOT
ATOM      1  C   UNL     1       2.338   5.038  21.002  0.00  0.00    +0.000 C 
ENDROOT
BRANCH   1   2
ATOM      2  N   UNL     1       1.795   3.668  21.140  0.00  0.00    +0.000 NA
ATOM      3  C   UNL     1       2.906   2.686  21.115  0.00  0.00    +0.000 C 
ATOM      4  C   UNL     1       3.771   2.785  19.839  0.00  0.00    +0.000 C 
ATOM      5  N   UNL     1       2.953   3.012  18.661  0.00  0.00    +0.000 N 
ATOM      6  C   UNL     1       1.605   3.287  18.721  0.00  0.00    +0.000 A 
ATOM      7  N   UNL     1       1.184   3.641  17.529  0.00  0.00    +0.000 NA
ATOM      8  N   UNL     1       2.277   3.657  16.691  0.00  0.00    +0.000 NA
ATOM      9  C   UNL     1       3.343   3.320  17.389  0.00  0.00    +0.000 A 
ATOM     10  C   UNL     1       0.876   3.335  20.020  0.00  0.00    +0.000 C 
BRANCH   9  11
ATOM     11  C   UNL     1       4.767   3.366  16.855  0.00  0.00    +0.000 C 
ATOM     12  C   UNL     1       5.121   4.293  15.709  0.00  0.00    +0.000 C 
ATOM     13  C   UNL     1       5.546   4.647  17.092  0.00  0.00    +0.000 C 
ENDBRANCH   9  11
ENDBRANCH   1   2
BRANCH   1  14
ATOM     14  C   UNL     1       1.309   6.160  20.938  0.00  0.00    +0.000 C 
BRANCH  14  15
ATOM     15  O   UNL     1       1.919   7.282  20.291  0.00  0.00    +0.000 OA
BRANCH  15  21
ATOM     16  C   UNL     1      -1.406  12.372  22.139  0.00  0.00    +0.000 A 
ATOM     17  C   UNL     1      -1.395  11.440  23.168  0.00  0.00    +0.000 A 
ATOM     18  C   UNL     1      -0.746  10.211  22.998  0.00  0.00    +0.000 A 
ATOM     19  C   UNL     1      -0.102   9.912  21.785  0.00  0.00    +0.000 A 
ATOM     20  C   UNL     1       0.577   8.703  21.590  0.00  0.00    +0.000 A 
ATOM     21  C   UNL     1       1.218   8.448  20.375  0.00  0.00    +0.000 A 
ATOM     22  C   UNL     1       1.174   9.393  19.353  0.00  0.00    +0.000 A 
ATOM     23  C   UNL     1       0.503  10.591  19.529  0.00  0.00    +0.000 A 
ATOM     24  C   UNL     1      -0.129  10.870  20.747  0.00  0.00    +0.000 A 
ATOM     25  C   UNL     1      -0.773  12.085  20.925  0.00  0.00    +0.000 A 
ENDBRANCH  15  21
ENDBRANCH  14  15
ENDBRANCH   1  14
TORSDOF 5
ENDMDL
MODEL 5
REMARK VINA RESULT:      -7.9      7.204     10.648
REMARK  Name = 
REMARK  5 active torsions:
REMARK  status: ('A' for Active; 'I' for Inactive)
REMARK    1  A    between atoms: C_6  and  O_7
REMARK    2  A    between atoms: O_7  and  C_8
REMARK    3  A    between atoms: C_8  and  C_9
REMARK    4  A    between atoms: C_9  and  N_10
REMARK    5  A    between atoms: C_17  and  C_18
REMARK                            x       y       z     vdW  Elec       q    Type
REMARK                         _______ _______ _______ _____ _____    ______ ____
ROOT
ATOM      1  C   UNL     1      -0.138   9.551  20.841  0.00  0.00    +0.000 C 
ENDROOT
BRANCH   1   2
ATOM      2  N   UNL     1       0.581  10.324  19.803  0.00  0.00    +0.000 NA
ATOM      3  C   UNL     1       0.818  11.706  20.287  0.00  0.00    +0.000 C 
ATOM      4  C   UNL     1      -0.482  12.438  20.687  0.00  0.00    +0.000 C 
ATOM      5  N   UNL     1      -1.559  12.152  19.755  0.00  0.00    +0.000 N 
ATOM      6  C   UNL     1      -1.465  11.202  18.762  0.00  0.00    +0.000 A 
ATOM      7  N   UNL     1      -2.646  11.028  18.218  0.00  0.00    +0.000 NA
ATOM      8  N   UNL     1      -3.539  11.825  18.901  0.00  0.00    +0.000 NA
ATOM      9  C   UNL     1      -2.885  12.464  19.851  0.00  0.00    +0.000 A 
ATOM     10  C   UNL     1      -0.215  10.418  18.551  0.00  0.00    +0.000 C 
BRANCH   9  11
ATOM     11  C   UNL     1      -3.547  13.328  20.914  0.00  0.00    +0.000 C 
ATOM     12  C   UNL     1      -4.961  13.026  21.368  0.00  0.00    +0.000 C 
ATOM     13  C   UNL     1      -3.819  12.674  22.256  0.00  0.00    +0.000 C 
ENDBRANCH   9  11
ENDBRANCH   1   2
BRANCH   1  14
ATOM     14  C   UNL     1       0.633   8.390  21.461  0.00  0.00    +0.000 C 
BRANCH  14  15
ATOM     15  O   UNL     1       1.887   8.281  20.780  0.00  0.00    +0.000 OA
BRANCH  15  21
ATOM     16  C   UNL     1       1.732   2.427  18.314  0.00  0.00    +0.000 A 
ATOM     17  C   UNL     1       1.271   2.380  19.622  0.00  0.00    +0.000 A 
ATOM     18  C   UNL     1       1.233   3.544  20.398  0.00  0.00    +0.000 A 
ATOM     19  C   UNL     1       1.661   4.769  19.858  0.00  0.00    +0.000 A 
ATOM     20  C   UNL     1       1.613   5.957  20.597  0.00  0.00    +0.000 A 
ATOM     21  C   UNL     1       2.035   7.158  20.020  0.00  0.00    +0.000 A 
ATOM     22  C   UNL     1       2.512   7.173  18.712  0.00  0.00    +0.000 A 
ATOM     23  C   UNL     1       2.569   6.006  17.969  0.00  0.00    +0.000 A 
ATOM     24  C   UNL     1       2.134   4.797  18.526  0.00  0.00    +0.000 A 
ATOM     25  C   UNL     1       2.166   3.638  17.765  0.00  0.00    +0.000 A 
ENDBRANCH  15  21
ENDBRANCH  14  15
ENDBRANCH   1  14
TORSDOF 5
ENDMDL
MODEL 6
REMARK VINA RESULT:      -7.8      6.276      7.635
REMARK  Name = 
REMARK  5 active torsions:
REMARK  status: ('A' for Active; 'I' for Inactive)
REMARK    1  A    between atoms: C_6  and  O_7
REMARK    2  A    between atoms: O_7  and  C_8
REMARK    3  A    between atoms: C_8  and  C_9
REMARK    4  A    between atoms: C_9  and  N_10
REMARK    5  A    between atoms: C_17  and  C_18
REMARK                            x       y       z     vdW  Elec       q    Type
REMARK                         _______ _______ _______ _____ _____    ______ ____
ROOT
ATOM      1  C   UNL     1       2.493   4.547  21.407  0.00  0.00    +0.000 C 
ENDROOT
BRANCH   1   2
ATOM      2  N   UNL     1       2.007   3.148  21.413  0.00  0.00    +0.000 NA
ATOM      3  C   UNL     1       3.151   2.223  21.232  0.00  0.00    +0.000 C 
ATOM      4  C   UNL     1       3.953   2.498  19.941  0.00  0.00    +0.000 C 
ATOM      5  N   UNL     1       3.074   2.819  18.830  0.00  0.00    +0.000 N 
ATOM      6  C   UNL     1       1.721   3.030  18.976  0.00  0.00    +0.000 A 
ATOM      7  N   UNL     1       1.234   3.495  17.849  0.00  0.00    +0.000 NA
ATOM      8  N   UNL     1       2.286   3.649  16.974  0.00  0.00    +0.000 NA
ATOM      9  C   UNL     1       3.395   3.282  17.586  0.00  0.00    +0.000 A 
ATOM     10  C   UNL     1       1.051   2.904  20.301  0.00  0.00    +0.000 C 
BRANCH   9  11
ATOM     11  C   UNL     1       4.791   3.445  17.002  0.00  0.00    +0.000 C 
ATOM     12  C   UNL     1       5.044   4.466  15.911  0.00  0.00    +0.000 C 
ATOM     13  C   UNL     1       5.507   4.751  17.297  0.00  0.00    +0.000 C 
ENDBRANCH   9  11
ENDBRANCH   1   2
BRANCH   1  14
ATOM     14  C   UNL     1       1.627   5.550  20.653  0.00  0.00    +0.000 C 
BRANCH  14  15
ATOM     15  O   UNL     1       2.491   6.364  19.853  0.00  0.00    +0.000 OA
BRANCH  15  21
ATOM     16  C   UNL     1       0.002  12.210  19.864  0.00  0.00    +0.000 A 
ATOM     17  C   UNL     1      -0.190  11.634  21.112  0.00  0.00    +0.000 A 
ATOM     18  C   UNL     1       0.247  10.327  21.359  0.00  0.00    +0.000 A 
ATOM     19  C   UNL     1       0.883   9.590  20.346  0.00  0.00    +0.000 A 
ATOM     20  C   UNL     1       1.355   8.290  20.566  0.00  0.00    +0.000 A 
ATOM     21  C   UNL     1       1.995   7.594  19.537  0.00  0.00    +0.000 A 
ATOM     22  C   UNL     1       2.156   8.190  18.288  0.00  0.00    +0.000 A 
ATOM     23  C   UNL     1       1.691   9.473  18.054  0.00  0.00    +0.000 A 
ATOM     24  C   UNL     1       1.064  10.191  19.079  0.00  0.00    +0.000 A 
ATOM     25  C   UNL     1       0.628  11.486  18.845  0.00  0.00    +0.000 A 
ENDBRANCH  15  21
ENDBRANCH  14  15
ENDBRANCH   1  14
TORSDOF 5
ENDMDL
MODEL 7
REMARK VINA RESULT:      -7.8      1.051      1.501
REMARK  Name = 
REMARK  5 active torsions:
REMARK  status: ('A' for Active; 'I' for Inactive)
REMARK    1  A    between atoms: C_6  and  O_7
REMARK    2  A    between atoms: O_7  and  C_8
REMARK    3  A    between atoms: C_8  and  C_9
REMARK    4  A    between atoms: C_9  and  N_10
REMARK    5  A    between atoms: C_17  and  C_18
REMARK                            x       y       z     vdW  Elec       q    Type
REMARK                         _______ _______ _______ _____ _____    ______ ____
ROOT
ATOM      1  C   UNL     1       6.934   7.431  17.596  0.00  0.00    +0.000 C 
ENDROOT
BRANCH   1   2
ATOM      2  N   UNL     1       7.316   6.270  16.760  0.00  0.00    +0.000 NA
ATOM      3  C   UNL     1       6.271   6.031  15.734  0.00  0.00    +0.000 C 
ATOM      4  C   UNL     1       4.868   5.807  16.341  0.00  0.00    +0.000 C 
ATOM      5  N   UNL     1       4.934   4.989  17.539  0.00  0.00    +0.000 N 
ATOM      6  C   UNL     1       6.118   4.630  18.143  0.00  0.00    +0.000 A 
ATOM      7  N   UNL     1       5.859   4.072  19.302  0.00  0.00    +0.000 NA
ATOM      8  N   UNL     1       4.495   4.119  19.490  0.00  0.00    +0.000 NA
ATOM      9  C   UNL     1       3.951   4.712  18.445  0.00  0.00    +0.000 A 
ATOM     10  C   UNL     1       7.436   5.033  17.575  0.00  0.00    +0.000 C 
BRANCH   9  11
ATOM     11  C   UNL     1       2.480   5.086  18.343  0.00  0.00    +0.000 C 
ATOM     12  C   UNL     1       1.538   4.248  17.501  0.00  0.00    +0.000 C 
ATOM     13  C   UNL     1       1.485   4.136  18.985  0.00  0.00    +0.000 C 
ENDBRANCH   9  11
ENDBRANCH   1   2
BRANCH   1  14
ATOM     14  C   UNL     1       8.009   8.493  17.793  0.00  0.00    +0.000 C 
BRANCH  14  15
ATOM     15  O   UNL     1       7.438   9.764  17.465  0.00  0.00    +0.000 OA
BRANCH  15  21
ATOM     16  C   UNL     1      12.012  13.743  19.367  0.00  0.00    +0.000 A 
ATOM     17  C   UNL     1      12.333  12.456  19.775  0.00  0.00    +0.000 A 
ATOM     18  C   UNL     1      11.464  11.393  19.501  0.00  0.00    +0.000 A 
ATOM     19  C   UNL     1      10.262  11.622  18.810  0.00  0.00    +0.000 A 
ATOM     20  C   UNL     1       9.382  10.578  18.497  0.00  0.00    +0.000 A 
ATOM     21  C   UNL     1       8.203  10.843  17.796  0.00  0.00    +0.000 A 
ATOM     22  C   UNL     1       7.897  12.148  17.416  0.00  0.00    +0.000 A 
ATOM     23  C   UNL     1       8.754  13.191  17.721  0.00  0.00    +0.000 A 
ATOM     24  C   UNL     1       9.949  12.940  18.407  0.00  0.00    +0.000 A 
ATOM     25  C   UNL     1      10.817  13.986  18.683  0.00  0.00    +0.000 A 
ENDBRANCH  15  21
ENDBRANCH  14  15
ENDBRANCH   1  14
TORSDOF 5
ENDMDL
MODEL 8
REMARK VINA RESULT:      -7.7      5.063      6.656
REMARK  Name = 
REMARK  5 active torsions:
REMARK  status: ('A' for Active; 'I' for Inactive)
REMARK    1  A    between atoms: C_6  and  O_7
REMARK    2  A    between atoms: O_7  and  C_8
REMARK    3  A    between atoms: C_8  and  C_9
REMARK    4  A    between atoms: C_9  and  N_10
REMARK    5  A    between atoms: C_17  and  C_18
REMARK                            x       y       z     vdW  Elec       q    Type
REMARK                         _______ _______ _______ _____ _____    ______ ____
ROOT
ATOM      1  C   UNL     1       5.192   6.603  15.950  0.00  0.00    +0.000 C 
ENDROOT
BRANCH   1   2
ATOM      2  N   UNL     1       6.581   6.099  16.045  0.00  0.00    +0.000 NA
ATOM      3  C   UNL     1       6.672   4.767  15.398  0.00  0.00    +0.000 C 
ATOM      4  C   UNL     1       5.691   3.735  15.998  0.00  0.00    +0.000 C 
ATOM      5  N   UNL     1       5.616   3.856  17.444  0.00  0.00    +0.000 N 
ATOM      6  C   UNL     1       6.203   4.884  18.147  0.00  0.00    +0.000 A 
ATOM      7  N   UNL     1       5.799   4.839  19.395  0.00  0.00    +0.000 NA
ATOM      8  N   UNL     1       4.890   3.810  19.500  0.00  0.00    +0.000 NA
ATOM      9  C   UNL     1       4.753   3.252  18.313  0.00  0.00    +0.000 A 
ATOM     10  C   UNL     1       7.001   5.939  17.461  0.00  0.00    +0.000 C 
BRANCH   9  11
ATOM     11  C   UNL     1       3.728   2.175  17.985  0.00  0.00    +0.000 C 
ATOM     12  C   UNL     1       2.514   1.986  18.872  0.00  0.00    +0.000 C 
ATOM     13  C   UNL     1       2.354   2.649  17.549  0.00  0.00    +0.000 C 
ENDBRANCH   9  11
ENDBRANCH   1   2
BRANCH   1  14
ATOM     14  C   UNL     1       4.654   7.313  17.188  0.00  0.00    +0.000 C 
BRANCH  14  15
ATOM     15  O   UNL     1       3.230   7.166  17.195  0.00  0.00    +0.000 OA
BRANCH  15  21
ATOM     16  C   UNL     1      -0.226   9.981  21.723  0.00  0.00    +0.000 A 
ATOM     17  C   UNL     1      -0.184  10.806  20.608  0.00  0.00    +0.000 A 
ATOM     18  C   UNL     1       0.544  10.421  19.475  0.00  0.00    +0.000 A 
ATOM     19  C   UNL     1       1.237   9.199  19.460  0.00  0.00    +0.000 A 
ATOM     20  C   UNL     1       1.954   8.772  18.336  0.00  0.00    +0.000 A 
ATOM     21  C   UNL     1       2.618   7.543  18.354  0.00  0.00    +0.000 A 
ATOM     22  C   UNL     1       2.575   6.745  19.495  0.00  0.00    +0.000 A 
ATOM     23  C   UNL     1       1.874   7.155  20.616  0.00  0.00    +0.000 A 
ATOM     24  C   UNL     1       1.188   8.376  20.608  0.00  0.00    +0.000 A 
ATOM     25  C   UNL     1       0.463   8.765  21.724  0.00  0.00    +0.000 A 
ENDBRANCH  15  21
ENDBRANCH  14  15
ENDBRANCH   1  14
TORSDOF 5
ENDMDL
MODEL 9
REMARK VINA RESULT:      -7.7      0.953      1.486
REMARK  Name = 
REMARK  5 active torsions:
REMARK  status: ('A' for Active; 'I' for Inactive)
REMARK    1  A    between atoms: C_6  and  O_7
REMARK    2  A    between atoms: O_7  and  C_8
REMARK    3  A    between atoms: C_8  and  C_9
REMARK    4  A    between atoms: C_9  and  N_10
REMARK    5  A    between atoms: C_17  and  C_18
REMARK                            x       y       z     vdW  Elec       q    Type
REMARK                         _______ _______ _______ _____ _____    ______ ____
ROOT
ATOM      1  C   UNL     1       7.145   7.004  17.899  0.00  0.00    +0.000 C 
ENDROOT
BRANCH   1   2
ATOM      2  N   UNL     1       7.061   6.081  16.744  0.00  0.00    +0.000 NA
ATOM      3  C   UNL     1       5.792   6.314  16.013  0.00  0.00    +0.000 C 
ATOM      4  C   UNL     1       4.541   6.160  16.907  0.00  0.00    +0.000 C 
ATOM      5  N   UNL     1       4.678   5.037  17.818  0.00  0.00    +0.000 N 
ATOM      6  C   UNL     1       5.851   4.334  17.978  0.00  0.00    +0.000 A 
ATOM      7  N   UNL     1       5.730   3.520  19.001  0.00  0.00    +0.000 NA
ATOM      8  N   UNL     1       4.488   3.734  19.556  0.00  0.00    +0.000 NA
ATOM      9  C   UNL     1       3.879   4.678  18.865  0.00  0.00    +0.000 A 
ATOM     10  C   UNL     1       7.070   4.662  17.186  0.00  0.00    +0.000 C 
BRANCH   9  11
ATOM     11  C   UNL     1       2.546   5.300  19.255  0.00  0.00    +0.000 C 
ATOM     12  C   UNL     1       1.399   4.420  19.711  0.00  0.00    +0.000 C 
ATOM     13  C   UNL     1       2.153   5.216  20.719  0.00  0.00    +0.000 C 
ENDBRANCH   9  11
ENDBRANCH   1   2
BRANCH   1  14
ATOM     14  C   UNL     1       7.553   8.438  17.579  0.00  0.00    +0.000 C 
BRANCH  14  15
ATOM     15  O   UNL     1       8.578   8.821  18.501  0.00  0.00    +0.000 OA
BRANCH  15  21
ATOM     16  C   UNL     1      11.410  14.484  19.034  0.00  0.00    +0.000 A 
ATOM     17  C   UNL     1      12.075  13.567  19.837  0.00  0.00    +0.000 A 
ATOM     18  C   UNL     1      11.625  12.244  19.917  0.00  0.00    +0.000 A 
ATOM     19  C   UNL     1      10.498  11.835  19.185  0.00  0.00    +0.000 A 
ATOM     20  C   UNL     1      10.035  10.514  19.222  0.00  0.00    +0.000 A 
ATOM     21  C   UNL     1       8.919  10.141  18.469  0.00  0.00    +0.000 A 
ATOM     22  C   UNL     1       8.259  11.086  17.687  0.00  0.00    +0.000 A 
ATOM     23  C   UNL     1       8.701  12.397  17.643  0.00  0.00    +0.000 A 
ATOM     24  C   UNL     1       9.829  12.783  18.378  0.00  0.00    +0.000 A 
ATOM     25  C   UNL     1      10.283  14.091  18.304  0.00  0.00    +0.000 A 
ENDBRANCH  15  21
ENDBRANCH  14  15
ENDBRANCH   1  14
TORSDOF 5
ENDMDL
