MODEL 1
REMARK VINA RESULT:      -6.1      0.000      0.000
REMARK  Name = 
REMARK  4 active torsions:
REMARK  status: ('A' for Active; 'I' for Inactive)
REMARK    1  A    between atoms: C_2  and  C_11
REMARK    2  A    between atoms: N_3  and  C_4
REMARK    3  A    between atoms: C_4  and  C_5
REMARK    4  A    between atoms: C_5  and  N_6
REMARK                            x       y       z     vdW  Elec       q    Type
REMARK                         _______ _______ _______ _____ _____    ______ ____
ROOT
ATOM      1  O   UNL     1       4.407   5.797  19.309  0.00  0.00    +0.000 OA
ATOM      2  C   UNL     1       4.889   4.714  18.993  0.00  0.00    +0.000 C 
ATOM      3  N   UNL     1       6.251   4.514  18.904  0.00  0.00    +0.000 N 
ATOM      4  H   UNL     1       6.612   3.615  18.619  0.00  0.00    +0.000 HD
ENDROOT
BRANCH   2   5
ATOM      5  C   UNL     1       4.052   3.564  18.689  0.00  0.00    +0.000 A 
ATOM      6  C   UNL     1       3.046   3.485  17.676  0.00  0.00    +0.000 A 
ATOM      7  C   UNL     1       2.504   2.225  17.748  0.00  0.00    +0.000 A 
ATOM      8  O   UNL     1       3.101   1.514  18.737  0.00  0.00    +0.000 OA
ATOM      9  C   UNL     1       4.032   2.326  19.302  0.00  0.00    +0.000 A 
ENDBRANCH   2   5
BRANCH   3  10
ATOM     10  C   UNL     1       7.198   5.586  19.177  0.00  0.00    +0.000 C 
BRANCH  10  11
ATOM     11  C   UNL     1       7.605   6.342  17.918  0.00  0.00    +0.000 C 
BRANCH  11  12
ATOM     12  N   UNL     1       7.063   5.725  16.725  0.00  0.00    +0.000 N 
ATOM     13  N   UNL     1       6.008   6.255  16.075  0.00  0.00    +0.000 NA
ATOM     14  C   UNL     1       5.886   5.423  15.037  0.00  0.00    +0.000 A 
ATOM     15  C   UNL     1       6.877   4.434  15.103  0.00  0.00    +0.000 A 
ATOM     16  N   UNL     1       7.642   4.631  16.182  0.00  0.00    +0.000 NA
ENDBRANCH  11  12
ENDBRANCH  10  11
ENDBRANCH   3  10
TORSDOF 4
ENDMDL
MODEL 2
REMARK VINA RESULT:      -6.0      1.363      1.854
REMARK  Name = 
REMARK  4 active torsions:
REMARK  status: ('A' for Active; 'I' for Inactive)
REMARK    1  A    between atoms: C_2  and  C_11
REMARK    2  A    between atoms: N_3  and  C_4
REMARK    3  A    between atoms: C_4  and  C_5
REMARK    4  A    between atoms: C_5  and  N_6
REMARK                            x       y       z     vdW  Elec       q    Type
REMARK                         _______ _______ _______ _____ _____    ______ ____
ROOT
ATOM      1  O   UNL     1       5.234   3.028  19.819  0.00  0.00    +0.000 OA
ATOM      2  C   UNL     1       4.605   3.877  19.195  0.00  0.00    +0.000 C 
ATOM      3  N   UNL     1       5.144   5.107  18.880  0.00  0.00    +0.000 N 
ATOM      4  H   UNL     1       4.589   5.790  18.384  0.00  0.00    +0.000 HD
ENDROOT
BRANCH   2   5
ATOM      5  C   UNL     1       3.242   3.641  18.745  0.00  0.00    +0.000 A 
ATOM      6  C   UNL     1       2.267   2.810  19.378  0.00  0.00    +0.000 A 
ATOM      7  C   UNL     1       1.129   2.874  18.611  0.00  0.00    +0.000 A 
ATOM      8  O   UNL     1       1.329   3.685  17.543  0.00  0.00    +0.000 OA
ATOM      9  C   UNL     1       2.604   4.144  17.627  0.00  0.00    +0.000 A 
ENDBRANCH   2   5
BRANCH   3  10
ATOM     10  C   UNL     1       6.497   5.471  19.278  0.00  0.00    +0.000 C 
BRANCH  10  11
ATOM     11  C   UNL     1       7.273   6.153  18.158  0.00  0.00    +0.000 C 
BRANCH  11  12
ATOM     12  N   UNL     1       6.874   5.663  16.854  0.00  0.00    +0.000 N 
ATOM     13  N   UNL     1       7.405   4.540  16.332  0.00  0.00    +0.000 NA
ATOM     14  C   UNL     1       6.732   4.434  15.183  0.00  0.00    +0.000 A 
ATOM     15  C   UNL     1       5.821   5.492  15.068  0.00  0.00    +0.000 A 
ATOM     16  N   UNL     1       5.902   6.279  16.146  0.00  0.00    +0.000 NA
ENDBRANCH  11  12
ENDBRANCH  10  11
ENDBRANCH   3  10
TORSDOF 4
ENDMDL
MODEL 3
REMARK VINA RESULT:      -5.8      1.741      2.728
REMARK  Name = 
REMARK  4 active torsions:
REMARK  status: ('A' for Active; 'I' for Inactive)
REMARK    1  A    between atoms: C_2  and  C_11
REMARK    2  A    between atoms: N_3  and  C_4
REMARK    3  A    between atoms: C_4  and  C_5
REMARK    4  A    between atoms: C_5  and  N_6
REMARK                            x       y       z     vdW  Elec       q    Type
REMARK                         _______ _______ _______ _____ _____    ______ ____
ROOT
ATOM      1  O   UNL     1       2.841   4.599  17.468  0.00  0.00    +0.000 OA
ATOM      2  C   UNL     1       3.648   3.935  18.111  0.00  0.00    +0.000 C 
ATOM      3  N   UNL     1       4.881   3.583  17.601  0.00  0.00    +0.000 N 
ATOM      4  H   UNL     1       5.512   3.017  18.149  0.00  0.00    +0.000 HD
ENDROOT
BRANCH   2   5
ATOM      5  C   UNL     1       3.358   3.474  19.459  0.00  0.00    +0.000 A 
ATOM      6  C   UNL     1       2.359   3.991  20.341  0.00  0.00    +0.000 A 
ATOM      7  C   UNL     1       2.442   3.268  21.506  0.00  0.00    +0.000 A 
ATOM      8  O   UNL     1       3.425   2.339  21.412  0.00  0.00    +0.000 OA
ATOM      9  C   UNL     1       3.975   2.468  20.177  0.00  0.00    +0.000 A 
ENDBRANCH   2   5
BRANCH   3  10
ATOM     10  C   UNL     1       5.292   3.977  16.260  0.00  0.00    +0.000 C 
BRANCH  10  11
ATOM     11  C   UNL     1       6.793   4.218  16.156  0.00  0.00    +0.000 C 
BRANCH  11  12
ATOM     12  N   UNL     1       7.250   5.180  17.138  0.00  0.00    +0.000 N 
ATOM     13  N   UNL     1       7.382   6.486  16.834  0.00  0.00    +0.000 NA
ATOM     14  C   UNL     1       7.761   6.997  18.009  0.00  0.00    +0.000 A 
ATOM     15  C   UNL     1       7.830   5.979  18.969  0.00  0.00    +0.000 A 
ATOM     16  N   UNL     1       7.494   4.810  18.414  0.00  0.00    +0.000 NA
ENDBRANCH  11  12
ENDBRANCH  10  11
ENDBRANCH   3  10
TORSDOF 4
ENDMDL
MODEL 4
REMARK VINA RESULT:      -5.8      1.383      1.612
REMARK  Name = 
REMARK  4 active torsions:
REMARK  status: ('A' for Active; 'I' for Inactive)
REMARK    1  A    between atoms: C_2  and  C_11
REMARK    2  A    between atoms: N_3  and  C_4
REMARK    3  A    between atoms: C_4  and  C_5
REMARK    4  A    between atoms: C_5  and  N_6
REMARK                            x       y       z     vdW  Elec       q    Type
REMARK                         _______ _______ _______ _____ _____    ______ ____
ROOT
ATOM      1  O   UNL     1       5.198   3.008  19.779  0.00  0.00    +0.000 OA
ATOM      2  C   UNL     1       4.536   3.855  19.187  0.00  0.00    +0.000 C 
ATOM      3  N   UNL     1       5.040   5.103  18.887  0.00  0.00    +0.000 N 
ATOM      4  H   UNL     1       4.459   5.783  18.419  0.00  0.00    +0.000 HD
ENDROOT
BRANCH   2   5
ATOM      5  C   UNL     1       3.169   3.597  18.761  0.00  0.00    +0.000 A 
ATOM      6  C   UNL     1       2.314   2.551  19.227  0.00  0.00    +0.000 A 
ATOM      7  C   UNL     1       1.124   2.678  18.553  0.00  0.00    +0.000 A 
ATOM      8  O   UNL     1       1.179   3.729  17.698  0.00  0.00    +0.000 OA
ATOM      9  C   UNL     1       2.415   4.279  17.826  0.00  0.00    +0.000 A 
ENDBRANCH   2   5
BRANCH   3  10
ATOM     10  C   UNL     1       6.393   5.490  19.264  0.00  0.00    +0.000 C 
BRANCH  10  11
ATOM     11  C   UNL     1       7.209   5.993  18.079  0.00  0.00    +0.000 C 
BRANCH  11  12
ATOM     12  N   UNL     1       6.691   5.494  16.822  0.00  0.00    +0.000 N 
ATOM     13  N   UNL     1       5.888   6.246  16.043  0.00  0.00    +0.000 NA
ATOM     14  C   UNL     1       5.701   5.440  14.994  0.00  0.00    +0.000 A 
ATOM     15  C   UNL     1       6.406   4.244  15.183  0.00  0.00    +0.000 A 
ATOM     16  N   UNL     1       7.051   4.278  16.353  0.00  0.00    +0.000 NA
ENDBRANCH  11  12
ENDBRANCH  10  11
ENDBRANCH   3  10
TORSDOF 4
ENDMDL
MODEL 5
REMARK VINA RESULT:      -5.8      1.733      3.251
REMARK  Name = 
REMARK  4 active torsions:
REMARK  status: ('A' for Active; 'I' for Inactive)
REMARK    1  A    between atoms: C_2  and  C_11
REMARK    2  A    between atoms: N_3  and  C_4
REMARK    3  A    between atoms: C_4  and  C_5
REMARK    4  A    between atoms: C_5  and  N_6
REMARK                            x       y       z     vdW  Elec       q    Type
REMARK                         _______ _______ _______ _____ _____    ______ ____
ROOT
ATOM      1  O   UNL     1       3.702   3.063  17.335  0.00  0.00    +0.000 OA
ATOM      2  C   UNL     1       3.809   4.272  17.515  0.00  0.00    +0.000 C 
ATOM      3  N   UNL     1       4.592   5.069  16.706  0.00  0.00    +0.000 N 
ATOM      4  H   UNL     1       4.674   6.057  16.897  0.00  0.00    +0.000 HD
ENDROOT
BRANCH   2   5
ATOM      5  C   UNL     1       3.114   4.949  18.599  0.00  0.00    +0.000 A 
ATOM      6  C   UNL     1       2.316   4.335  19.614  0.00  0.00    +0.000 A 
ATOM      7  C   UNL     1       1.848   5.345  20.419  0.00  0.00    +0.000 A 
ATOM      8  O   UNL     1       2.297   6.545  19.975  0.00  0.00    +0.000 OA
ATOM      9  C   UNL     1       3.059   6.301  18.877  0.00  0.00    +0.000 A 
ENDBRANCH   2   5
BRANCH   3  10
ATOM     10  C   UNL     1       5.345   4.515  15.589  0.00  0.00    +0.000 C 
BRANCH  10  11
ATOM     11  C   UNL     1       6.824   4.339  15.911  0.00  0.00    +0.000 C 
BRANCH  11  12
ATOM     12  N   UNL     1       7.239   5.193  17.004  0.00  0.00    +0.000 N 
ATOM     13  N   UNL     1       7.447   6.513  16.826  0.00  0.00    +0.000 NA
ATOM     14  C   UNL     1       7.750   6.906  18.067  0.00  0.00    +0.000 A 
ATOM     15  C   UNL     1       7.703   5.809  18.937  0.00  0.00    +0.000 A 
ATOM     16  N   UNL     1       7.365   4.707  18.259  0.00  0.00    +0.000 NA
ENDBRANCH  11  12
ENDBRANCH  10  11
ENDBRANCH   3  10
TORSDOF 4
ENDMDL
MODEL 6
REMARK VINA RESULT:      -5.7      1.726      3.328
REMARK  Name = 
REMARK  4 active torsions:
REMARK  status: ('A' for Active; 'I' for Inactive)
REMARK    1  A    between atoms: C_2  and  C_11
REMARK    2  A    between atoms: N_3  and  C_4
REMARK    3  A    between atoms: C_4  and  C_5
REMARK    4  A    between atoms: C_5  and  N_6
REMARK                            x       y       z     vdW  Elec       q    Type
REMARK                         _______ _______ _______ _____ _____    ______ ____
ROOT
ATOM      1  O   UNL     1       4.019   2.938  17.694  0.00  0.00    +0.000 OA
ATOM      2  C   UNL     1       3.962   4.163  17.678  0.00  0.00    +0.000 C 
ATOM      3  N   UNL     1       4.586   4.915  16.704  0.00  0.00    +0.000 N 
ATOM      4  H   UNL     1       4.537   5.923  16.735  0.00  0.00    +0.000 HD
ENDROOT
BRANCH   2   5
ATOM      5  C   UNL     1       3.231   4.909  18.691  0.00  0.00    +0.000 A 
ATOM      6  C   UNL     1       2.476   4.360  19.774  0.00  0.00    +0.000 A 
ATOM      7  C   UNL     1       1.950   5.420  20.472  0.00  0.00    +0.000 A 
ATOM      8  O   UNL     1       2.323   6.590  19.897  0.00  0.00    +0.000 OA
ATOM      9  C   UNL     1       3.094   6.277  18.823  0.00  0.00    +0.000 A 
ENDBRANCH   2   5
BRANCH   3  10
ATOM     10  C   UNL     1       5.356   4.292  15.636  0.00  0.00    +0.000 C 
BRANCH  10  11
ATOM     11  C   UNL     1       6.850   4.265  15.931  0.00  0.00    +0.000 C 
BRANCH  11  12
ATOM     12  N   UNL     1       7.196   5.154  17.021  0.00  0.00    +0.000 N 
ATOM     13  N   UNL     1       7.449   4.684  18.259  0.00  0.00    +0.000 NA
ATOM     14  C   UNL     1       7.770   5.805  18.911  0.00  0.00    +0.000 A 
ATOM     15  C   UNL     1       7.704   6.898  18.036  0.00  0.00    +0.000 A 
ATOM     16  N   UNL     1       7.344   6.482  16.818  0.00  0.00    +0.000 NA
ENDBRANCH  11  12
ENDBRANCH  10  11
ENDBRANCH   3  10
TORSDOF 4
ENDMDL
MODEL 7
REMARK VINA RESULT:      -5.7      2.637      4.735
REMARK  Name = 
REMARK  4 active torsions:
REMARK  status: ('A' for Active; 'I' for Inactive)
REMARK    1  A    between atoms: C_2  and  C_11
REMARK    2  A    between atoms: N_3  and  C_4
REMARK    3  A    between atoms: C_4  and  C_5
REMARK    4  A    between atoms: C_5  and  N_6
REMARK                            x       y       z     vdW  Elec       q    Type
REMARK                         _______ _______ _______ _____ _____    ______ ____
ROOT
ATOM      1  O   UNL     1       6.037   4.702  19.369  0.00  0.00    +0.000 OA
ATOM      2  C   UNL     1       5.469   5.087  18.353  0.00  0.00    +0.000 C 
ATOM      3  N   UNL     1       4.192   5.610  18.378  0.00  0.00    +0.000 N 
ATOM      4  H   UNL     1       3.746   5.896  17.519  0.00  0.00    +0.000 HD
ENDROOT
BRANCH   2   5
ATOM      5  C   UNL     1       6.105   5.017  17.047  0.00  0.00    +0.000 A 
ATOM      6  C   UNL     1       5.817   4.078  16.008  0.00  0.00    +0.000 A 
ATOM      7  C   UNL     1       6.655   4.372  14.960  0.00  0.00    +0.000 A 
ATOM      8  O   UNL     1       7.447   5.427  15.275  0.00  0.00    +0.000 OA
ATOM      9  C   UNL     1       7.112   5.811  16.535  0.00  0.00    +0.000 A 
ENDBRANCH   2   5
BRANCH   3  10
ATOM     10  C   UNL     1       3.442   5.730  19.621  0.00  0.00    +0.000 C 
BRANCH  10  11
ATOM     11  C   UNL     1       2.240   4.794  19.672  0.00  0.00    +0.000 C 
BRANCH  11  12
ATOM     12  N   UNL     1       2.501   3.551  18.976  0.00  0.00    +0.000 N 
ATOM     13  N   UNL     1       2.031   3.329  17.732  0.00  0.00    +0.000 NA
ATOM     14  C   UNL     1       2.539   2.122  17.465  0.00  0.00    +0.000 A 
ATOM     15  C   UNL     1       3.298   1.676  18.555  0.00  0.00    +0.000 A 
ATOM     16  N   UNL     1       3.284   2.596  19.525  0.00  0.00    +0.000 NA
ENDBRANCH  11  12
ENDBRANCH  10  11
ENDBRANCH   3  10
TORSDOF 4
ENDMDL
MODEL 8
REMARK VINA RESULT:      -5.7      1.617      1.772
REMARK  Name = 
REMARK  4 active torsions:
REMARK  status: ('A' for Active; 'I' for Inactive)
REMARK    1  A    between atoms: C_2  and  C_11
REMARK    2  A    between atoms: N_3  and  C_4
REMARK    3  A    between atoms: C_4  and  C_5
REMARK    4  A    between atoms: C_5  and  N_6
REMARK                            x       y       z     vdW  Elec       q    Type
REMARK                         _______ _______ _______ _____ _____    ______ ____
ROOT
ATOM      1  O   UNL     1       3.469   5.647  17.470  0.00  0.00    +0.000 OA
ATOM      2  C   UNL     1       3.678   4.762  18.293  0.00  0.00    +0.000 C 
ATOM      3  N   UNL     1       4.922   4.561  18.855  0.00  0.00    +0.000 N 
ATOM      4  H   UNL     1       5.063   3.809  19.513  0.00  0.00    +0.000 HD
ENDROOT
BRANCH   2   5
ATOM      5  C   UNL     1       2.624   3.862  18.733  0.00  0.00    +0.000 A 
ATOM      6  C   UNL     1       2.066   2.776  17.990  0.00  0.00    +0.000 A 
ATOM      7  C   UNL     1       1.098   2.206  18.782  0.00  0.00    +0.000 A 
ATOM      8  O   UNL     1       1.014   2.863  19.965  0.00  0.00    +0.000 OA
ATOM      9  C   UNL     1       1.935   3.862  19.930  0.00  0.00    +0.000 A 
ENDBRANCH   2   5
BRANCH   3  10
ATOM     10  C   UNL     1       6.065   5.390  18.495  0.00  0.00    +0.000 C 
BRANCH  10  11
ATOM     11  C   UNL     1       7.135   4.614  17.738  0.00  0.00    +0.000 C 
BRANCH  11  12
ATOM     12  N   UNL     1       6.855   4.563  16.318  0.00  0.00    +0.000 N 
ATOM     13  N   UNL     1       7.540   5.319  15.438  0.00  0.00    +0.000 NA
ATOM     14  C   UNL     1       7.011   4.925  14.277  0.00  0.00    +0.000 A 
ATOM     15  C   UNL     1       6.038   3.944  14.508  0.00  0.00    +0.000 A 
ATOM     16  N   UNL     1       5.942   3.701  15.819  0.00  0.00    +0.000 NA
ENDBRANCH  11  12
ENDBRANCH  10  11
ENDBRANCH   3  10
TORSDOF 4
ENDMDL
MODEL 9
REMARK VINA RESULT:      -5.7      1.396      1.436
REMARK  Name = 
REMARK  4 active torsions:
REMARK  status: ('A' for Active; 'I' for Inactive)
REMARK    1  A    between atoms: C_2  and  C_11
REMARK    2  A    between atoms: N_3  and  C_4
REMARK    3  A    between atoms: C_4  and  C_5
REMARK    4  A    between atoms: C_5  and  N_6
REMARK                            x       y       z     vdW  Elec       q    Type
REMARK                         _______ _______ _______ _____ _____    ______ ____
ROOT
ATOM      1  O   UNL     1       5.366   3.179  19.723  0.00  0.00    +0.000 OA
ATOM      2  C   UNL     1       4.761   4.137  19.254  0.00  0.00    +0.000 C 
ATOM      3  N   UNL     1       5.373   5.352  19.025  0.00  0.00    +0.000 N 
ATOM      4  H   UNL     1       4.838   6.126  18.658  0.00  0.00    +0.000 HD
ENDROOT
BRANCH   2   5
ATOM      5  C   UNL     1       3.351   4.055  18.906  0.00  0.00    +0.000 A 
ATOM      6  C   UNL     1       2.764   4.380  17.644  0.00  0.00    +0.000 A 
ATOM      7  C   UNL     1       1.412   4.165  17.764  0.00  0.00    +0.000 A 
ATOM      8  O   UNL     1       1.117   3.733  19.015  0.00  0.00    +0.000 OA
ATOM      9  C   UNL     1       2.288   3.669  19.700  0.00  0.00    +0.000 A 
ENDBRANCH   2   5
BRANCH   3  10
ATOM     10  C   UNL     1       6.779   5.568  19.335  0.00  0.00    +0.000 C 
BRANCH  10  11
ATOM     11  C   UNL     1       7.555   6.151  18.160  0.00  0.00    +0.000 C 
BRANCH  11  12
ATOM     12  N   UNL     1       7.083   5.627  16.895  0.00  0.00    +0.000 N 
ATOM     13  N   UNL     1       6.193   6.302  16.141  0.00  0.00    +0.000 NA
ATOM     14  C   UNL     1       6.087   5.506  15.074  0.00  0.00    +0.000 A 
ATOM     15  C   UNL     1       6.923   4.393  15.228  0.00  0.00    +0.000 A 
ATOM     16  N   UNL     1       7.572   4.471  16.394  0.00  0.00    +0.000 NA
ENDBRANCH  11  12
ENDBRANCH  10  11
ENDBRANCH   3  10
TORSDOF 4
ENDMDL
