MODEL 1
REMARK VINA RESULT:      -6.0      0.000      0.000
REMARK  Name = 
REMARK  9 active torsions:
REMARK  status: ('A' for Active; 'I' for Inactive)
REMARK    1  A    between atoms: C_1  and  O_2
REMARK    2  A    between atoms: O_2  and  C_3
REMARK    3  A    between atoms: C_3  and  C_5
REMARK    4  A    between atoms: C_5  and  C_6
REMARK    5  A    between atoms: C_6  and  C_7
REMARK    6  A    between atoms: C_10  and  O_11
REMARK    7  A    between atoms: O_11  and  C_12
REMARK    8  A    between atoms: C_13  and  O_14
REMARK    9  A    between atoms: O_14  and  C_15
REMARK                            x       y       z     vdW  Elec       q    Type
REMARK                         _______ _______ _______ _____ _____    ______ ____
ROOT
ATOM      1  C   UNL     1       3.400   4.552  17.967  0.00  0.00    +0.000 A 
ATOM      2  C   UNL     1       4.056   5.002  19.114  0.00  0.00    +0.000 A 
ATOM      3  C   UNL     1       5.450   5.039  19.150  0.00  0.00    +0.000 A 
ATOM      4  C   UNL     1       6.223   4.632  18.050  0.00  0.00    +0.000 A 
ATOM      5  C   UNL     1       5.575   4.189  16.886  0.00  0.00    +0.000 A 
ATOM      6  C   UNL     1       4.168   4.154  16.863  0.00  0.00    +0.000 A 
ENDROOT
BRANCH   4   7
ATOM      7  O   UNL     1       7.568   4.736  18.296  0.00  0.00    +0.000 OA
ATOM      8  C   UNL     1       8.024   5.746  19.182  0.00  0.00    +0.000 C 
ENDBRANCH   4   7
BRANCH   5   9
ATOM      9  O   UNL     1       6.339   3.822  15.810  0.00  0.00    +0.000 OA
ATOM     10  C   UNL     1       6.042   4.383  14.541  0.00  0.00    +0.000 C 
ENDBRANCH   5   9
BRANCH   1  11
ATOM     11  C   UNL     1       1.892   4.550  17.892  0.00  0.00    +0.000 C 
BRANCH  11  12
ATOM     12  C   UNL     1       1.212   4.202  19.218  0.00  0.00    +0.000 C 
BRANCH  12  13
ATOM     13  C   UNL     1       1.014   2.712  19.337  0.00  0.00    +0.000 C 
ATOM     14  O   UNL     1       0.250   2.042  18.656  0.00  0.00    +0.000 OA
BRANCH  13  16
ATOM     15  C   UNL     1       1.666   2.850  21.579  0.00  0.00    +0.000 C 
ATOM     16  O   UNL     1       1.830   2.214  20.309  0.00  0.00    +0.000 OA
ENDBRANCH  13  16
ENDBRANCH  12  13
ENDBRANCH  11  12
ENDBRANCH   1  11
TORSDOF 6
ENDMDL
MODEL 2
REMARK VINA RESULT:      -6.0      1.589      1.697
REMARK  Name = 
REMARK  9 active torsions:
REMARK  status: ('A' for Active; 'I' for Inactive)
REMARK    1  A    between atoms: C_1  and  O_2
REMARK    2  A    between atoms: O_2  and  C_3
REMARK    3  A    between atoms: C_3  and  C_5
REMARK    4  A    between atoms: C_5  and  C_6
REMARK    5  A    between atoms: C_6  and  C_7
REMARK    6  A    between atoms: C_10  and  O_11
REMARK    7  A    between atoms: O_11  and  C_12
REMARK    8  A    between atoms: C_13  and  O_14
REMARK    9  A    between atoms: O_14  and  C_15
REMARK                            x       y       z     vdW  Elec       q    Type
REMARK                         _______ _______ _______ _____ _____    ______ ____
ROOT
ATOM      1  C   UNL     1       4.065   4.390  17.075  0.00  0.00    +0.000 A 
ATOM      2  C   UNL     1       3.928   5.655  17.648  0.00  0.00    +0.000 A 
ATOM      3  C   UNL     1       4.924   6.614  17.467  0.00  0.00    +0.000 A 
ATOM      4  C   UNL     1       6.076   6.340  16.711  0.00  0.00    +0.000 A 
ATOM      5  C   UNL     1       6.220   5.076  16.118  0.00  0.00    +0.000 A 
ATOM      6  C   UNL     1       5.209   4.116  16.311  0.00  0.00    +0.000 A 
ENDROOT
BRANCH   4   7
ATOM      7  O   UNL     1       6.932   7.411  16.667  0.00  0.00    +0.000 OA
ATOM      8  C   UNL     1       7.745   7.683  17.797  0.00  0.00    +0.000 C 
ENDBRANCH   4   7
BRANCH   5   9
ATOM      9  O   UNL     1       7.334   4.831  15.360  0.00  0.00    +0.000 OA
ATOM     10  C   UNL     1       7.206   4.817  13.946  0.00  0.00    +0.000 C 
ENDBRANCH   5   9
BRANCH   1  11
ATOM     11  C   UNL     1       2.975   3.356  17.220  0.00  0.00    +0.000 C 
BRANCH  11  12
ATOM     12  C   UNL     1       1.685   3.905  17.834  0.00  0.00    +0.000 C 
BRANCH  12  13
ATOM     13  C   UNL     1       1.185   2.990  18.923  0.00  0.00    +0.000 C 
ATOM     14  O   UNL     1       0.186   2.286  18.853  0.00  0.00    +0.000 OA
BRANCH  13  16
ATOM     15  C   UNL     1       1.755   4.145  20.875  0.00  0.00    +0.000 C 
ATOM     16  O   UNL     1       2.022   3.048  19.997  0.00  0.00    +0.000 OA
ENDBRANCH  13  16
ENDBRANCH  12  13
ENDBRANCH  11  12
ENDBRANCH   1  11
TORSDOF 6
ENDMDL
MODEL 3
REMARK VINA RESULT:      -6.0      2.060      5.867
REMARK  Name = 
REMARK  9 active torsions:
REMARK  status: ('A' for Active; 'I' for Inactive)
REMARK    1  A    between atoms: C_1  and  O_2
REMARK    2  A    between atoms: O_2  and  C_3
REMARK    3  A    between atoms: C_3  and  C_5
REMARK    4  A    between atoms: C_5  and  C_6
REMARK    5  A    between atoms: C_6  and  C_7
REMARK    6  A    between atoms: C_10  and  O_11
REMARK    7  A    between atoms: O_11  and  C_12
REMARK    8  A    between atoms: C_13  and  O_14
REMARK    9  A    between atoms: O_14  and  C_15
REMARK                            x       y       z     vdW  Elec       q    Type
REMARK                         _______ _______ _______ _____ _____    ______ ____
ROOT
ATOM      1  C   UNL     1       4.434   5.563  16.977  0.00  0.00    +0.000 A 
ATOM      2  C   UNL     1       3.572   6.380  17.710  0.00  0.00    +0.000 A 
ATOM      3  C   UNL     1       2.487   5.820  18.386  0.00  0.00    +0.000 A 
ATOM      4  C   UNL     1       2.236   4.438  18.351  0.00  0.00    +0.000 A 
ATOM      5  C   UNL     1       3.104   3.604  17.628  0.00  0.00    +0.000 A 
ATOM      6  C   UNL     1       4.192   4.181  16.948  0.00  0.00    +0.000 A 
ENDROOT
BRANCH   4   7
ATOM      7  O   UNL     1       1.119   4.098  19.069  0.00  0.00    +0.000 OA
ATOM      8  C   UNL     1       1.209   4.034  20.484  0.00  0.00    +0.000 C 
ENDBRANCH   4   7
BRANCH   5   9
ATOM      9  O   UNL     1       2.864   2.255  17.625  0.00  0.00    +0.000 OA
ATOM     10  C   UNL     1       3.588   1.433  18.529  0.00  0.00    +0.000 C 
ENDBRANCH   5   9
BRANCH   1  11
ATOM     11  C   UNL     1       5.640   6.144  16.279  0.00  0.00    +0.000 C 
BRANCH  11  12
ATOM     12  C   UNL     1       6.809   5.165  16.155  0.00  0.00    +0.000 C 
BRANCH  12  13
ATOM     13  C   UNL     1       7.086   4.852  14.706  0.00  0.00    +0.000 C 
ATOM     14  O   UNL     1       7.788   5.521  13.959  0.00  0.00    +0.000 OA
BRANCH  13  16
ATOM     15  C   UNL     1       6.131   3.623  12.961  0.00  0.00    +0.000 C 
ATOM     16  O   UNL     1       6.451   3.699  14.353  0.00  0.00    +0.000 OA
ENDBRANCH  13  16
ENDBRANCH  12  13
ENDBRANCH  11  12
ENDBRANCH   1  11
TORSDOF 6
ENDMDL
MODEL 4
REMARK VINA RESULT:      -6.0      1.133      1.256
REMARK  Name = 
REMARK  9 active torsions:
REMARK  status: ('A' for Active; 'I' for Inactive)
REMARK    1  A    between atoms: C_1  and  O_2
REMARK    2  A    between atoms: O_2  and  C_3
REMARK    3  A    between atoms: C_3  and  C_5
REMARK    4  A    between atoms: C_5  and  C_6
REMARK    5  A    between atoms: C_6  and  C_7
REMARK    6  A    between atoms: C_10  and  O_11
REMARK    7  A    between atoms: O_11  and  C_12
REMARK    8  A    between atoms: C_13  and  O_14
REMARK    9  A    between atoms: O_14  and  C_15
REMARK                            x       y       z     vdW  Elec       q    Type
REMARK                         _______ _______ _______ _____ _____    ______ ____
ROOT
ATOM      1  C   UNL     1       4.359   3.894  17.709  0.00  0.00    +0.000 A 
ATOM      2  C   UNL     1       4.630   4.561  18.904  0.00  0.00    +0.000 A 
ATOM      3  C   UNL     1       5.803   5.305  19.037  0.00  0.00    +0.000 A 
ATOM      4  C   UNL     1       6.731   5.404  17.988  0.00  0.00    +0.000 A 
ATOM      5  C   UNL     1       6.464   4.748  16.775  0.00  0.00    +0.000 A 
ATOM      6  C   UNL     1       5.279   4.000  16.654  0.00  0.00    +0.000 A 
ENDROOT
BRANCH   4   7
ATOM      7  O   UNL     1       7.816   6.169  18.328  0.00  0.00    +0.000 OA
ATOM      8  C   UNL     1       7.859   7.522  17.902  0.00  0.00    +0.000 C 
ENDBRANCH   4   7
BRANCH   5   9
ATOM      9  O   UNL     1       7.362   4.876  15.749  0.00  0.00    +0.000 OA
ATOM     10  C   UNL     1       6.907   4.690  14.418  0.00  0.00    +0.000 C 
ENDBRANCH   5   9
BRANCH   1  11
ATOM     11  C   UNL     1       3.073   3.125  17.530  0.00  0.00    +0.000 C 
BRANCH  11  12
ATOM     12  C   UNL     1       1.824   3.921  17.915  0.00  0.00    +0.000 C 
BRANCH  12  13
ATOM     13  C   UNL     1       0.910   3.088  18.779  0.00  0.00    +0.000 C 
ATOM     14  O   UNL     1       0.362   2.050  18.435  0.00  0.00    +0.000 OA
BRANCH  13  16
ATOM     15  C   UNL     1       1.531   2.970  21.031  0.00  0.00    +0.000 C 
ATOM     16  O   UNL     1       0.798   3.656  20.013  0.00  0.00    +0.000 OA
ENDBRANCH  13  16
ENDBRANCH  12  13
ENDBRANCH  11  12
ENDBRANCH   1  11
TORSDOF 6
ENDMDL
MODEL 5
REMARK VINA RESULT:      -5.9      1.554      1.808
REMARK  Name = 
REMARK  9 active torsions:
REMARK  status: ('A' for Active; 'I' for Inactive)
REMARK    1  A    between atoms: C_1  and  O_2
REMARK    2  A    between atoms: O_2  and  C_3
REMARK    3  A    between atoms: C_3  and  C_5
REMARK    4  A    between atoms: C_5  and  C_6
REMARK    5  A    between atoms: C_6  and  C_7
REMARK    6  A    between atoms: C_10  and  O_11
REMARK    7  A    between atoms: O_11  and  C_12
REMARK    8  A    between atoms: C_13  and  O_14
REMARK    9  A    between atoms: O_14  and  C_15
REMARK                            x       y       z     vdW  Elec       q    Type
REMARK                         _______ _______ _______ _____ _____    ______ ____
ROOT
ATOM      1  C   UNL     1       3.053   4.895  17.589  0.00  0.00    +0.000 A 
ATOM      2  C   UNL     1       3.199   6.257  17.854  0.00  0.00    +0.000 A 
ATOM      3  C   UNL     1       4.365   6.921  17.472  0.00  0.00    +0.000 A 
ATOM      4  C   UNL     1       5.410   6.249  16.819  0.00  0.00    +0.000 A 
ATOM      5  C   UNL     1       5.271   4.880  16.535  0.00  0.00    +0.000 A 
ATOM      6  C   UNL     1       4.091   4.222  16.927  0.00  0.00    +0.000 A 
ENDROOT
BRANCH   4   7
ATOM      7  O   UNL     1       6.466   7.078  16.543  0.00  0.00    +0.000 OA
ATOM      8  C   UNL     1       7.480   7.243  17.523  0.00  0.00    +0.000 C 
ENDBRANCH   4   7
BRANCH   5   9
ATOM      9  O   UNL     1       6.286   4.242  15.872  0.00  0.00    +0.000 OA
ATOM     10  C   UNL     1       6.220   4.148  14.457  0.00  0.00    +0.000 C 
ENDBRANCH   5   9
BRANCH   1  11
ATOM     11  C   UNL     1       1.779   4.171  17.951  0.00  0.00    +0.000 C 
BRANCH  11  12
ATOM     12  C   UNL     1       1.961   2.663  18.136  0.00  0.00    +0.000 C 
BRANCH  12  13
ATOM     13  C   UNL     1       2.473   2.357  19.520  0.00  0.00    +0.000 C 
ATOM     14  O   UNL     1       3.647   2.195  19.821  0.00  0.00    +0.000 OA
BRANCH  13  16
ATOM     15  C   UNL     1       1.696   2.944  21.647  0.00  0.00    +0.000 C 
ATOM     16  O   UNL     1       1.430   2.302  20.397  0.00  0.00    +0.000 OA
ENDBRANCH  13  16
ENDBRANCH  12  13
ENDBRANCH  11  12
ENDBRANCH   1  11
TORSDOF 6
ENDMDL
MODEL 6
REMARK VINA RESULT:      -5.8      2.157      5.652
REMARK  Name = 
REMARK  9 active torsions:
REMARK  status: ('A' for Active; 'I' for Inactive)
REMARK    1  A    between atoms: C_1  and  O_2
REMARK    2  A    between atoms: O_2  and  C_3
REMARK    3  A    between atoms: C_3  and  C_5
REMARK    4  A    between atoms: C_5  and  C_6
REMARK    5  A    between atoms: C_6  and  C_7
REMARK    6  A    between atoms: C_10  and  O_11
REMARK    7  A    between atoms: O_11  and  C_12
REMARK    8  A    between atoms: C_13  and  O_14
REMARK    9  A    between atoms: O_14  and  C_15
REMARK                            x       y       z     vdW  Elec       q    Type
REMARK                         _______ _______ _______ _____ _____    ______ ____
ROOT
ATOM      1  C   UNL     1       4.323   4.249  17.503  0.00  0.00    +0.000 A 
ATOM      2  C   UNL     1       4.207   3.169  18.379  0.00  0.00    +0.000 A 
ATOM      3  C   UNL     1       3.547   3.328  19.598  0.00  0.00    +0.000 A 
ATOM      4  C   UNL     1       2.986   4.561  19.972  0.00  0.00    +0.000 A 
ATOM      5  C   UNL     1       3.085   5.652  19.093  0.00  0.00    +0.000 A 
ATOM      6  C   UNL     1       3.756   5.479  17.869  0.00  0.00    +0.000 A 
ENDROOT
BRANCH   4   7
ATOM      7  O   UNL     1       2.395   4.506  21.208  0.00  0.00    +0.000 OA
ATOM      8  C   UNL     1       1.830   3.279  21.642  0.00  0.00    +0.000 C 
ENDBRANCH   4   7
BRANCH   5   9
ATOM      9  O   UNL     1       2.510   6.840  19.457  0.00  0.00    +0.000 OA
ATOM     10  C   UNL     1       2.386   7.864  18.481  0.00  0.00    +0.000 C 
ENDBRANCH   5   9
BRANCH   1  11
ATOM     11  C   UNL     1       4.992   4.082  16.160  0.00  0.00    +0.000 C 
BRANCH  11  12
ATOM     12  C   UNL     1       5.729   5.335  15.681  0.00  0.00    +0.000 C 
BRANCH  12  13
ATOM     13  C   UNL     1       7.134   5.365  16.228  0.00  0.00    +0.000 C 
ATOM     14  O   UNL     1       7.793   4.384  16.542  0.00  0.00    +0.000 OA
BRANCH  13  16
ATOM     15  C   UNL     1       7.468   7.217  17.616  0.00  0.00    +0.000 C 
ATOM     16  O   UNL     1       7.571   6.654  16.306  0.00  0.00    +0.000 OA
ENDBRANCH  13  16
ENDBRANCH  12  13
ENDBRANCH  11  12
ENDBRANCH   1  11
TORSDOF 6
ENDMDL
MODEL 7
REMARK VINA RESULT:      -5.8      1.986      5.672
REMARK  Name = 
REMARK  9 active torsions:
REMARK  status: ('A' for Active; 'I' for Inactive)
REMARK    1  A    between atoms: C_1  and  O_2
REMARK    2  A    between atoms: O_2  and  C_3
REMARK    3  A    between atoms: C_3  and  C_5
REMARK    4  A    between atoms: C_5  and  C_6
REMARK    5  A    between atoms: C_6  and  C_7
REMARK    6  A    between atoms: C_10  and  O_11
REMARK    7  A    between atoms: O_11  and  C_12
REMARK    8  A    between atoms: C_13  and  O_14
REMARK    9  A    between atoms: O_14  and  C_15
REMARK                            x       y       z     vdW  Elec       q    Type
REMARK                         _______ _______ _______ _____ _____    ______ ____
ROOT
ATOM      1  C   UNL     1       3.363   6.046  18.191  0.00  0.00    +0.000 A 
ATOM      2  C   UNL     1       2.742   6.482  19.363  0.00  0.00    +0.000 A 
ATOM      3  C   UNL     1       1.972   5.594  20.115  0.00  0.00    +0.000 A 
ATOM      4  C   UNL     1       1.803   4.256  19.722  0.00  0.00    +0.000 A 
ATOM      5  C   UNL     1       2.432   3.802  18.552  0.00  0.00    +0.000 A 
ATOM      6  C   UNL     1       3.204   4.708  17.801  0.00  0.00    +0.000 A 
ENDROOT
BRANCH   4   7
ATOM      7  O   UNL     1       1.003   3.560  20.590  0.00  0.00    +0.000 OA
ATOM      8  C   UNL     1       1.613   2.799  21.621  0.00  0.00    +0.000 C 
ENDBRANCH   4   7
BRANCH   5   9
ATOM      9  O   UNL     1       2.283   2.489  18.195  0.00  0.00    +0.000 OA
ATOM     10  C   UNL     1       3.404   1.624  18.295  0.00  0.00    +0.000 C 
ENDBRANCH   5   9
BRANCH   1  11
ATOM     11  C   UNL     1       4.239   6.979  17.391  0.00  0.00    +0.000 C 
BRANCH  11  12
ATOM     12  C   UNL     1       5.184   6.258  16.427  0.00  0.00    +0.000 C 
BRANCH  12  13
ATOM     13  C   UNL     1       6.604   6.723  16.631  0.00  0.00    +0.000 C 
ATOM     14  O   UNL     1       6.940   7.724  17.247  0.00  0.00    +0.000 OA
BRANCH  13  16
ATOM     15  C   UNL     1       6.913   4.545  15.835  0.00  0.00    +0.000 C 
ATOM     16  O   UNL     1       7.465   5.848  16.038  0.00  0.00    +0.000 OA
ENDBRANCH  13  16
ENDBRANCH  12  13
ENDBRANCH  11  12
ENDBRANCH   1  11
TORSDOF 6
ENDMDL
MODEL 8
REMARK VINA RESULT:      -5.8      1.638      1.739
REMARK  Name = 
REMARK  9 active torsions:
REMARK  status: ('A' for Active; 'I' for Inactive)
REMARK    1  A    between atoms: C_1  and  O_2
REMARK    2  A    between atoms: O_2  and  C_3
REMARK    3  A    between atoms: C_3  and  C_5
REMARK    4  A    between atoms: C_5  and  C_6
REMARK    5  A    between atoms: C_6  and  C_7
REMARK    6  A    between atoms: C_10  and  O_11
REMARK    7  A    between atoms: O_11  and  C_12
REMARK    8  A    between atoms: C_13  and  O_14
REMARK    9  A    between atoms: O_14  and  C_15
REMARK                            x       y       z     vdW  Elec       q    Type
REMARK                         _______ _______ _______ _____ _____    ______ ____
ROOT
ATOM      1  C   UNL     1       3.125   4.904  17.509  0.00  0.00    +0.000 A 
ATOM      2  C   UNL     1       3.509   6.206  17.832  0.00  0.00    +0.000 A 
ATOM      3  C   UNL     1       4.770   6.673  17.463  0.00  0.00    +0.000 A 
ATOM      4  C   UNL     1       5.677   5.859  16.765  0.00  0.00    +0.000 A 
ATOM      5  C   UNL     1       5.299   4.551  16.423  0.00  0.00    +0.000 A 
ATOM      6  C   UNL     1       4.024   4.091  16.803  0.00  0.00    +0.000 A 
ENDROOT
BRANCH   4   7
ATOM      7  O   UNL     1       6.861   6.503  16.511  0.00  0.00    +0.000 OA
ATOM      8  C   UNL     1       7.447   7.286  17.539  0.00  0.00    +0.000 C 
ENDBRANCH   4   7
BRANCH   5   9
ATOM      9  O   UNL     1       6.181   3.777  15.717  0.00  0.00    +0.000 OA
ATOM     10  C   UNL     1       6.219   3.903  14.304  0.00  0.00    +0.000 C 
ENDBRANCH   5   9
BRANCH   1  11
ATOM     11  C   UNL     1       1.746   4.398  17.857  0.00  0.00    +0.000 C 
BRANCH  11  12
ATOM     12  C   UNL     1       1.755   3.118  18.696  0.00  0.00    +0.000 C 
BRANCH  12  13
ATOM     13  C   UNL     1       1.797   3.448  20.167  0.00  0.00    +0.000 C 
ATOM     14  O   UNL     1       1.169   4.348  20.708  0.00  0.00    +0.000 OA
BRANCH  13  16
ATOM     15  C   UNL     1       3.917   2.461  20.204  0.00  0.00    +0.000 C 
ATOM     16  O   UNL     1       2.628   2.581  20.811  0.00  0.00    +0.000 OA
ENDBRANCH  13  16
ENDBRANCH  12  13
ENDBRANCH  11  12
ENDBRANCH   1  11
TORSDOF 6
ENDMDL
MODEL 9
REMARK VINA RESULT:      -5.8      1.844      5.523
REMARK  Name = 
REMARK  9 active torsions:
REMARK  status: ('A' for Active; 'I' for Inactive)
REMARK    1  A    between atoms: C_1  and  O_2
REMARK    2  A    between atoms: O_2  and  C_3
REMARK    3  A    between atoms: C_3  and  C_5
REMARK    4  A    between atoms: C_5  and  C_6
REMARK    5  A    between atoms: C_6  and  C_7
REMARK    6  A    between atoms: C_10  and  O_11
REMARK    7  A    between atoms: O_11  and  C_12
REMARK    8  A    between atoms: C_13  and  O_14
REMARK    9  A    between atoms: O_14  and  C_15
REMARK                            x       y       z     vdW  Elec       q    Type
REMARK                         _______ _______ _______ _____ _____    ______ ____
ROOT
ATOM      1  C   UNL     1       4.431   4.872  16.797  0.00  0.00    +0.000 A 
ATOM      2  C   UNL     1       4.173   6.028  17.534  0.00  0.00    +0.000 A 
ATOM      3  C   UNL     1       3.564   5.935  18.786  0.00  0.00    +0.000 A 
ATOM      4  C   UNL     1       3.199   4.694  19.332  0.00  0.00    +0.000 A 
ATOM      5  C   UNL     1       3.464   3.522  18.606  0.00  0.00    +0.000 A 
ATOM      6  C   UNL     1       4.077   3.629  17.344  0.00  0.00    +0.000 A 
ENDROOT
BRANCH   4   7
ATOM      7  O   UNL     1       2.605   4.825  20.561  0.00  0.00    +0.000 OA
ATOM      8  C   UNL     1       1.598   5.811  20.732  0.00  0.00    +0.000 C 
ENDBRANCH   4   7
BRANCH   5   9
ATOM      9  O   UNL     1       3.129   2.316  19.162  0.00  0.00    +0.000 OA
ATOM     10  C   UNL     1       1.782   1.875  19.071  0.00  0.00    +0.000 C 
ENDBRANCH   5   9
BRANCH   1  11
ATOM     11  C   UNL     1       5.134   4.949  15.463  0.00  0.00    +0.000 C 
BRANCH  11  12
ATOM     12  C   UNL     1       6.500   4.258  15.448  0.00  0.00    +0.000 C 
BRANCH  12  13
ATOM     13  C   UNL     1       7.432   4.906  16.441  0.00  0.00    +0.000 C 
ATOM     14  O   UNL     1       8.055   4.318  17.314  0.00  0.00    +0.000 OA
BRANCH  13  16
ATOM     15  C   UNL     1       7.579   7.032  17.403  0.00  0.00    +0.000 C 
ATOM     16  O   UNL     1       7.492   6.248  16.211  0.00  0.00    +0.000 OA
ENDBRANCH  13  16
ENDBRANCH  12  13
ENDBRANCH  11  12
ENDBRANCH   1  11
TORSDOF 6
ENDMDL
