MODEL 1
REMARK VINA RESULT:      -5.5      0.000      0.000
REMARK  Name = 
REMARK  9 active torsions:
REMARK  status: ('A' for Active; 'I' for Inactive)
REMARK    1  A    between atoms: C_1  and  C_2
REMARK    2  A    between atoms: C_6  and  C_7
REMARK    3  A    between atoms: C_7  and  N_8
REMARK    4  A    between atoms: N_8  and  C_9
REMARK    5  A    between atoms: N_8  and  C_10
REMARK    6  A    between atoms: C_10  and  C_11
REMARK    7  A    between atoms: C_11  and  O_12
REMARK    8  A    between atoms: C_11  and  C_13
REMARK    9  A    between atoms: C_13  and  O_14
REMARK                            x       y       z     vdW  Elec       q    Type
REMARK                         _______ _______ _______ _____ _____    ______ ____
ROOT
ATOM      1  N   UNL     1       2.961   4.165  18.237  0.00  0.00    +0.000 NA
ATOM      2  C   UNL     1       2.300   5.481  18.155  0.00  0.00    +0.000 C 
ENDROOT
BRANCH   1   3
ATOM      3  C   UNL     1       3.789   3.900  17.041  0.00  0.00    +0.000 C 
BRANCH   3   9
ATOM      4  C   UNL     1       6.277   4.036  14.870  0.00  0.00    +0.000 C 
ATOM      5  C   UNL     1       6.310   4.258  16.336  0.00  0.00    +0.000 A 
ATOM      6  N   UNL     1       7.535   4.567  16.917  0.00  0.00    +0.000 NA
ATOM      7  N   UNL     1       7.438   4.747  18.221  0.00  0.00    +0.000 NA
ATOM      8  S   UNL     1       5.879   4.553  18.787  0.00  0.00    +0.000 S 
ATOM      9  C   UNL     1       5.248   4.185  17.230  0.00  0.00    +0.000 A 
ENDBRANCH   3   9
ENDBRANCH   1   3
BRANCH   1  10
ATOM     10  C   UNL     1       1.905   3.137  18.385  0.00  0.00    +0.000 C 
BRANCH  10  11
ATOM     11  C   UNL     1       1.623   2.614  19.809  0.00  0.00    +0.000 C 
BRANCH  11  12
ATOM     12  O   UNL     1       0.453   3.272  20.338  0.00  0.00    +0.000 OA
ATOM     13  H   UNL     1       0.097   2.720  21.056  0.00  0.00    +0.000 HD
ENDBRANCH  11  12
BRANCH  11  14
ATOM     14  C   UNL     1       2.784   2.860  20.775  0.00  0.00    +0.000 C 
BRANCH  14  15
ATOM     15  O   UNL     1       2.278   3.037  22.099  0.00  0.00    +0.000 OA
ATOM     16  H   UNL     1       1.543   2.401  22.197  0.00  0.00    +0.000 HD
ENDBRANCH  14  15
ENDBRANCH  11  14
ENDBRANCH  10  11
ENDBRANCH   1  10
TORSDOF 7
ENDMDL
MODEL 2
REMARK VINA RESULT:      -5.5      1.657      1.777
REMARK  Name = 
REMARK  9 active torsions:
REMARK  status: ('A' for Active; 'I' for Inactive)
REMARK    1  A    between atoms: C_1  and  C_2
REMARK    2  A    between atoms: C_6  and  C_7
REMARK    3  A    between atoms: C_7  and  N_8
REMARK    4  A    between atoms: N_8  and  C_9
REMARK    5  A    between atoms: N_8  and  C_10
REMARK    6  A    between atoms: C_10  and  C_11
REMARK    7  A    between atoms: C_11  and  O_12
REMARK    8  A    between atoms: C_11  and  C_13
REMARK    9  A    between atoms: C_13  and  O_14
REMARK                            x       y       z     vdW  Elec       q    Type
REMARK                         _______ _______ _______ _____ _____    ______ ____
ROOT
ATOM      1  N   UNL     1       3.301   4.674  18.452  0.00  0.00    +0.000 NA
ATOM      2  C   UNL     1       2.838   5.622  19.481  0.00  0.00    +0.000 C 
ENDROOT
BRANCH   1   3
ATOM      3  C   UNL     1       4.132   5.346  17.430  0.00  0.00    +0.000 C 
BRANCH   3   9
ATOM      4  C   UNL     1       6.233   4.146  15.178  0.00  0.00    +0.000 C 
ATOM      5  C   UNL     1       6.499   4.529  16.586  0.00  0.00    +0.000 A 
ATOM      6  N   UNL     1       7.795   4.379  17.065  0.00  0.00    +0.000 NA
ATOM      7  N   UNL     1       7.910   4.757  18.324  0.00  0.00    +0.000 NA
ATOM      8  S   UNL     1       6.471   5.304  18.969  0.00  0.00    +0.000 S 
ATOM      9  C   UNL     1       5.592   5.024  17.518  0.00  0.00    +0.000 A 
ENDBRANCH   3   9
ENDBRANCH   1   3
BRANCH   1  10
ATOM     10  C   UNL     1       2.105   4.055  17.834  0.00  0.00    +0.000 C 
BRANCH  10  11
ATOM     11  C   UNL     1       1.931   2.531  18.003  0.00  0.00    +0.000 C 
BRANCH  11  12
ATOM     12  O   UNL     1       0.731   2.267  18.758  0.00  0.00    +0.000 OA
ATOM     13  H   UNL     1       0.062   2.925  18.500  0.00  0.00    +0.000 HD
ENDBRANCH  11  12
BRANCH  11  14
ATOM     14  C   UNL     1       3.107   1.875  18.731  0.00  0.00    +0.000 C 
BRANCH  14  15
ATOM     15  O   UNL     1       4.223   1.772  17.845  0.00  0.00    +0.000 OA
ATOM     16  H   UNL     1       4.306   0.825  17.621  0.00  0.00    +0.000 HD
ENDBRANCH  14  15
ENDBRANCH  11  14
ENDBRANCH  10  11
ENDBRANCH   1  10
TORSDOF 7
ENDMDL
MODEL 3
REMARK VINA RESULT:      -5.4      2.021      2.609
REMARK  Name = 
REMARK  9 active torsions:
REMARK  status: ('A' for Active; 'I' for Inactive)
REMARK    1  A    between atoms: C_1  and  C_2
REMARK    2  A    between atoms: C_6  and  C_7
REMARK    3  A    between atoms: C_7  and  N_8
REMARK    4  A    between atoms: N_8  and  C_9
REMARK    5  A    between atoms: N_8  and  C_10
REMARK    6  A    between atoms: C_10  and  C_11
REMARK    7  A    between atoms: C_11  and  O_12
REMARK    8  A    between atoms: C_11  and  C_13
REMARK    9  A    between atoms: C_13  and  O_14
REMARK                            x       y       z     vdW  Elec       q    Type
REMARK                         _______ _______ _______ _____ _____    ______ ____
ROOT
ATOM      1  N   UNL     1       4.388   3.638  18.710  0.00  0.00    +0.000 NA
ATOM      2  C   UNL     1       4.390   2.530  19.682  0.00  0.00    +0.000 C 
ENDROOT
BRANCH   1   3
ATOM      3  C   UNL     1       5.571   4.509  18.878  0.00  0.00    +0.000 C 
BRANCH   3   9
ATOM      4  C   UNL     1       7.776   6.893  18.260  0.00  0.00    +0.000 C 
ATOM      5  C   UNL     1       7.096   5.985  17.304  0.00  0.00    +0.000 A 
ATOM      6  N   UNL     1       7.399   6.122  15.955  0.00  0.00    +0.000 NA
ATOM      7  N   UNL     1       6.740   5.258  15.205  0.00  0.00    +0.000 NA
ATOM      8  S   UNL     1       5.741   4.259  16.095  0.00  0.00    +0.000 S 
ATOM      9  C   UNL     1       6.163   4.994  17.591  0.00  0.00    +0.000 A 
ENDBRANCH   3   9
ENDBRANCH   1   3
BRANCH   1  10
ATOM     10  C   UNL     1       3.137   4.407  18.902  0.00  0.00    +0.000 C 
BRANCH  10  11
ATOM     11  C   UNL     1       1.811   3.617  18.877  0.00  0.00    +0.000 C 
BRANCH  11  12
ATOM     12  O   UNL     1       1.108   3.900  17.650  0.00  0.00    +0.000 OA
ATOM     13  H   UNL     1       0.338   3.305  17.601  0.00  0.00    +0.000 HD
ENDBRANCH  11  12
BRANCH  11  14
ATOM     14  C   UNL     1       0.888   3.966  20.047  0.00  0.00    +0.000 C 
BRANCH  14  15
ATOM     15  O   UNL     1       0.902   2.905  21.002  0.00  0.00    +0.000 OA
ATOM     16  H   UNL     1       1.182   2.104  20.516  0.00  0.00    +0.000 HD
ENDBRANCH  14  15
ENDBRANCH  11  14
ENDBRANCH  10  11
ENDBRANCH   1  10
TORSDOF 7
ENDMDL
MODEL 4
REMARK VINA RESULT:      -5.4      2.070      2.412
REMARK  Name = 
REMARK  9 active torsions:
REMARK  status: ('A' for Active; 'I' for Inactive)
REMARK    1  A    between atoms: C_1  and  C_2
REMARK    2  A    between atoms: C_6  and  C_7
REMARK    3  A    between atoms: C_7  and  N_8
REMARK    4  A    between atoms: N_8  and  C_9
REMARK    5  A    between atoms: N_8  and  C_10
REMARK    6  A    between atoms: C_10  and  C_11
REMARK    7  A    between atoms: C_11  and  O_12
REMARK    8  A    between atoms: C_11  and  C_13
REMARK    9  A    between atoms: C_13  and  O_14
REMARK                            x       y       z     vdW  Elec       q    Type
REMARK                         _______ _______ _______ _____ _____    ______ ____
ROOT
ATOM      1  N   UNL     1       3.730   5.066  18.505  0.00  0.00    +0.000 NA
ATOM      2  C   UNL     1       2.943   6.279  18.794  0.00  0.00    +0.000 C 
ENDROOT
BRANCH   1   3
ATOM      3  C   UNL     1       3.954   4.899  17.053  0.00  0.00    +0.000 C 
BRANCH   3   9
ATOM      4  C   UNL     1       5.615   4.194  14.284  0.00  0.00    +0.000 C 
ATOM      5  C   UNL     1       6.036   5.033  15.432  0.00  0.00    +0.000 A 
ATOM      6  N   UNL     1       7.294   5.623  15.377  0.00  0.00    +0.000 NA
ATOM      7  N   UNL     1       7.553   6.348  16.449  0.00  0.00    +0.000 NA
ATOM      8  S   UNL     1       6.299   6.346  17.551  0.00  0.00    +0.000 S 
ATOM      9  C   UNL     1       5.320   5.306  16.592  0.00  0.00    +0.000 A 
ENDBRANCH   3   9
ENDBRANCH   1   3
BRANCH   1  10
ATOM     10  C   UNL     1       2.996   3.906  19.062  0.00  0.00    +0.000 C 
BRANCH  10  11
ATOM     11  C   UNL     1       3.826   2.664  19.447  0.00  0.00    +0.000 C 
BRANCH  11  12
ATOM     12  O   UNL     1       5.228   2.998  19.422  0.00  0.00    +0.000 OA
ATOM     13  H   UNL     1       5.308   3.946  19.214  0.00  0.00    +0.000 HD
ENDBRANCH  11  12
BRANCH  11  14
ATOM     14  C   UNL     1       3.601   1.481  18.501  0.00  0.00    +0.000 C 
BRANCH  14  15
ATOM     15  O   UNL     1       2.392   1.678  17.766  0.00  0.00    +0.000 OA
ATOM     16  H   UNL     1       2.398   1.013  17.050  0.00  0.00    +0.000 HD
ENDBRANCH  14  15
ENDBRANCH  11  14
ENDBRANCH  10  11
ENDBRANCH   1  10
TORSDOF 7
ENDMDL
MODEL 5
REMARK VINA RESULT:      -5.3      2.140      2.853
REMARK  Name = 
REMARK  9 active torsions:
REMARK  status: ('A' for Active; 'I' for Inactive)
REMARK    1  A    between atoms: C_1  and  C_2
REMARK    2  A    between atoms: C_6  and  C_7
REMARK    3  A    between atoms: C_7  and  N_8
REMARK    4  A    between atoms: N_8  and  C_9
REMARK    5  A    between atoms: N_8  and  C_10
REMARK    6  A    between atoms: C_10  and  C_11
REMARK    7  A    between atoms: C_11  and  O_12
REMARK    8  A    between atoms: C_11  and  C_13
REMARK    9  A    between atoms: C_13  and  O_14
REMARK                            x       y       z     vdW  Elec       q    Type
REMARK                         _______ _______ _______ _____ _____    ______ ____
ROOT
ATOM      1  N   UNL     1       3.843   4.240  19.178  0.00  0.00    +0.000 NA
ATOM      2  C   UNL     1       4.608   3.004  19.420  0.00  0.00    +0.000 C 
ENDROOT
BRANCH   1   3
ATOM      3  C   UNL     1       4.708   5.437  19.249  0.00  0.00    +0.000 C 
BRANCH   3   9
ATOM      4  C   UNL     1       7.920   6.152  18.938  0.00  0.00    +0.000 C 
ATOM      5  C   UNL     1       6.908   5.944  17.875  0.00  0.00    +0.000 A 
ATOM      6  N   UNL     1       7.324   6.056  16.553  0.00  0.00    +0.000 NA
ATOM      7  N   UNL     1       6.339   5.844  15.700  0.00  0.00    +0.000 NA
ATOM      8  S   UNL     1       4.890   5.504  16.455  0.00  0.00    +0.000 S 
ATOM      9  C   UNL     1       5.557   5.653  18.033  0.00  0.00    +0.000 A 
ENDBRANCH   3   9
ENDBRANCH   1   3
BRANCH   1  10
ATOM     10  C   UNL     1       2.764   4.311  20.191  0.00  0.00    +0.000 C 
BRANCH  10  11
ATOM     11  C   UNL     1       1.332   3.979  19.723  0.00  0.00    +0.000 C 
BRANCH  11  12
ATOM     12  O   UNL     1       0.671   3.182  20.727  0.00  0.00    +0.000 OA
ATOM     13  H   UNL     1      -0.087   3.692  21.064  0.00  0.00    +0.000 HD
ENDBRANCH  11  12
BRANCH  11  14
ATOM     14  C   UNL     1       1.302   3.203  18.403  0.00  0.00    +0.000 C 
BRANCH  14  15
ATOM     15  O   UNL     1       1.351   4.118  17.308  0.00  0.00    +0.000 OA
ATOM     16  H   UNL     1       2.229   4.545  17.349  0.00  0.00    +0.000 HD
ENDBRANCH  14  15
ENDBRANCH  11  14
ENDBRANCH  10  11
ENDBRANCH   1  10
TORSDOF 7
ENDMDL
MODEL 6
REMARK VINA RESULT:      -5.3      1.811      2.615
REMARK  Name = 
REMARK  9 active torsions:
REMARK  status: ('A' for Active; 'I' for Inactive)
REMARK    1  A    between atoms: C_1  and  C_2
REMARK    2  A    between atoms: C_6  and  C_7
REMARK    3  A    between atoms: C_7  and  N_8
REMARK    4  A    between atoms: N_8  and  C_9
REMARK    5  A    between atoms: N_8  and  C_10
REMARK    6  A    between atoms: C_10  and  C_11
REMARK    7  A    between atoms: C_11  and  O_12
REMARK    8  A    between atoms: C_11  and  C_13
REMARK    9  A    between atoms: C_13  and  O_14
REMARK                            x       y       z     vdW  Elec       q    Type
REMARK                         _______ _______ _______ _____ _____    ______ ____
ROOT
ATOM      1  N   UNL     1       3.737   3.847  19.265  0.00  0.00    +0.000 NA
ATOM      2  C   UNL     1       4.431   2.683  19.845  0.00  0.00    +0.000 C 
ENDROOT
BRANCH   1   3
ATOM      3  C   UNL     1       4.656   4.991  19.083  0.00  0.00    +0.000 C 
BRANCH   3   9
ATOM      4  C   UNL     1       7.896   5.633  18.950  0.00  0.00    +0.000 C 
ATOM      5  C   UNL     1       7.019   5.059  17.901  0.00  0.00    +0.000 A 
ATOM      6  N   UNL     1       7.597   4.732  16.679  0.00  0.00    +0.000 NA
ATOM      7  N   UNL     1       6.722   4.226  15.831  0.00  0.00    +0.000 NA
ATOM      8  S   UNL     1       5.183   4.125  16.472  0.00  0.00    +0.000 S 
ATOM      9  C   UNL     1       5.653   4.807  17.979  0.00  0.00    +0.000 A 
ENDBRANCH   3   9
ENDBRANCH   1   3
BRANCH   1  10
ATOM     10  C   UNL     1       2.622   4.207  20.170  0.00  0.00    +0.000 C 
BRANCH  10  11
ATOM     11  C   UNL     1       1.195   3.830  19.719  0.00  0.00    +0.000 C 
BRANCH  11  12
ATOM     12  O   UNL     1       0.603   2.944  20.691  0.00  0.00    +0.000 OA
ATOM     13  H   UNL     1       0.565   2.052  20.301  0.00  0.00    +0.000 HD
ENDBRANCH  11  12
BRANCH  11  14
ATOM     14  C   UNL     1       1.167   3.130  18.357  0.00  0.00    +0.000 C 
BRANCH  14  15
ATOM     15  O   UNL     1       0.363   1.952  18.440  0.00  0.00    +0.000 OA
ATOM     16  H   UNL     1       0.536   1.565  19.321  0.00  0.00    +0.000 HD
ENDBRANCH  14  15
ENDBRANCH  11  14
ENDBRANCH  10  11
ENDBRANCH   1  10
TORSDOF 7
ENDMDL
MODEL 7
REMARK VINA RESULT:      -5.3      1.750      1.959
REMARK  Name = 
REMARK  9 active torsions:
REMARK  status: ('A' for Active; 'I' for Inactive)
REMARK    1  A    between atoms: C_1  and  C_2
REMARK    2  A    between atoms: C_6  and  C_7
REMARK    3  A    between atoms: C_7  and  N_8
REMARK    4  A    between atoms: N_8  and  C_9
REMARK    5  A    between atoms: N_8  and  C_10
REMARK    6  A    between atoms: C_10  and  C_11
REMARK    7  A    between atoms: C_11  and  O_12
REMARK    8  A    between atoms: C_11  and  C_13
REMARK    9  A    between atoms: C_13  and  O_14
REMARK                            x       y       z     vdW  Elec       q    Type
REMARK                         _______ _______ _______ _____ _____    ______ ____
ROOT
ATOM      1  N   UNL     1       3.596   6.090  18.286  0.00  0.00    +0.000 NA
ATOM      2  C   UNL     1       3.014   7.421  18.036  0.00  0.00    +0.000 C 
ENDROOT
BRANCH   1   3
ATOM      3  C   UNL     1       4.285   5.565  17.088  0.00  0.00    +0.000 C 
BRANCH   3   9
ATOM      4  C   UNL     1       6.575   4.357  15.034  0.00  0.00    +0.000 C 
ATOM      5  C   UNL     1       6.688   4.649  16.484  0.00  0.00    +0.000 A 
ATOM      6  N   UNL     1       7.906   4.393  17.103  0.00  0.00    +0.000 NA
ATOM      7  N   UNL     1       7.887   4.696  18.388  0.00  0.00    +0.000 NA
ATOM      8  S   UNL     1       6.412   5.297  18.889  0.00  0.00    +0.000 S 
ATOM      9  C   UNL     1       5.703   5.149  17.329  0.00  0.00    +0.000 A 
ENDBRANCH   3   9
ENDBRANCH   1   3
BRANCH   1  10
ATOM     10  C   UNL     1       2.498   5.186  18.700  0.00  0.00    +0.000 C 
BRANCH  10  11
ATOM     11  C   UNL     1       2.408   3.815  17.998  0.00  0.00    +0.000 C 
BRANCH  11  12
ATOM     12  O   UNL     1       1.047   3.575  17.588  0.00  0.00    +0.000 OA
ATOM     13  H   UNL     1       1.011   3.632  16.616  0.00  0.00    +0.000 HD
ENDBRANCH  11  12
BRANCH  11  14
ATOM     14  C   UNL     1       2.847   2.656  18.896  0.00  0.00    +0.000 C 
BRANCH  14  15
ATOM     15  O   UNL     1       2.622   1.416  18.223  0.00  0.00    +0.000 OA
ATOM     16  H   UNL     1       3.397   1.277  17.644  0.00  0.00    +0.000 HD
ENDBRANCH  14  15
ENDBRANCH  11  14
ENDBRANCH  10  11
ENDBRANCH   1  10
TORSDOF 7
ENDMDL
MODEL 8
REMARK VINA RESULT:      -5.3      3.826      5.733
REMARK  Name = 
REMARK  9 active torsions:
REMARK  status: ('A' for Active; 'I' for Inactive)
REMARK    1  A    between atoms: C_1  and  C_2
REMARK    2  A    between atoms: C_6  and  C_7
REMARK    3  A    between atoms: C_7  and  N_8
REMARK    4  A    between atoms: N_8  and  C_9
REMARK    5  A    between atoms: N_8  and  C_10
REMARK    6  A    between atoms: C_10  and  C_11
REMARK    7  A    between atoms: C_11  and  O_12
REMARK    8  A    between atoms: C_11  and  C_13
REMARK    9  A    between atoms: C_13  and  O_14
REMARK                            x       y       z     vdW  Elec       q    Type
REMARK                         _______ _______ _______ _____ _____    ______ ____
ROOT
ATOM      1  N   UNL     1       4.562   5.258  17.821  0.00  0.00    +0.000 NA
ATOM      2  C   UNL     1       3.889   6.567  17.747  0.00  0.00    +0.000 C 
ENDROOT
BRANCH   1   3
ATOM      3  C   UNL     1       4.454   4.668  19.172  0.00  0.00    +0.000 C 
BRANCH   3   9
ATOM      4  C   UNL     1       2.821   2.089  17.903  0.00  0.00    +0.000 C 
ATOM      5  C   UNL     1       2.398   3.018  18.979  0.00  0.00    +0.000 A 
ATOM      6  N   UNL     1       1.152   2.813  19.560  0.00  0.00    +0.000 NA
ATOM      7  N   UNL     1       0.890   3.695  20.506  0.00  0.00    +0.000 NA
ATOM      8  S   UNL     1       2.128   4.794  20.727  0.00  0.00    +0.000 S 
ATOM      9  C   UNL     1       3.102   4.104  19.489  0.00  0.00    +0.000 A 
ENDBRANCH   3   9
ENDBRANCH   1   3
BRANCH   1  10
ATOM     10  C   UNL     1       5.981   5.456  17.445  0.00  0.00    +0.000 C 
BRANCH  10  11
ATOM     11  C   UNL     1       6.648   4.353  16.596  0.00  0.00    +0.000 C 
BRANCH  11  12
ATOM     12  O   UNL     1       8.003   4.155  17.047  0.00  0.00    +0.000 OA
ATOM     13  H   UNL     1       8.087   4.555  17.931  0.00  0.00    +0.000 HD
ENDBRANCH  11  12
BRANCH  11  14
ATOM     14  C   UNL     1       6.687   4.691  15.104  0.00  0.00    +0.000 C 
BRANCH  14  15
ATOM     15  O   UNL     1       7.801   5.544  14.835  0.00  0.00    +0.000 OA
ATOM     16  H   UNL     1       7.506   6.452  15.045  0.00  0.00    +0.000 HD
ENDBRANCH  14  15
ENDBRANCH  11  14
ENDBRANCH  10  11
ENDBRANCH   1  10
TORSDOF 7
ENDMDL
MODEL 9
REMARK VINA RESULT:      -5.3      1.814      2.319
REMARK  Name = 
REMARK  9 active torsions:
REMARK  status: ('A' for Active; 'I' for Inactive)
REMARK    1  A    between atoms: C_1  and  C_2
REMARK    2  A    between atoms: C_6  and  C_7
REMARK    3  A    between atoms: C_7  and  N_8
REMARK    4  A    between atoms: N_8  and  C_9
REMARK    5  A    between atoms: N_8  and  C_10
REMARK    6  A    between atoms: C_10  and  C_11
REMARK    7  A    between atoms: C_11  and  O_12
REMARK    8  A    between atoms: C_11  and  C_13
REMARK    9  A    between atoms: C_13  and  O_14
REMARK                            x       y       z     vdW  Elec       q    Type
REMARK                         _______ _______ _______ _____ _____    ______ ____
ROOT
ATOM      1  N   UNL     1       2.982   3.544  17.768  0.00  0.00    +0.000 NA
ATOM      2  C   UNL     1       2.647   2.123  17.567  0.00  0.00    +0.000 C 
ENDROOT
BRANCH   1   3
ATOM      3  C   UNL     1       4.444   3.751  17.847  0.00  0.00    +0.000 C 
BRANCH   3   9
ATOM      4  C   UNL     1       4.080   7.010  17.429  0.00  0.00    +0.000 C 
ATOM      5  C   UNL     1       4.861   6.049  16.612  0.00  0.00    +0.000 A 
ATOM      6  N   UNL     1       5.548   6.545  15.510  0.00  0.00    +0.000 NA
ATOM      7  N   UNL     1       6.208   5.601  14.866  0.00  0.00    +0.000 NA
ATOM      8  S   UNL     1       6.026   4.094  15.562  0.00  0.00    +0.000 S 
ATOM      9  C   UNL     1       4.989   4.678  16.804  0.00  0.00    +0.000 A 
ENDBRANCH   3   9
ENDBRANCH   1   3
BRANCH   1  10
ATOM     10  C   UNL     1       2.318   3.994  19.013  0.00  0.00    +0.000 C 
BRANCH  10  11
ATOM     11  C   UNL     1       1.821   2.902  19.983  0.00  0.00    +0.000 C 
BRANCH  11  12
ATOM     12  O   UNL     1       0.517   3.263  20.484  0.00  0.00    +0.000 OA
ATOM     13  H   UNL     1      -0.103   3.262  19.734  0.00  0.00    +0.000 HD
ENDBRANCH  11  12
BRANCH  11  14
ATOM     14  C   UNL     1       2.752   2.701  21.181  0.00  0.00    +0.000 C 
BRANCH  14  15
ATOM     15  O   UNL     1       2.135   3.217  22.361  0.00  0.00    +0.000 OA
ATOM     16  H   UNL     1       2.834   3.250  23.043  0.00  0.00    +0.000 HD
ENDBRANCH  14  15
ENDBRANCH  11  14
ENDBRANCH  10  11
ENDBRANCH   1  10
TORSDOF 7
ENDMDL
