MODEL 1
REMARK VINA RESULT:      -8.1      0.000      0.000
REMARK  Name = 
REMARK  9 active torsions:
REMARK  status: ('A' for Active; 'I' for Inactive)
REMARK    1  A    between atoms: C_1  and  C_2
REMARK    2  A    between atoms: C_2  and  N_3
REMARK    3  A    between atoms: N_3  and  C_4
REMARK    4  A    between atoms: C_5  and  O_7
REMARK    5  A    between atoms: O_7  and  C_8
REMARK    6  A    between atoms: C_12  and  C_13
REMARK    7  A    between atoms: C_13  and  C_14
REMARK    8  A    between atoms: C_14  and  N_15
REMARK    9  A    between atoms: C_16  and  C_18
REMARK                            x       y       z     vdW  Elec       q    Type
REMARK                         _______ _______ _______ _____ _____    ______ ____
ROOT
ATOM      1  C   UNL     1       2.501   7.540  18.845  0.00  0.00    +0.000 C 
ENDROOT
BRANCH   1   2
ATOM      2  N   UNL     1       1.675   8.724  19.151  0.00  0.00    +0.000 N 
ATOM      3  C   UNL     1       1.074   8.860  20.384  0.00  0.00    +0.000 C 
ATOM      4  O   UNL     1       1.295   8.057  21.290  0.00  0.00    +0.000 OA
ATOM      5  H   UNL     1       1.323   9.281  18.387  0.00  0.00    +0.000 HD
BRANCH   3   6
ATOM      6  C   UNL     1       0.109   9.995  20.596  0.00  0.00    +0.000 A 
ATOM      7  C   UNL     1      -0.415  10.484  19.460  0.00  0.00    +0.000 A 
ATOM      8  C   UNL     1      -1.252  11.681  19.503  0.00  0.00    +0.000 A 
ATOM      9  O   UNL     1      -1.522  12.309  18.489  0.00  0.00    +0.000 OA
ATOM     10  C   UNL     1      -1.775  12.041  20.819  0.00  0.00    +0.000 A 
ATOM     11  C   UNL     1      -2.858  12.926  20.909  0.00  0.00    +0.000 A 
ATOM     12  C   UNL     1      -3.469  13.131  22.140  0.00  0.00    +0.000 A 
ATOM     13  C   UNL     1      -2.969  12.480  23.272  0.00  0.00    +0.000 A 
ATOM     14  C   UNL     1      -1.844  11.640  23.182  0.00  0.00    +0.000 A 
ATOM     15  C   UNL     1      -1.248  11.402  21.944  0.00  0.00    +0.000 A 
ATOM     16  O   UNL     1      -0.190  10.506  21.866  0.00  0.00    +0.000 OA
ENDBRANCH   3   6
ENDBRANCH   1   2
BRANCH   1  17
ATOM     17  C   UNL     1       3.453   7.721  17.642  0.00  0.00    +0.000 C 
BRANCH  17  22
ATOM     18  C   UNL     1       4.264   4.019  17.103  0.00  0.00    +0.000 A 
ATOM     19  C   UNL     1       5.262   4.069  16.137  0.00  0.00    +0.000 A 
ATOM     20  C   UNL     1       5.657   5.306  15.624  0.00  0.00    +0.000 A 
ATOM     21  C   UNL     1       5.052   6.491  16.091  0.00  0.00    +0.000 A 
ATOM     22  C   UNL     1       4.054   6.451  17.064  0.00  0.00    +0.000 A 
ATOM     23  C   UNL     1       3.671   5.200  17.576  0.00  0.00    +0.000 A 
BRANCH  18  24
ATOM     24  O   UNL     1       3.989   2.770  17.692  0.00  0.00    +0.000 OA
BRANCH  24  27
ATOM     25  N   UNL     1       2.661   2.489  19.567  0.00  0.00    +0.000 N 
ATOM     26  C   UNL     1       1.543   2.290  18.662  0.00  0.00    +0.000 C 
ATOM     27  C   UNL     1       3.951   2.691  19.085  0.00  0.00    +0.000 C 
ATOM     28  O   UNL     1       4.939   2.766  19.808  0.00  0.00    +0.000 OA
BRANCH  25  30
ATOM     29  C   UNL     1       1.888   3.347  21.763  0.00  0.00    +0.000 C 
ATOM     30  C   UNL     1       2.483   2.184  20.981  0.00  0.00    +0.000 C 
ENDBRANCH  25  30
ENDBRANCH  24  27
ENDBRANCH  18  24
ENDBRANCH  17  22
ENDBRANCH   1  17
TORSDOF 7
ENDMDL
MODEL 2
REMARK VINA RESULT:      -8.0      1.173      2.155
REMARK  Name = 
REMARK  9 active torsions:
REMARK  status: ('A' for Active; 'I' for Inactive)
REMARK    1  A    between atoms: C_1  and  C_2
REMARK    2  A    between atoms: C_2  and  N_3
REMARK    3  A    between atoms: N_3  and  C_4
REMARK    4  A    between atoms: C_5  and  O_7
REMARK    5  A    between atoms: O_7  and  C_8
REMARK    6  A    between atoms: C_12  and  C_13
REMARK    7  A    between atoms: C_13  and  C_14
REMARK    8  A    between atoms: C_14  and  N_15
REMARK    9  A    between atoms: C_16  and  C_18
REMARK                            x       y       z     vdW  Elec       q    Type
REMARK                         _______ _______ _______ _____ _____    ______ ____
ROOT
ATOM      1  C   UNL     1       2.427   8.549  17.517  0.00  0.00    +0.000 C 
ENDROOT
BRANCH   1   2
ATOM      2  N   UNL     1       1.404   8.985  18.488  0.00  0.00    +0.000 N 
ATOM      3  C   UNL     1       1.275  10.316  18.821  0.00  0.00    +0.000 C 
ATOM      4  O   UNL     1       1.935  11.181  18.244  0.00  0.00    +0.000 OA
ATOM      5  H   UNL     1       0.998   8.298  19.107  0.00  0.00    +0.000 HD
BRANCH   3   6
ATOM      6  C   UNL     1       0.336  10.695  19.934  0.00  0.00    +0.000 A 
ATOM      7  C   UNL     1       0.775  10.353  21.156  0.00  0.00    +0.000 A 
ATOM      8  C   UNL     1      -0.099  10.526  22.315  0.00  0.00    +0.000 A 
ATOM      9  O   UNL     1       0.145   9.989  23.386  0.00  0.00    +0.000 OA
ATOM     10  C   UNL     1      -1.243  11.414  22.119  0.00  0.00    +0.000 A 
ATOM     11  C   UNL     1      -1.913  11.929  23.237  0.00  0.00    +0.000 A 
ATOM     12  C   UNL     1      -2.882  12.907  23.058  0.00  0.00    +0.000 A 
ATOM     13  C   UNL     1      -3.198  13.333  21.765  0.00  0.00    +0.000 A 
ATOM     14  C   UNL     1      -2.564  12.767  20.645  0.00  0.00    +0.000 A 
ATOM     15  C   UNL     1      -1.564  11.810  20.818  0.00  0.00    +0.000 A 
ATOM     16  O   UNL     1      -0.893  11.325  19.703  0.00  0.00    +0.000 OA
ENDBRANCH   3   6
ENDBRANCH   1   2
BRANCH   1  17
ATOM     17  C   UNL     1       3.586   7.735  18.135  0.00  0.00    +0.000 C 
BRANCH  17  22
ATOM     18  C   UNL     1       4.115   4.104  17.044  0.00  0.00    +0.000 A 
ATOM     19  C   UNL     1       5.027   4.234  16.003  0.00  0.00    +0.000 A 
ATOM     20  C   UNL     1       5.451   5.508  15.621  0.00  0.00    +0.000 A 
ATOM     21  C   UNL     1       4.964   6.648  16.293  0.00  0.00    +0.000 A 
ATOM     22  C   UNL     1       4.055   6.527  17.343  0.00  0.00    +0.000 A 
ATOM     23  C   UNL     1       3.640   5.238  17.721  0.00  0.00    +0.000 A 
BRANCH  18  24
ATOM     24  O   UNL     1       3.815   2.802  17.489  0.00  0.00    +0.000 OA
BRANCH  24  27
ATOM     25  N   UNL     1       2.840   2.328  19.534  0.00  0.00    +0.000 N 
ATOM     26  C   UNL     1       4.175   2.364  20.103  0.00  0.00    +0.000 C 
ATOM     27  C   UNL     1       2.623   2.601  18.187  0.00  0.00    +0.000 C 
ATOM     28  O   UNL     1       1.507   2.678  17.684  0.00  0.00    +0.000 OA
BRANCH  25  30
ATOM     29  C   UNL     1       1.892   3.156  21.673  0.00  0.00    +0.000 C 
ATOM     30  C   UNL     1       1.693   2.295  20.434  0.00  0.00    +0.000 C 
ENDBRANCH  25  30
ENDBRANCH  24  27
ENDBRANCH  18  24
ENDBRANCH  17  22
ENDBRANCH   1  17
TORSDOF 7
ENDMDL
MODEL 3
REMARK VINA RESULT:      -7.9      5.987      9.679
REMARK  Name = 
REMARK  9 active torsions:
REMARK  status: ('A' for Active; 'I' for Inactive)
REMARK    1  A    between atoms: C_1  and  C_2
REMARK    2  A    between atoms: C_2  and  N_3
REMARK    3  A    between atoms: N_3  and  C_4
REMARK    4  A    between atoms: C_5  and  O_7
REMARK    5  A    between atoms: O_7  and  C_8
REMARK    6  A    between atoms: C_12  and  C_13
REMARK    7  A    between atoms: C_13  and  C_14
REMARK    8  A    between atoms: C_14  and  N_15
REMARK    9  A    between atoms: C_16  and  C_18
REMARK                            x       y       z     vdW  Elec       q    Type
REMARK                         _______ _______ _______ _____ _____    ______ ____
ROOT
ATOM      1  C   UNL     1       8.351   8.527  17.611  0.00  0.00    +0.000 C 
ENDROOT
BRANCH   1   2
ATOM      2  N   UNL     1       7.159   7.745  17.992  0.00  0.00    +0.000 N 
ATOM      3  C   UNL     1       6.771   6.651  17.248  0.00  0.00    +0.000 C 
ATOM      4  O   UNL     1       7.463   6.240  16.316  0.00  0.00    +0.000 OA
ATOM      5  H   UNL     1       6.481   8.163  18.612  0.00  0.00    +0.000 HD
BRANCH   3   6
ATOM      6  C   UNL     1       5.461   5.984  17.573  0.00  0.00    +0.000 A 
ATOM      7  C   UNL     1       4.404   6.810  17.526  0.00  0.00    +0.000 A 
ATOM      8  C   UNL     1       3.092   6.335  17.961  0.00  0.00    +0.000 A 
ATOM      9  O   UNL     1       2.175   7.110  18.191  0.00  0.00    +0.000 OA
ATOM     10  C   UNL     1       2.943   4.885  18.054  0.00  0.00    +0.000 A 
ATOM     11  C   UNL     1       1.658   4.327  18.098  0.00  0.00    +0.000 A 
ATOM     12  C   UNL     1       1.511   2.949  18.007  0.00  0.00    +0.000 A 
ATOM     13  C   UNL     1       2.647   2.141  17.911  0.00  0.00    +0.000 A 
ATOM     14  C   UNL     1       3.935   2.706  17.928  0.00  0.00    +0.000 A 
ATOM     15  C   UNL     1       4.091   4.091  17.983  0.00  0.00    +0.000 A 
ATOM     16  O   UNL     1       5.368   4.630  17.916  0.00  0.00    +0.000 OA
ENDBRANCH   3   6
ENDBRANCH   1   2
BRANCH   1  17
ATOM     17  C   UNL     1       8.213  10.050  17.837  0.00  0.00    +0.000 C 
BRANCH  17  22
ATOM     18  C   UNL     1      10.115  11.768  20.680  0.00  0.00    +0.000 A 
ATOM     19  C   UNL     1      11.320  12.102  20.075  0.00  0.00    +0.000 A 
ATOM     20  C   UNL     1      11.542  11.740  18.745  0.00  0.00    +0.000 A 
ATOM     21  C   UNL     1      10.545  11.049  18.025  0.00  0.00    +0.000 A 
ATOM     22  C   UNL     1       9.330  10.715  18.622  0.00  0.00    +0.000 A 
ATOM     23  C   UNL     1       9.119  11.091  19.960  0.00  0.00    +0.000 A 
BRANCH  18  24
ATOM     24  O   UNL     1       9.875  12.267  21.975  0.00  0.00    +0.000 OA
BRANCH  24  27
ATOM     25  N   UNL     1       7.904  12.833  23.049  0.00  0.00    +0.000 N 
ATOM     26  C   UNL     1       8.027  11.589  23.786  0.00  0.00    +0.000 C 
ATOM     27  C   UNL     1       8.879  13.230  22.138  0.00  0.00    +0.000 C 
ATOM     28  O   UNL     1       8.867  14.316  21.566  0.00  0.00    +0.000 OA
BRANCH  25  30
ATOM     29  C   UNL     1       5.589  13.668  22.731  0.00  0.00    +0.000 C 
ATOM     30  C   UNL     1       6.909  13.809  23.477  0.00  0.00    +0.000 C 
ENDBRANCH  25  30
ENDBRANCH  24  27
ENDBRANCH  18  24
ENDBRANCH  17  22
ENDBRANCH   1  17
TORSDOF 7
ENDMDL
MODEL 4
REMARK VINA RESULT:      -7.9      2.068      2.617
REMARK  Name = 
REMARK  9 active torsions:
REMARK  status: ('A' for Active; 'I' for Inactive)
REMARK    1  A    between atoms: C_1  and  C_2
REMARK    2  A    between atoms: C_2  and  N_3
REMARK    3  A    between atoms: N_3  and  C_4
REMARK    4  A    between atoms: C_5  and  O_7
REMARK    5  A    between atoms: O_7  and  C_8
REMARK    6  A    between atoms: C_12  and  C_13
REMARK    7  A    between atoms: C_13  and  C_14
REMARK    8  A    between atoms: C_14  and  N_15
REMARK    9  A    between atoms: C_16  and  C_18
REMARK                            x       y       z     vdW  Elec       q    Type
REMARK                         _______ _______ _______ _____ _____    ______ ____
ROOT
ATOM      1  C   UNL     1       2.423   9.314  17.888  0.00  0.00    +0.000 C 
ENDROOT
BRANCH   1   2
ATOM      2  N   UNL     1       1.104   9.914  17.609  0.00  0.00    +0.000 N 
ATOM      3  C   UNL     1       0.197  10.121  18.626  0.00  0.00    +0.000 C 
ATOM      4  O   UNL     1       0.502   9.909  19.800  0.00  0.00    +0.000 OA
ATOM      5  H   UNL     1       0.760   9.913  16.660  0.00  0.00    +0.000 HD
BRANCH   3   6
ATOM      6  C   UNL     1      -1.192  10.580  18.274  0.00  0.00    +0.000 A 
ATOM      7  C   UNL     1      -1.711   9.968  17.197  0.00  0.00    +0.000 A 
ATOM      8  C   UNL     1      -2.990  10.418  16.653  0.00  0.00    +0.000 A 
ATOM      9  O   UNL     1      -3.365  10.083  15.538  0.00  0.00    +0.000 OA
ATOM     10  C   UNL     1      -3.801  11.245  17.544  0.00  0.00    +0.000 A 
ATOM     11  C   UNL     1      -5.166  11.413  17.272  0.00  0.00    +0.000 A 
ATOM     12  C   UNL     1      -5.973  12.048  18.208  0.00  0.00    +0.000 A 
ATOM     13  C   UNL     1      -5.403  12.540  19.386  0.00  0.00    +0.000 A 
ATOM     14  C   UNL     1      -4.021  12.419  19.622  0.00  0.00    +0.000 A 
ATOM     15  C   UNL     1      -3.211  11.752  18.704  0.00  0.00    +0.000 A 
ATOM     16  O   UNL     1      -1.866  11.573  18.997  0.00  0.00    +0.000 OA
ENDBRANCH   3   6
ENDBRANCH   1   2
BRANCH   1  17
ATOM     17  C   UNL     1       2.363   7.870  18.434  0.00  0.00    +0.000 C 
BRANCH  17  22
ATOM     18  C   UNL     1       3.911   4.527  17.394  0.00  0.00    +0.000 A 
ATOM     19  C   UNL     1       4.972   4.926  16.589  0.00  0.00    +0.000 A 
ATOM     20  C   UNL     1       5.173   6.286  16.347  0.00  0.00    +0.000 A 
ATOM     21  C   UNL     1       4.311   7.242  16.923  0.00  0.00    +0.000 A 
ATOM     22  C   UNL     1       3.248   6.851  17.736  0.00  0.00    +0.000 A 
ATOM     23  C   UNL     1       3.061   5.479  17.976  0.00  0.00    +0.000 A 
BRANCH  18  24
ATOM     24  O   UNL     1       3.821   3.161  17.724  0.00  0.00    +0.000 OA
BRANCH  24  27
ATOM     25  N   UNL     1       2.469   2.485  19.477  0.00  0.00    +0.000 N 
ATOM     26  C   UNL     1       1.374   2.438  18.525  0.00  0.00    +0.000 C 
ATOM     27  C   UNL     1       3.761   2.811  19.074  0.00  0.00    +0.000 C 
ATOM     28  O   UNL     1       4.732   2.768  19.821  0.00  0.00    +0.000 OA
BRANCH  25  30
ATOM     29  C   UNL     1       1.898   2.944  21.847  0.00  0.00    +0.000 C 
ATOM     30  C   UNL     1       2.275   1.905  20.800  0.00  0.00    +0.000 C 
ENDBRANCH  25  30
ENDBRANCH  24  27
ENDBRANCH  18  24
ENDBRANCH  17  22
ENDBRANCH   1  17
TORSDOF 7
ENDMDL
MODEL 5
REMARK VINA RESULT:      -7.8      0.767      1.094
REMARK  Name = 
REMARK  9 active torsions:
REMARK  status: ('A' for Active; 'I' for Inactive)
REMARK    1  A    between atoms: C_1  and  C_2
REMARK    2  A    between atoms: C_2  and  N_3
REMARK    3  A    between atoms: N_3  and  C_4
REMARK    4  A    between atoms: C_5  and  O_7
REMARK    5  A    between atoms: O_7  and  C_8
REMARK    6  A    between atoms: C_12  and  C_13
REMARK    7  A    between atoms: C_13  and  C_14
REMARK    8  A    between atoms: C_14  and  N_15
REMARK    9  A    between atoms: C_16  and  C_18
REMARK                            x       y       z     vdW  Elec       q    Type
REMARK                         _______ _______ _______ _____ _____    ______ ____
ROOT
ATOM      1  C   UNL     1       2.421   7.648  18.920  0.00  0.00    +0.000 C 
ENDROOT
BRANCH   1   2
ATOM      2  N   UNL     1       1.567   8.815  19.214  0.00  0.00    +0.000 N 
ATOM      3  C   UNL     1       1.071   9.021  20.483  0.00  0.00    +0.000 C 
ATOM      4  O   UNL     1       1.412   8.300  21.421  0.00  0.00    +0.000 OA
ATOM      5  H   UNL     1       1.121   9.297  18.446  0.00  0.00    +0.000 HD
BRANCH   3   6
ATOM      6  C   UNL     1       0.074  10.127  20.699  0.00  0.00    +0.000 A 
ATOM      7  C   UNL     1      -0.441  10.626  19.564  0.00  0.00    +0.000 A 
ATOM      8  C   UNL     1      -1.308  11.800  19.615  0.00  0.00    +0.000 A 
ATOM      9  O   UNL     1      -1.575  12.443  18.609  0.00  0.00    +0.000 OA
ATOM     10  C   UNL     1      -1.866  12.119  20.927  0.00  0.00    +0.000 A 
ATOM     11  C   UNL     1      -2.973  12.975  21.014  0.00  0.00    +0.000 A 
ATOM     12  C   UNL     1      -3.612  13.138  22.236  0.00  0.00    +0.000 A 
ATOM     13  C   UNL     1      -3.118  12.476  23.364  0.00  0.00    +0.000 A 
ATOM     14  C   UNL     1      -1.970  11.667  23.279  0.00  0.00    +0.000 A 
ATOM     15  C   UNL     1      -1.344  11.470  22.049  0.00  0.00    +0.000 A 
ATOM     16  O   UNL     1      -0.263  10.603  21.973  0.00  0.00    +0.000 OA
ENDBRANCH   3   6
ENDBRANCH   1   2
BRANCH   1  17
ATOM     17  C   UNL     1       3.321   7.814  17.676  0.00  0.00    +0.000 C 
BRANCH  17  22
ATOM     18  C   UNL     1       4.632   4.246  17.225  0.00  0.00    +0.000 A 
ATOM     19  C   UNL     1       5.977   4.455  16.938  0.00  0.00    +0.000 A 
ATOM     20  C   UNL     1       6.462   5.761  16.852  0.00  0.00    +0.000 A 
ATOM     21  C   UNL     1       5.596   6.853  17.065  0.00  0.00    +0.000 A 
ATOM     22  C   UNL     1       4.249   6.653  17.359  0.00  0.00    +0.000 A 
ATOM     23  C   UNL     1       3.774   5.333  17.448  0.00  0.00    +0.000 A 
BRANCH  18  24
ATOM     24  O   UNL     1       4.210   2.919  17.436  0.00  0.00    +0.000 OA
BRANCH  24  27
ATOM     25  N   UNL     1       3.000   2.366  19.331  0.00  0.00    +0.000 N 
ATOM     26  C   UNL     1       4.262   2.347  20.049  0.00  0.00    +0.000 C 
ATOM     27  C   UNL     1       2.943   2.709  17.983  0.00  0.00    +0.000 C 
ATOM     28  O   UNL     1       1.893   2.834  17.362  0.00  0.00    +0.000 OA
BRANCH  25  30
ATOM     29  C   UNL     1       1.909   2.864  21.503  0.00  0.00    +0.000 C 
ATOM     30  C   UNL     1       1.758   2.313  20.092  0.00  0.00    +0.000 C 
ENDBRANCH  25  30
ENDBRANCH  24  27
ENDBRANCH  18  24
ENDBRANCH  17  22
ENDBRANCH   1  17
TORSDOF 7
ENDMDL
MODEL 6
REMARK VINA RESULT:      -7.8      6.402     11.291
REMARK  Name = 
REMARK  9 active torsions:
REMARK  status: ('A' for Active; 'I' for Inactive)
REMARK    1  A    between atoms: C_1  and  C_2
REMARK    2  A    between atoms: C_2  and  N_3
REMARK    3  A    between atoms: N_3  and  C_4
REMARK    4  A    between atoms: C_5  and  O_7
REMARK    5  A    between atoms: O_7  and  C_8
REMARK    6  A    between atoms: C_12  and  C_13
REMARK    7  A    between atoms: C_13  and  C_14
REMARK    8  A    between atoms: C_14  and  N_15
REMARK    9  A    between atoms: C_16  and  C_18
REMARK                            x       y       z     vdW  Elec       q    Type
REMARK                         _______ _______ _______ _____ _____    ______ ____
ROOT
ATOM      1  C   UNL     1       8.457   8.956  18.330  0.00  0.00    +0.000 C 
ENDROOT
BRANCH   1   2
ATOM      2  N   UNL     1       7.802   8.072  17.347  0.00  0.00    +0.000 N 
ATOM      3  C   UNL     1       7.475   6.774  17.677  0.00  0.00    +0.000 C 
ATOM      4  O   UNL     1       7.625   6.356  18.826  0.00  0.00    +0.000 OA
ATOM      5  H   UNL     1       7.848   8.316  16.368  0.00  0.00    +0.000 HD
BRANCH   3   6
ATOM      6  C   UNL     1       6.962   5.860  16.598  0.00  0.00    +0.000 A 
ATOM      7  C   UNL     1       5.730   5.379  16.832  0.00  0.00    +0.000 A 
ATOM      8  C   UNL     1       5.166   4.366  15.943  0.00  0.00    +0.000 A 
ATOM      9  O   UNL     1       4.183   3.711  16.261  0.00  0.00    +0.000 OA
ATOM     10  C   UNL     1       5.822   4.226  14.645  0.00  0.00    +0.000 A 
ATOM     11  C   UNL     1       5.153   3.568  13.604  0.00  0.00    +0.000 A 
ATOM     12  C   UNL     1       5.696   3.589  12.326  0.00  0.00    +0.000 A 
ATOM     13  C   UNL     1       6.917   4.233  12.108  0.00  0.00    +0.000 A 
ATOM     14  C   UNL     1       7.611   4.839  13.171  0.00  0.00    +0.000 A 
ATOM     15  C   UNL     1       7.055   4.853  14.450  0.00  0.00    +0.000 A 
ATOM     16  O   UNL     1       7.718   5.528  15.467  0.00  0.00    +0.000 OA
ENDBRANCH   3   6
ENDBRANCH   1   2
BRANCH   1  17
ATOM     17  C   UNL     1       8.561  10.433  17.890  0.00  0.00    +0.000 C 
BRANCH  17  22
ATOM     18  C   UNL     1      10.376  12.738  20.349  0.00  0.00    +0.000 A 
ATOM     19  C   UNL     1      11.607  12.926  19.730  0.00  0.00    +0.000 A 
ATOM     20  C   UNL     1      11.872  12.275  18.525  0.00  0.00    +0.000 A 
ATOM     21  C   UNL     1      10.895  11.443  17.939  0.00  0.00    +0.000 A 
ATOM     22  C   UNL     1       9.656  11.254  18.549  0.00  0.00    +0.000 A 
ATOM     23  C   UNL     1       9.400  11.920  19.759  0.00  0.00    +0.000 A 
BRANCH  18  24
ATOM     24  O   UNL     1      10.094  13.515  21.489  0.00  0.00    +0.000 OA
BRANCH  24  27
ATOM     25  N   UNL     1       7.953  14.123  22.125  0.00  0.00    +0.000 N 
ATOM     26  C   UNL     1       8.071  15.241  21.207  0.00  0.00    +0.000 C 
ATOM     27  C   UNL     1       8.974  13.185  22.253  0.00  0.00    +0.000 C 
ATOM     28  O   UNL     1       8.880  12.174  22.941  0.00  0.00    +0.000 OA
BRANCH  25  30
ATOM     29  C   UNL     1       5.502  14.445  21.917  0.00  0.00    +0.000 C 
ATOM     30  C   UNL     1       6.648  13.818  22.699  0.00  0.00    +0.000 C 
ENDBRANCH  25  30
ENDBRANCH  24  27
ENDBRANCH  18  24
ENDBRANCH  17  22
ENDBRANCH   1  17
TORSDOF 7
ENDMDL
MODEL 7
REMARK VINA RESULT:      -7.7      1.275      2.259
REMARK  Name = 
REMARK  9 active torsions:
REMARK  status: ('A' for Active; 'I' for Inactive)
REMARK    1  A    between atoms: C_1  and  C_2
REMARK    2  A    between atoms: C_2  and  N_3
REMARK    3  A    between atoms: N_3  and  C_4
REMARK    4  A    between atoms: C_5  and  O_7
REMARK    5  A    between atoms: O_7  and  C_8
REMARK    6  A    between atoms: C_12  and  C_13
REMARK    7  A    between atoms: C_13  and  C_14
REMARK    8  A    between atoms: C_14  and  N_15
REMARK    9  A    between atoms: C_16  and  C_18
REMARK                            x       y       z     vdW  Elec       q    Type
REMARK                         _______ _______ _______ _____ _____    ______ ____
ROOT
ATOM      1  C   UNL     1       2.435   7.654  17.503  0.00  0.00    +0.000 C 
ENDROOT
BRANCH   1   2
ATOM      2  N   UNL     1       1.749   8.610  18.394  0.00  0.00    +0.000 N 
ATOM      3  C   UNL     1       1.555   8.314  19.726  0.00  0.00    +0.000 C 
ATOM      4  O   UNL     1       2.039   7.298  20.226  0.00  0.00    +0.000 OA
ATOM      5  H   UNL     1       1.184   9.338  17.982  0.00  0.00    +0.000 HD
BRANCH   3   6
ATOM      6  C   UNL     1       0.708   9.239  20.557  0.00  0.00    +0.000 A 
ATOM      7  C   UNL     1       0.972   9.184  21.873  0.00  0.00    +0.000 A 
ATOM      8  C   UNL     1       0.127   9.917  22.813  0.00  0.00    +0.000 A 
ATOM      9  O   UNL     1       0.157   9.686  24.014  0.00  0.00    +0.000 OA
ATOM     10  C   UNL     1      -0.708  10.965  22.231  0.00  0.00    +0.000 A 
ATOM     11  C   UNL     1      -1.258  11.947  23.064  0.00  0.00    +0.000 A 
ATOM     12  C   UNL     1      -1.902  13.039  22.495  0.00  0.00    +0.000 A 
ATOM     13  C   UNL     1      -2.021  13.119  21.105  0.00  0.00    +0.000 A 
ATOM     14  C   UNL     1      -1.518  12.097  20.279  0.00  0.00    +0.000 A 
ATOM     15  C   UNL     1      -0.840  11.016  20.841  0.00  0.00    +0.000 A 
ATOM     16  O   UNL     1      -0.280  10.061  20.002  0.00  0.00    +0.000 OA
ENDBRANCH   3   6
ENDBRANCH   1   2
BRANCH   1  17
ATOM     17  C   UNL     1       3.957   7.888  17.369  0.00  0.00    +0.000 C 
BRANCH  17  22
ATOM     18  C   UNL     1       5.006   4.213  17.145  0.00  0.00    +0.000 A 
ATOM     19  C   UNL     1       6.385   4.304  16.997  0.00  0.00    +0.000 A 
ATOM     20  C   UNL     1       6.984   5.563  16.931  0.00  0.00    +0.000 A 
ATOM     21  C   UNL     1       6.195   6.728  17.025  0.00  0.00    +0.000 A 
ATOM     22  C   UNL     1       4.812   6.647  17.180  0.00  0.00    +0.000 A 
ATOM     23  C   UNL     1       4.223   5.373  17.250  0.00  0.00    +0.000 A 
BRANCH  18  24
ATOM     24  O   UNL     1       4.454   2.932  17.343  0.00  0.00    +0.000 OA
BRANCH  24  27
ATOM     25  N   UNL     1       2.984   2.586  19.097  0.00  0.00    +0.000 N 
ATOM     26  C   UNL     1       4.143   2.531  19.969  0.00  0.00    +0.000 C 
ATOM     27  C   UNL     1       3.118   2.842  17.736  0.00  0.00    +0.000 C 
ATOM     28  O   UNL     1       2.164   2.994  16.979  0.00  0.00    +0.000 OA
BRANCH  25  30
ATOM     29  C   UNL     1       1.695   2.614  21.217  0.00  0.00    +0.000 C 
ATOM     30  C   UNL     1       1.657   2.664  19.696  0.00  0.00    +0.000 C 
ENDBRANCH  25  30
ENDBRANCH  24  27
ENDBRANCH  18  24
ENDBRANCH  17  22
ENDBRANCH   1  17
TORSDOF 7
ENDMDL
MODEL 8
REMARK VINA RESULT:      -7.7      2.019      3.597
REMARK  Name = 
REMARK  9 active torsions:
REMARK  status: ('A' for Active; 'I' for Inactive)
REMARK    1  A    between atoms: C_1  and  C_2
REMARK    2  A    between atoms: C_2  and  N_3
REMARK    3  A    between atoms: N_3  and  C_4
REMARK    4  A    between atoms: C_5  and  O_7
REMARK    5  A    between atoms: O_7  and  C_8
REMARK    6  A    between atoms: C_12  and  C_13
REMARK    7  A    between atoms: C_13  and  C_14
REMARK    8  A    between atoms: C_14  and  N_15
REMARK    9  A    between atoms: C_16  and  C_18
REMARK                            x       y       z     vdW  Elec       q    Type
REMARK                         _______ _______ _______ _____ _____    ______ ____
ROOT
ATOM      1  C   UNL     1       2.213   5.745  21.094  0.00  0.00    +0.000 C 
ENDROOT
BRANCH   1   2
ATOM      2  N   UNL     1       1.378   6.960  21.172  0.00  0.00    +0.000 N 
ATOM      3  C   UNL     1       1.562   7.996  20.281  0.00  0.00    +0.000 C 
ATOM      4  O   UNL     1       2.349   7.891  19.340  0.00  0.00    +0.000 OA
ATOM      5  H   UNL     1       0.878   7.152  22.028  0.00  0.00    +0.000 HD
BRANCH   3   6
ATOM      6  C   UNL     1       0.806   9.279  20.499  0.00  0.00    +0.000 A 
ATOM      7  C   UNL     1       0.535   9.950  19.367  0.00  0.00    +0.000 A 
ATOM      8  C   UNL     1      -0.062  11.281  19.438  0.00  0.00    +0.000 A 
ATOM      9  O   UNL     1      -0.075  12.029  18.471  0.00  0.00    +0.000 OA
ATOM     10  C   UNL     1      -0.676  11.632  20.716  0.00  0.00    +0.000 A 
ATOM     11  C   UNL     1      -1.578  12.704  20.774  0.00  0.00    +0.000 A 
ATOM     12  C   UNL     1      -2.295  12.927  21.943  0.00  0.00    +0.000 A 
ATOM     13  C   UNL     1      -2.078  12.103  23.050  0.00  0.00    +0.000 A 
ATOM     14  C   UNL     1      -1.128  11.067  23.002  0.00  0.00    +0.000 A 
ATOM     15  C   UNL     1      -0.429  10.814  21.822  0.00  0.00    +0.000 A 
ATOM     16  O   UNL     1       0.443   9.736  21.772  0.00  0.00    +0.000 OA
ENDBRANCH   3   6
ENDBRANCH   1   2
BRANCH   1  17
ATOM     17  C   UNL     1       1.503   4.523  20.469  0.00  0.00    +0.000 C 
BRANCH  17  22
ATOM     18  C   UNL     1       4.085   3.719  17.760  0.00  0.00    +0.000 A 
ATOM     19  C   UNL     1       3.655   2.481  17.295  0.00  0.00    +0.000 A 
ATOM     20  C   UNL     1       2.541   1.879  17.882  0.00  0.00    +0.000 A 
ATOM     21  C   UNL     1       1.857   2.528  18.932  0.00  0.00    +0.000 A 
ATOM     22  C   UNL     1       2.278   3.771  19.400  0.00  0.00    +0.000 A 
ATOM     23  C   UNL     1       3.397   4.369  18.796  0.00  0.00    +0.000 A 
BRANCH  18  24
ATOM     24  O   UNL     1       5.125   4.355  17.055  0.00  0.00    +0.000 OA
BRANCH  24  27
ATOM     25  N   UNL     1       6.582   6.117  17.415  0.00  0.00    +0.000 N 
ATOM     26  C   UNL     1       5.796   6.874  16.457  0.00  0.00    +0.000 C 
ATOM     27  C   UNL     1       6.223   4.822  17.778  0.00  0.00    +0.000 C 
ATOM     28  O   UNL     1       6.798   4.182  18.652  0.00  0.00    +0.000 OA
BRANCH  25  30
ATOM     29  C   UNL     1       7.938   8.182  17.647  0.00  0.00    +0.000 C 
ATOM     30  C   UNL     1       7.578   6.817  18.217  0.00  0.00    +0.000 C 
ENDBRANCH  25  30
ENDBRANCH  24  27
ENDBRANCH  18  24
ENDBRANCH  17  22
ENDBRANCH   1  17
TORSDOF 7
ENDMDL
MODEL 9
REMARK VINA RESULT:      -7.7      1.408      2.046
REMARK  Name = 
REMARK  9 active torsions:
REMARK  status: ('A' for Active; 'I' for Inactive)
REMARK    1  A    between atoms: C_1  and  C_2
REMARK    2  A    between atoms: C_2  and  N_3
REMARK    3  A    between atoms: N_3  and  C_4
REMARK    4  A    between atoms: C_5  and  O_7
REMARK    5  A    between atoms: O_7  and  C_8
REMARK    6  A    between atoms: C_12  and  C_13
REMARK    7  A    between atoms: C_13  and  C_14
REMARK    8  A    between atoms: C_14  and  N_15
REMARK    9  A    between atoms: C_16  and  C_18
REMARK                            x       y       z     vdW  Elec       q    Type
REMARK                         _______ _______ _______ _____ _____    ______ ____
ROOT
ATOM      1  C   UNL     1       2.356   7.512  18.494  0.00  0.00    +0.000 C 
ENDROOT
BRANCH   1   2
ATOM      2  N   UNL     1       1.903   8.783  19.093  0.00  0.00    +0.000 N 
ATOM      3  C   UNL     1       1.276   8.796  20.319  0.00  0.00    +0.000 C 
ATOM      4  O   UNL     1       1.172   7.768  20.990  0.00  0.00    +0.000 OA
ATOM      5  H   UNL     1       1.798   9.591  18.496  0.00  0.00    +0.000 HD
BRANCH   3   6
ATOM      6  C   UNL     1       0.684  10.088  20.815  0.00  0.00    +0.000 A 
ATOM      7  C   UNL     1       0.102   9.992  22.022  0.00  0.00    +0.000 A 
ATOM      8  C   UNL     1      -0.642  11.129  22.560  0.00  0.00    +0.000 A 
ATOM      9  O   UNL     1      -1.403  11.003  23.510  0.00  0.00    +0.000 OA
ATOM     10  C   UNL     1      -0.379  12.417  21.923  0.00  0.00    +0.000 A 
ATOM     11  C   UNL     1      -0.744  13.598  22.584  0.00  0.00    +0.000 A 
ATOM     12  C   UNL     1      -0.337  14.821  22.067  0.00  0.00    +0.000 A 
ATOM     13  C   UNL     1       0.396  14.854  20.877  0.00  0.00    +0.000 A 
ATOM     14  C   UNL     1       0.706  13.667  20.189  0.00  0.00    +0.000 A 
ATOM     15  C   UNL     1       0.332  12.433  20.720  0.00  0.00    +0.000 A 
ATOM     16  O   UNL     1       0.720  11.271  20.067  0.00  0.00    +0.000 OA
ENDBRANCH   3   6
ENDBRANCH   1   2
BRANCH   1  17
ATOM     17  C   UNL     1       3.559   7.653  17.533  0.00  0.00    +0.000 C 
BRANCH  17  22
ATOM     18  C   UNL     1       4.341   3.928  17.130  0.00  0.00    +0.000 A 
ATOM     19  C   UNL     1       5.336   3.935  16.160  0.00  0.00    +0.000 A 
ATOM     20  C   UNL     1       5.738   5.148  15.600  0.00  0.00    +0.000 A 
ATOM     21  C   UNL     1       5.143   6.355  16.025  0.00  0.00    +0.000 A 
ATOM     22  C   UNL     1       4.148   6.358  17.002  0.00  0.00    +0.000 A 
ATOM     23  C   UNL     1       3.758   5.130  17.561  0.00  0.00    +0.000 A 
BRANCH  18  24
ATOM     24  O   UNL     1       4.059   2.704  17.767  0.00  0.00    +0.000 OA
BRANCH  24  27
ATOM     25  N   UNL     1       2.765   2.501  19.676  0.00  0.00    +0.000 N 
ATOM     26  C   UNL     1       1.628   2.284  18.800  0.00  0.00    +0.000 C 
ATOM     27  C   UNL     1       4.047   2.672  19.162  0.00  0.00    +0.000 C 
ATOM     28  O   UNL     1       5.050   2.760  19.864  0.00  0.00    +0.000 OA
BRANCH  25  30
ATOM     29  C   UNL     1       1.346   2.866  21.678  0.00  0.00    +0.000 C 
ATOM     30  C   UNL     1       2.612   2.246  21.103  0.00  0.00    +0.000 C 
ENDBRANCH  25  30
ENDBRANCH  24  27
ENDBRANCH  18  24
ENDBRANCH  17  22
ENDBRANCH   1  17
TORSDOF 7
ENDMDL
