MODEL 1
REMARK VINA RESULT:      -7.8      0.000      0.000
REMARK  Name = 
REMARK  11 active torsions:
REMARK  status: ('A' for Active; 'I' for Inactive)
REMARK    1  A    between atoms: C_1  and  C_2
REMARK    2  A    between atoms: C_2  and  C_3
REMARK    3  A    between atoms: C_6  and  C_7
REMARK    4  A    between atoms: N_9  and  C_10
REMARK    5  A    between atoms: N_9  and  C_26
REMARK    6  A    between atoms: C_13  and  O_14
REMARK    7  A    between atoms: O_14  and  C_15
REMARK    8  A    between atoms: C_22  and  C_23
REMARK    9  A    between atoms: C_23  and  O_25
REMARK   10  A    between atoms: C_26  and  C_27
REMARK   11  A    between atoms: C_26  and  C_28
REMARK                            x       y       z     vdW  Elec       q    Type
REMARK                         _______ _______ _______ _____ _____    ______ ____
ROOT
ATOM      1  C   UNL     1       0.682  10.254  19.005  0.00  0.00    +0.000 A 
ATOM      2  C   UNL     1       1.275   9.621  17.899  0.00  0.00    +0.000 A 
ATOM      3  C   UNL     1       1.990   8.427  18.051  0.00  0.00    +0.000 A 
ATOM      4  C   UNL     1       2.126   7.845  19.308  0.00  0.00    +0.000 A 
ATOM      5  C   UNL     1       1.558   8.476  20.415  0.00  0.00    +0.000 A 
ATOM      6  C   UNL     1       0.782   9.647  20.278  0.00  0.00    +0.000 A 
ENDROOT
BRANCH   1   9
ATOM      7  C   UNL     1       0.621  12.729  18.823  0.00  0.00    +0.000 C 
ATOM      8  O   UNL     1      -0.073  13.744  18.686  0.00  0.00    +0.000 OA
ATOM      9  N   UNL     1      -0.008  11.473  18.752  0.00  0.00    +0.000 N 
BRANCH   7  13
ATOM     10  C   UNL     1       4.093  15.078  19.836  0.00  0.00    +0.000 C 
ATOM     11  C   UNL     1       4.184  14.345  18.492  0.00  0.00    +0.000 C 
ATOM     12  C   UNL     1       2.825  13.766  18.060  0.00  0.00    +0.000 C 
ATOM     13  C   UNL     1       2.139  12.877  19.112  0.00  0.00    +0.000 C 
ATOM     14  C   UNL     1       2.267  13.470  20.538  0.00  0.00    +0.000 C 
ATOM     15  C   UNL     1       3.615  14.078  20.894  0.00  0.00    +0.000 C 
BRANCH  10  17
ATOM     16  C   UNL     1       6.655  15.265  19.546  0.00  0.00    +0.000 C 
ATOM     17  C   UNL     1       5.417  15.712  20.309  0.00  0.00    +0.000 C 
ENDBRANCH  10  17
ENDBRANCH   7  13
BRANCH   9  18
ATOM     18  C   UNL     1      -1.475  11.434  18.420  0.00  0.00    +0.000 C 
ATOM     19  C   UNL     1      -1.932  10.080  17.843  0.00  0.00    +0.000 C 
ATOM     20  C   UNL     1      -2.444  11.817  19.547  0.00  0.00    +0.000 C 
ENDBRANCH   9  18
ENDBRANCH   1   9
BRANCH   6  21
ATOM     21  C   UNL     1       0.071  10.055  21.535  0.00  0.00    +0.000 C 
ATOM     22  O   UNL     1       0.213  11.162  22.022  0.00  0.00    +0.000 OA
BRANCH  21  23
ATOM     23  O   UNL     1      -0.711   9.133  22.118  0.00  0.00    +0.000 OA
ATOM     24  H   UNL     1      -0.952   8.378  21.557  0.00  0.00    +0.000 HD
ENDBRANCH  21  23
ENDBRANCH   6  21
BRANCH   4  25
ATOM     25  O   UNL     1       2.875   6.687  19.374  0.00  0.00    +0.000 OA
BRANCH  25  26
ATOM     26  C   UNL     1       2.244   5.464  19.444  0.00  0.00    +0.000 A 
ATOM     27  C   UNL     1       1.745   4.909  20.626  0.00  0.00    +0.000 A 
ATOM     28  C   UNL     1       1.129   3.657  20.608  0.00  0.00    +0.000 A 
ATOM     29  C   UNL     1       0.961   2.976  19.401  0.00  0.00    +0.000 A 
ATOM     30  C   UNL     1       1.412   3.545  18.213  0.00  0.00    +0.000 A 
ATOM     31  C   UNL     1       2.050   4.791  18.232  0.00  0.00    +0.000 A 
ENDBRANCH  25  26
ENDBRANCH   4  25
TORSDOF 8
ENDMDL
MODEL 2
REMARK VINA RESULT:      -7.7      0.099      1.057
REMARK  Name = 
REMARK  11 active torsions:
REMARK  status: ('A' for Active; 'I' for Inactive)
REMARK    1  A    between atoms: C_1  and  C_2
REMARK    2  A    between atoms: C_2  and  C_3
REMARK    3  A    between atoms: C_6  and  C_7
REMARK    4  A    between atoms: N_9  and  C_10
REMARK    5  A    between atoms: N_9  and  C_26
REMARK    6  A    between atoms: C_13  and  O_14
REMARK    7  A    between atoms: O_14  and  C_15
REMARK    8  A    between atoms: C_22  and  C_23
REMARK    9  A    between atoms: C_23  and  O_25
REMARK   10  A    between atoms: C_26  and  C_27
REMARK   11  A    between atoms: C_26  and  C_28
REMARK                            x       y       z     vdW  Elec       q    Type
REMARK                         _______ _______ _______ _____ _____    ______ ____
ROOT
ATOM      1  C   UNL     1       0.684  10.272  18.993  0.00  0.00    +0.000 A 
ATOM      2  C   UNL     1       1.278   9.628  17.894  0.00  0.00    +0.000 A 
ATOM      3  C   UNL     1       1.987   8.432  18.056  0.00  0.00    +0.000 A 
ATOM      4  C   UNL     1       2.117   7.859  19.318  0.00  0.00    +0.000 A 
ATOM      5  C   UNL     1       1.549   8.501  20.419  0.00  0.00    +0.000 A 
ATOM      6  C   UNL     1       0.778   9.674  20.270  0.00  0.00    +0.000 A 
ENDROOT
BRANCH   1   9
ATOM      7  C   UNL     1       0.637  12.744  18.781  0.00  0.00    +0.000 C 
ATOM      8  O   UNL     1      -0.052  13.762  18.636  0.00  0.00    +0.000 OA
ATOM      9  N   UNL     1       0.000  11.492  18.729  0.00  0.00    +0.000 N 
BRANCH   7  13
ATOM     10  C   UNL     1       4.138  15.093  19.693  0.00  0.00    +0.000 C 
ATOM     11  C   UNL     1       4.216  14.308  18.378  0.00  0.00    +0.000 C 
ATOM     12  C   UNL     1       2.849  13.728  17.972  0.00  0.00    +0.000 C 
ATOM     13  C   UNL     1       2.158  12.887  19.060  0.00  0.00    +0.000 C 
ATOM     14  C   UNL     1       2.297  13.532  20.461  0.00  0.00    +0.000 C 
ATOM     15  C   UNL     1       3.652  14.139  20.790  0.00  0.00    +0.000 C 
BRANCH  10  17
ATOM     16  C   UNL     1       6.701  15.234  19.395  0.00  0.00    +0.000 C 
ATOM     17  C   UNL     1       5.470  15.730  20.138  0.00  0.00    +0.000 C 
ENDBRANCH  10  17
ENDBRANCH   7  13
BRANCH   9  18
ATOM     18  C   UNL     1      -1.469  11.457  18.406  0.00  0.00    +0.000 C 
ATOM     19  C   UNL     1      -1.933  10.106  17.831  0.00  0.00    +0.000 C 
ATOM     20  C   UNL     1      -2.429  11.842  19.539  0.00  0.00    +0.000 C 
ENDBRANCH   9  18
ENDBRANCH   1   9
BRANCH   6  21
ATOM     21  C   UNL     1       0.065  10.094  21.523  0.00  0.00    +0.000 C 
ATOM     22  O   UNL     1      -0.762   9.379  22.061  0.00  0.00    +0.000 OA
BRANCH  21  23
ATOM     23  O   UNL     1       0.360  11.308  22.013  0.00  0.00    +0.000 OA
ATOM     24  H   UNL     1       1.255  11.405  22.373  0.00  0.00    +0.000 HD
ENDBRANCH  21  23
ENDBRANCH   6  21
BRANCH   4  25
ATOM     25  O   UNL     1       2.861   6.699  19.395  0.00  0.00    +0.000 OA
BRANCH  25  26
ATOM     26  C   UNL     1       2.230   5.474  19.357  0.00  0.00    +0.000 A 
ATOM     27  C   UNL     1       2.038   4.730  18.190  0.00  0.00    +0.000 A 
ATOM     28  C   UNL     1       1.378   3.501  18.242  0.00  0.00    +0.000 A 
ATOM     29  C   UNL     1       0.952   2.986  19.467  0.00  0.00    +0.000 A 
ATOM     30  C   UNL     1       1.183   3.699  20.640  0.00  0.00    +0.000 A 
ATOM     31  C   UNL     1       1.826   4.942  20.587  0.00  0.00    +0.000 A 
ENDBRANCH  25  26
ENDBRANCH   4  25
TORSDOF 8
ENDMDL
MODEL 3
REMARK VINA RESULT:      -7.2      0.850      1.229
REMARK  Name = 
REMARK  11 active torsions:
REMARK  status: ('A' for Active; 'I' for Inactive)
REMARK    1  A    between atoms: C_1  and  C_2
REMARK    2  A    between atoms: C_2  and  C_3
REMARK    3  A    between atoms: C_6  and  C_7
REMARK    4  A    between atoms: N_9  and  C_10
REMARK    5  A    between atoms: N_9  and  C_26
REMARK    6  A    between atoms: C_13  and  O_14
REMARK    7  A    between atoms: O_14  and  C_15
REMARK    8  A    between atoms: C_22  and  C_23
REMARK    9  A    between atoms: C_23  and  O_25
REMARK   10  A    between atoms: C_26  and  C_27
REMARK   11  A    between atoms: C_26  and  C_28
REMARK                            x       y       z     vdW  Elec       q    Type
REMARK                         _______ _______ _______ _____ _____    ______ ____
ROOT
ATOM      1  C   UNL     1       0.679   9.752  19.035  0.00  0.00    +0.000 A 
ATOM      2  C   UNL     1       1.290   9.179  17.906  0.00  0.00    +0.000 A 
ATOM      3  C   UNL     1       2.140   8.074  18.030  0.00  0.00    +0.000 A 
ATOM      4  C   UNL     1       2.395   7.522  19.282  0.00  0.00    +0.000 A 
ATOM      5  C   UNL     1       1.810   8.095  20.411  0.00  0.00    +0.000 A 
ATOM      6  C   UNL     1       0.902   9.171  20.304  0.00  0.00    +0.000 A 
ENDROOT
BRANCH   1   9
ATOM      7  C   UNL     1       0.330  12.203  18.860  0.00  0.00    +0.000 C 
ATOM      8  O   UNL     1      -0.480  13.132  18.749  0.00  0.00    +0.000 OA
ATOM      9  N   UNL     1      -0.154  10.884  18.809  0.00  0.00    +0.000 N 
BRANCH   7  13
ATOM     10  C   UNL     1       3.555  14.949  19.673  0.00  0.00    +0.000 C 
ATOM     11  C   UNL     1       3.689  14.173  18.357  0.00  0.00    +0.000 C 
ATOM     12  C   UNL     1       2.389  13.435  17.989  0.00  0.00    +0.000 C 
ATOM     13  C   UNL     1       1.830  12.523  19.096  0.00  0.00    +0.000 C 
ATOM     14  C   UNL     1       1.932  13.187  20.493  0.00  0.00    +0.000 C 
ATOM     15  C   UNL     1       3.215  13.949  20.784  0.00  0.00    +0.000 C 
BRANCH  10  17
ATOM     16  C   UNL     1       5.332  16.713  19.031  0.00  0.00    +0.000 C 
ATOM     17  C   UNL     1       4.816  15.740  20.080  0.00  0.00    +0.000 C 
ENDBRANCH  10  17
ENDBRANCH   7  13
BRANCH   9  18
ATOM     18  C   UNL     1      -1.617  10.677  18.528  0.00  0.00    +0.000 C 
ATOM     19  C   UNL     1      -2.519  11.739  19.185  0.00  0.00    +0.000 C 
ATOM     20  C   UNL     1      -2.023  10.562  17.052  0.00  0.00    +0.000 C 
ENDBRANCH   9  18
ENDBRANCH   1   9
BRANCH   6  21
ATOM     21  C   UNL     1       0.205   9.507  21.591  0.00  0.00    +0.000 C 
ATOM     22  O   UNL     1       0.466  10.521  22.215  0.00  0.00    +0.000 OA
BRANCH  21  23
ATOM     23  O   UNL     1      -0.701   8.626  22.040  0.00  0.00    +0.000 OA
ATOM     24  H   UNL     1      -1.021   8.783  22.943  0.00  0.00    +0.000 HD
ENDBRANCH  21  23
ENDBRANCH   6  21
BRANCH   4  25
ATOM     25  O   UNL     1       3.271   6.456  19.319  0.00  0.00    +0.000 OA
BRANCH  25  26
ATOM     26  C   UNL     1       2.908   5.249  18.763  0.00  0.00    +0.000 A 
ATOM     27  C   UNL     1       1.737   4.558  19.089  0.00  0.00    +0.000 A 
ATOM     28  C   UNL     1       1.453   3.334  18.483  0.00  0.00    +0.000 A 
ATOM     29  C   UNL     1       2.311   2.817  17.511  0.00  0.00    +0.000 A 
ATOM     30  C   UNL     1       3.453   3.522  17.146  0.00  0.00    +0.000 A 
ATOM     31  C   UNL     1       3.752   4.740  17.768  0.00  0.00    +0.000 A 
ENDBRANCH  25  26
ENDBRANCH   4  25
TORSDOF 8
ENDMDL
MODEL 4
REMARK VINA RESULT:      -7.1      0.759      1.367
REMARK  Name = 
REMARK  11 active torsions:
REMARK  status: ('A' for Active; 'I' for Inactive)
REMARK    1  A    between atoms: C_1  and  C_2
REMARK    2  A    between atoms: C_2  and  C_3
REMARK    3  A    between atoms: C_6  and  C_7
REMARK    4  A    between atoms: N_9  and  C_10
REMARK    5  A    between atoms: N_9  and  C_26
REMARK    6  A    between atoms: C_13  and  O_14
REMARK    7  A    between atoms: O_14  and  C_15
REMARK    8  A    between atoms: C_22  and  C_23
REMARK    9  A    between atoms: C_23  and  O_25
REMARK   10  A    between atoms: C_26  and  C_27
REMARK   11  A    between atoms: C_26  and  C_28
REMARK                            x       y       z     vdW  Elec       q    Type
REMARK                         _______ _______ _______ _____ _____    ______ ____
ROOT
ATOM      1  C   UNL     1       0.634   9.805  19.057  0.00  0.00    +0.000 A 
ATOM      2  C   UNL     1       1.261   9.209  17.949  0.00  0.00    +0.000 A 
ATOM      3  C   UNL     1       2.092   8.093  18.106  0.00  0.00    +0.000 A 
ATOM      4  C   UNL     1       2.312   7.554  19.370  0.00  0.00    +0.000 A 
ATOM      5  C   UNL     1       1.711   8.150  20.478  0.00  0.00    +0.000 A 
ATOM      6  C   UNL     1       0.821   9.237  20.338  0.00  0.00    +0.000 A 
ENDROOT
BRANCH   1   9
ATOM      7  C   UNL     1       0.331  12.257  18.818  0.00  0.00    +0.000 C 
ATOM      8  O   UNL     1      -0.461  13.197  18.680  0.00  0.00    +0.000 OA
ATOM      9  N   UNL     1      -0.177  10.946  18.798  0.00  0.00    +0.000 N 
BRANCH   7  13
ATOM     10  C   UNL     1       3.584  14.939  19.730  0.00  0.00    +0.000 C 
ATOM     11  C   UNL     1       3.698  14.229  18.375  0.00  0.00    +0.000 C 
ATOM     12  C   UNL     1       2.388  13.518  17.986  0.00  0.00    +0.000 C 
ATOM     13  C   UNL     1       1.836  12.556  19.053  0.00  0.00    +0.000 C 
ATOM     14  C   UNL     1       1.958  13.147  20.479  0.00  0.00    +0.000 C 
ATOM     15  C   UNL     1       3.249  13.887  20.793  0.00  0.00    +0.000 C 
BRANCH  10  17
ATOM     16  C   UNL     1       5.415  15.302  21.517  0.00  0.00    +0.000 C 
ATOM     17  C   UNL     1       4.854  15.700  20.161  0.00  0.00    +0.000 C 
ENDBRANCH  10  17
ENDBRANCH   7  13
BRANCH   9  18
ATOM     18  C   UNL     1      -1.642  10.758  18.516  0.00  0.00    +0.000 C 
ATOM     19  C   UNL     1      -2.542  11.735  19.297  0.00  0.00    +0.000 C 
ATOM     20  C   UNL     1      -2.068  10.801  17.042  0.00  0.00    +0.000 C 
ENDBRANCH   9  18
ENDBRANCH   1   9
BRANCH   6  21
ATOM     21  C   UNL     1       0.102   9.600  21.605  0.00  0.00    +0.000 C 
ATOM     22  O   UNL     1       0.291  10.665  22.167  0.00  0.00    +0.000 OA
BRANCH  21  23
ATOM     23  O   UNL     1      -0.742   8.687  22.108  0.00  0.00    +0.000 OA
ATOM     24  H   UNL     1      -0.966   7.955  21.512  0.00  0.00    +0.000 HD
ENDBRANCH  21  23
ENDBRANCH   6  21
BRANCH   4  25
ATOM     25  O   UNL     1       3.171   6.476  19.440  0.00  0.00    +0.000 OA
BRANCH  25  26
ATOM     26  C   UNL     1       2.822   5.280  18.852  0.00  0.00    +0.000 A 
ATOM     27  C   UNL     1       3.508   4.708  17.776  0.00  0.00    +0.000 A 
ATOM     28  C   UNL     1       3.079   3.496  17.234  0.00  0.00    +0.000 A 
ATOM     29  C   UNL     1       1.993   2.823  17.797  0.00  0.00    +0.000 A 
ATOM     30  C   UNL     1       1.335   3.362  18.899  0.00  0.00    +0.000 A 
ATOM     31  C   UNL     1       1.751   4.589  19.430  0.00  0.00    +0.000 A 
ENDBRANCH  25  26
ENDBRANCH   4  25
TORSDOF 8
ENDMDL
MODEL 5
REMARK VINA RESULT:      -7.1      1.750      4.992
REMARK  Name = 
REMARK  11 active torsions:
REMARK  status: ('A' for Active; 'I' for Inactive)
REMARK    1  A    between atoms: C_1  and  C_2
REMARK    2  A    between atoms: C_2  and  C_3
REMARK    3  A    between atoms: C_6  and  C_7
REMARK    4  A    between atoms: N_9  and  C_10
REMARK    5  A    between atoms: N_9  and  C_26
REMARK    6  A    between atoms: C_13  and  O_14
REMARK    7  A    between atoms: O_14  and  C_15
REMARK    8  A    between atoms: C_22  and  C_23
REMARK    9  A    between atoms: C_23  and  O_25
REMARK   10  A    between atoms: C_26  and  C_27
REMARK   11  A    between atoms: C_26  and  C_28
REMARK                            x       y       z     vdW  Elec       q    Type
REMARK                         _______ _______ _______ _____ _____    ______ ____
ROOT
ATOM      1  C   UNL     1       0.849  10.269  19.975  0.00  0.00    +0.000 A 
ATOM      2  C   UNL     1       1.468   9.992  18.744  0.00  0.00    +0.000 A 
ATOM      3  C   UNL     1       2.099   8.764  18.515  0.00  0.00    +0.000 A 
ATOM      4  C   UNL     1       2.125   7.792  19.511  0.00  0.00    +0.000 A 
ATOM      5  C   UNL     1       1.531   8.064  20.743  0.00  0.00    +0.000 A 
ATOM      6  C   UNL     1       0.836   9.270  20.976  0.00  0.00    +0.000 A 
ENDROOT
BRANCH   1   9
ATOM      7  C   UNL     1      -1.001  11.870  19.560  0.00  0.00    +0.000 C 
ATOM      8  O   UNL     1      -1.405  13.036  19.647  0.00  0.00    +0.000 OA
ATOM      9  N   UNL     1       0.249  11.552  20.118  0.00  0.00    +0.000 N 
BRANCH   7  13
ATOM     10  C   UNL     1      -3.289  10.566  16.144  0.00  0.00    +0.000 C 
ATOM     11  C   UNL     1      -4.068  10.597  17.465  0.00  0.00    +0.000 C 
ATOM     12  C   UNL     1      -3.293  11.332  18.573  0.00  0.00    +0.000 C 
ATOM     13  C   UNL     1      -1.861  10.820  18.806  0.00  0.00    +0.000 C 
ATOM     14  C   UNL     1      -1.133  10.521  17.472  0.00  0.00    +0.000 C 
ATOM     15  C   UNL     1      -1.960   9.843  16.391  0.00  0.00    +0.000 C 
BRANCH  10  17
ATOM     16  C   UNL     1      -3.298   9.895  13.649  0.00  0.00    +0.000 C 
ATOM     17  C   UNL     1      -4.029   9.872  14.982  0.00  0.00    +0.000 C 
ENDBRANCH  10  17
ENDBRANCH   7  13
BRANCH   9  18
ATOM     18  C   UNL     1       0.984  12.628  20.870  0.00  0.00    +0.000 C 
ATOM     19  C   UNL     1       1.762  13.589  19.952  0.00  0.00    +0.000 C 
ATOM     20  C   UNL     1       0.152  13.475  21.842  0.00  0.00    +0.000 C 
ENDBRANCH   9  18
ENDBRANCH   1   9
BRANCH   6  21
ATOM     21  C   UNL     1       0.076   9.293  22.270  0.00  0.00    +0.000 C 
ATOM     22  O   UNL     1       0.358  10.070  23.165  0.00  0.00    +0.000 OA
BRANCH  21  23
ATOM     23  O   UNL     1      -0.914   8.399  22.411  0.00  0.00    +0.000 OA
ATOM     24  H   UNL     1      -0.729   7.668  23.022  0.00  0.00    +0.000 HD
ENDBRANCH  21  23
ENDBRANCH   6  21
BRANCH   4  25
ATOM     25  O   UNL     1       2.798   6.623  19.215  0.00  0.00    +0.000 OA
BRANCH  25  26
ATOM     26  C   UNL     1       2.139   5.415  19.284  0.00  0.00    +0.000 A 
ATOM     27  C   UNL     1       1.810   4.639  18.168  0.00  0.00    +0.000 A 
ATOM     28  C   UNL     1       1.132   3.430  18.330  0.00  0.00    +0.000 A 
ATOM     29  C   UNL     1       0.825   2.964  19.609  0.00  0.00    +0.000 A 
ATOM     30  C   UNL     1       1.194   3.707  20.727  0.00  0.00    +0.000 A 
ATOM     31  C   UNL     1       1.855   4.931  20.567  0.00  0.00    +0.000 A 
ENDBRANCH  25  26
ENDBRANCH   4  25
TORSDOF 8
ENDMDL
MODEL 6
REMARK VINA RESULT:      -7.1      1.771      4.959
REMARK  Name = 
REMARK  11 active torsions:
REMARK  status: ('A' for Active; 'I' for Inactive)
REMARK    1  A    between atoms: C_1  and  C_2
REMARK    2  A    between atoms: C_2  and  C_3
REMARK    3  A    between atoms: C_6  and  C_7
REMARK    4  A    between atoms: N_9  and  C_10
REMARK    5  A    between atoms: N_9  and  C_26
REMARK    6  A    between atoms: C_13  and  O_14
REMARK    7  A    between atoms: O_14  and  C_15
REMARK    8  A    between atoms: C_22  and  C_23
REMARK    9  A    between atoms: C_23  and  O_25
REMARK   10  A    between atoms: C_26  and  C_27
REMARK   11  A    between atoms: C_26  and  C_28
REMARK                            x       y       z     vdW  Elec       q    Type
REMARK                         _______ _______ _______ _____ _____    ______ ____
ROOT
ATOM      1  C   UNL     1       0.842  10.174  19.949  0.00  0.00    +0.000 A 
ATOM      2  C   UNL     1       1.435   9.900  18.705  0.00  0.00    +0.000 A 
ATOM      3  C   UNL     1       2.065   8.674  18.462  0.00  0.00    +0.000 A 
ATOM      4  C   UNL     1       2.116   7.701  19.456  0.00  0.00    +0.000 A 
ATOM      5  C   UNL     1       1.547   7.971  20.701  0.00  0.00    +0.000 A 
ATOM      6  C   UNL     1       0.853   9.175  20.949  0.00  0.00    +0.000 A 
ENDROOT
BRANCH   1   9
ATOM      7  C   UNL     1      -1.002  11.783  19.538  0.00  0.00    +0.000 C 
ATOM      8  O   UNL     1      -1.407  12.948  19.639  0.00  0.00    +0.000 OA
ATOM      9  N   UNL     1       0.241  11.455  20.105  0.00  0.00    +0.000 N 
BRANCH   7  13
ATOM     10  C   UNL     1      -3.342  10.576  16.121  0.00  0.00    +0.000 C 
ATOM     11  C   UNL     1      -4.088  10.525  17.459  0.00  0.00    +0.000 C 
ATOM     12  C   UNL     1      -3.304  11.229  18.582  0.00  0.00    +0.000 C 
ATOM     13  C   UNL     1      -1.853  10.746  18.756  0.00  0.00    +0.000 C 
ATOM     14  C   UNL     1      -1.152  10.529  17.392  0.00  0.00    +0.000 C 
ATOM     15  C   UNL     1      -1.989   9.879  16.301  0.00  0.00    +0.000 C 
BRANCH  10  17
ATOM     16  C   UNL     1      -3.328   9.883  13.631  0.00  0.00    +0.000 C 
ATOM     17  C   UNL     1      -4.092   9.917  14.945  0.00  0.00    +0.000 C 
ENDBRANCH  10  17
ENDBRANCH   7  13
BRANCH   9  18
ATOM     18  C   UNL     1       0.967  12.518  20.884  0.00  0.00    +0.000 C 
ATOM     19  C   UNL     1       1.767  13.486  19.992  0.00  0.00    +0.000 C 
ATOM     20  C   UNL     1       0.121  13.358  21.851  0.00  0.00    +0.000 C 
ENDBRANCH   9  18
ENDBRANCH   1   9
BRANCH   6  21
ATOM     21  C   UNL     1       0.121   9.195  22.260  0.00  0.00    +0.000 C 
ATOM     22  O   UNL     1      -0.973   8.677  22.391  0.00  0.00    +0.000 OA
BRANCH  21  23
ATOM     23  O   UNL     1       0.715   9.835  23.278  0.00  0.00    +0.000 OA
ATOM     24  H   UNL     1       0.247   9.789  24.127  0.00  0.00    +0.000 HD
ENDBRANCH  21  23
ENDBRANCH   6  21
BRANCH   4  25
ATOM     25  O   UNL     1       2.786   6.535  19.146  0.00  0.00    +0.000 OA
BRANCH  25  26
ATOM     26  C   UNL     1       2.146   5.321  19.270  0.00  0.00    +0.000 A 
ATOM     27  C   UNL     1       1.665   4.811  20.480  0.00  0.00    +0.000 A 
ATOM     28  C   UNL     1       1.038   3.565  20.516  0.00  0.00    +0.000 A 
ATOM     29  C   UNL     1       0.842   2.845  19.337  0.00  0.00    +0.000 A 
ATOM     30  C   UNL     1       1.274   3.368  18.122  0.00  0.00    +0.000 A 
ATOM     31  C   UNL     1       1.924   4.608  18.086  0.00  0.00    +0.000 A 
ENDBRANCH  25  26
ENDBRANCH   4  25
TORSDOF 8
ENDMDL
MODEL 7
REMARK VINA RESULT:      -6.8      1.352      1.981
REMARK  Name = 
REMARK  11 active torsions:
REMARK  status: ('A' for Active; 'I' for Inactive)
REMARK    1  A    between atoms: C_1  and  C_2
REMARK    2  A    between atoms: C_2  and  C_3
REMARK    3  A    between atoms: C_6  and  C_7
REMARK    4  A    between atoms: N_9  and  C_10
REMARK    5  A    between atoms: N_9  and  C_26
REMARK    6  A    between atoms: C_13  and  O_14
REMARK    7  A    between atoms: O_14  and  C_15
REMARK    8  A    between atoms: C_22  and  C_23
REMARK    9  A    between atoms: C_23  and  O_25
REMARK   10  A    between atoms: C_26  and  C_27
REMARK   11  A    between atoms: C_26  and  C_28
REMARK                            x       y       z     vdW  Elec       q    Type
REMARK                         _______ _______ _______ _____ _____    ______ ____
ROOT
ATOM      1  C   UNL     1       0.703  10.167  18.919  0.00  0.00    +0.000 A 
ATOM      2  C   UNL     1       1.285   9.517  17.817  0.00  0.00    +0.000 A 
ATOM      3  C   UNL     1       2.009   8.330  17.981  0.00  0.00    +0.000 A 
ATOM      4  C   UNL     1       2.167   7.773  19.246  0.00  0.00    +0.000 A 
ATOM      5  C   UNL     1       1.611   8.421  20.349  0.00  0.00    +0.000 A 
ATOM      6  C   UNL     1       0.825   9.584  20.202  0.00  0.00    +0.000 A 
ENDROOT
BRANCH   1   9
ATOM      7  C   UNL     1       0.616  12.639  18.723  0.00  0.00    +0.000 C 
ATOM      8  O   UNL     1      -0.088  13.646  18.575  0.00  0.00    +0.000 OA
ATOM      9  N   UNL     1       0.002  11.377  18.654  0.00  0.00    +0.000 N 
BRANCH   7  13
ATOM     10  C   UNL     1       4.054  15.033  19.752  0.00  0.00    +0.000 C 
ATOM     11  C   UNL     1       4.164  14.294  18.413  0.00  0.00    +0.000 C 
ATOM     12  C   UNL     1       2.815  13.697  17.972  0.00  0.00    +0.000 C 
ATOM     13  C   UNL     1       2.130  12.806  19.024  0.00  0.00    +0.000 C 
ATOM     14  C   UNL     1       2.240  13.408  20.447  0.00  0.00    +0.000 C 
ATOM     15  C   UNL     1       3.578  14.034  20.812  0.00  0.00    +0.000 C 
BRANCH  10  17
ATOM     16  C   UNL     1       6.069  14.958  21.369  0.00  0.00    +0.000 C 
ATOM     17  C   UNL     1       5.367  15.684  20.232  0.00  0.00    +0.000 C 
ENDBRANCH  10  17
ENDBRANCH   7  13
BRANCH   9  18
ATOM     18  C   UNL     1      -1.461  11.319  18.310  0.00  0.00    +0.000 C 
ATOM     19  C   UNL     1      -1.887   9.978  17.685  0.00  0.00    +0.000 C 
ATOM     20  C   UNL     1      -2.445  11.644  19.443  0.00  0.00    +0.000 C 
ENDBRANCH   9  18
ENDBRANCH   1   9
BRANCH   6  21
ATOM     21  C   UNL     1       0.129  10.011  21.462  0.00  0.00    +0.000 C 
ATOM     22  O   UNL     1       0.295  11.117  21.943  0.00  0.00    +0.000 OA
BRANCH  21  23
ATOM     23  O   UNL     1      -0.667   9.107  22.053  0.00  0.00    +0.000 OA
ATOM     24  H   UNL     1      -0.259   8.605  22.776  0.00  0.00    +0.000 HD
ENDBRANCH  21  23
ENDBRANCH   6  21
BRANCH   4  25
ATOM     25  O   UNL     1       2.924   6.621  19.323  0.00  0.00    +0.000 OA
BRANCH  25  26
ATOM     26  C   UNL     1       3.645   6.199  18.228  0.00  0.00    +0.000 A 
ATOM     27  C   UNL     1       4.574   6.994  17.549  0.00  0.00    +0.000 A 
ATOM     28  C   UNL     1       5.254   6.489  16.441  0.00  0.00    +0.000 A 
ATOM     29  C   UNL     1       5.049   5.169  16.035  0.00  0.00    +0.000 A 
ATOM     30  C   UNL     1       4.163   4.355  16.736  0.00  0.00    +0.000 A 
ATOM     31  C   UNL     1       3.463   4.868  17.835  0.00  0.00    +0.000 A 
ENDBRANCH  25  26
ENDBRANCH   4  25
TORSDOF 8
ENDMDL
MODEL 8
REMARK VINA RESULT:      -6.7      4.138      7.617
REMARK  Name = 
REMARK  11 active torsions:
REMARK  status: ('A' for Active; 'I' for Inactive)
REMARK    1  A    between atoms: C_1  and  C_2
REMARK    2  A    between atoms: C_2  and  C_3
REMARK    3  A    between atoms: C_6  and  C_7
REMARK    4  A    between atoms: N_9  and  C_10
REMARK    5  A    between atoms: N_9  and  C_26
REMARK    6  A    between atoms: C_13  and  O_14
REMARK    7  A    between atoms: O_14  and  C_15
REMARK    8  A    between atoms: C_22  and  C_23
REMARK    9  A    between atoms: C_23  and  O_25
REMARK   10  A    between atoms: C_26  and  C_27
REMARK   11  A    between atoms: C_26  and  C_28
REMARK                            x       y       z     vdW  Elec       q    Type
REMARK                         _______ _______ _______ _____ _____    ______ ____
ROOT
ATOM      1  C   UNL     1       3.988   4.722  18.881  0.00  0.00    +0.000 A 
ATOM      2  C   UNL     1       5.142   5.481  19.142  0.00  0.00    +0.000 A 
ATOM      3  C   UNL     1       6.139   5.634  18.172  0.00  0.00    +0.000 A 
ATOM      4  C   UNL     1       6.003   5.032  16.925  0.00  0.00    +0.000 A 
ATOM      5  C   UNL     1       4.872   4.259  16.662  0.00  0.00    +0.000 A 
ATOM      6  C   UNL     1       3.825   4.141  17.602  0.00  0.00    +0.000 A 
ENDROOT
BRANCH   1   9
ATOM      7  C   UNL     1       2.312   5.710  20.421  0.00  0.00    +0.000 C 
ATOM      8  O   UNL     1       1.582   5.545  21.406  0.00  0.00    +0.000 OA
ATOM      9  N   UNL     1       3.041   4.609  19.937  0.00  0.00    +0.000 N 
BRANCH   7  13
ATOM     10  C   UNL     1       0.594   9.265  18.686  0.00  0.00    +0.000 C 
ATOM     11  C   UNL     1       1.582   8.521  17.779  0.00  0.00    +0.000 C 
ATOM     12  C   UNL     1       1.936   7.129  18.333  0.00  0.00    +0.000 C 
ATOM     13  C   UNL     1       2.433   7.123  19.789  0.00  0.00    +0.000 C 
ATOM     14  C   UNL     1       1.610   8.084  20.683  0.00  0.00    +0.000 C 
ATOM     15  C   UNL     1       1.240   9.425  20.066  0.00  0.00    +0.000 C 
BRANCH  10  17
ATOM     16  C   UNL     1      -1.328  10.900  18.126  0.00  0.00    +0.000 C 
ATOM     17  C   UNL     1       0.172  10.655  18.167  0.00  0.00    +0.000 C 
ENDBRANCH  10  17
ENDBRANCH   7  13
BRANCH   9  18
ATOM     18  C   UNL     1       2.818   3.271  20.588  0.00  0.00    +0.000 C 
ATOM     19  C   UNL     1       1.496   2.602  20.166  0.00  0.00    +0.000 C 
ATOM     20  C   UNL     1       3.942   2.237  20.430  0.00  0.00    +0.000 C 
ENDBRANCH   9  18
ENDBRANCH   1   9
BRANCH   6  21
ATOM     21  C   UNL     1       2.599   3.461  17.065  0.00  0.00    +0.000 C 
ATOM     22  O   UNL     1       1.563   4.070  16.869  0.00  0.00    +0.000 OA
BRANCH  21  23
ATOM     23  O   UNL     1       2.687   2.143  16.834  0.00  0.00    +0.000 OA
ATOM     24  H   UNL     1       2.407   1.856  15.949  0.00  0.00    +0.000 HD
ENDBRANCH  21  23
ENDBRANCH   6  21
BRANCH   4  25
ATOM     25  O   UNL     1       7.047   5.205  16.039  0.00  0.00    +0.000 OA
BRANCH  25  26
ATOM     26  C   UNL     1       6.921   4.775  14.736  0.00  0.00    +0.000 A 
ATOM     27  C   UNL     1       6.001   3.810  14.316  0.00  0.00    +0.000 A 
ATOM     28  C   UNL     1       5.949   3.426  12.976  0.00  0.00    +0.000 A 
ATOM     29  C   UNL     1       6.780   4.041  12.038  0.00  0.00    +0.000 A 
ATOM     30  C   UNL     1       7.664   5.038  12.439  0.00  0.00    +0.000 A 
ATOM     31  C   UNL     1       7.734   5.409  13.788  0.00  0.00    +0.000 A 
ENDBRANCH  25  26
ENDBRANCH   4  25
TORSDOF 8
ENDMDL
MODEL 9
REMARK VINA RESULT:      -6.6      1.680      5.326
REMARK  Name = 
REMARK  11 active torsions:
REMARK  status: ('A' for Active; 'I' for Inactive)
REMARK    1  A    between atoms: C_1  and  C_2
REMARK    2  A    between atoms: C_2  and  C_3
REMARK    3  A    between atoms: C_6  and  C_7
REMARK    4  A    between atoms: N_9  and  C_10
REMARK    5  A    between atoms: N_9  and  C_26
REMARK    6  A    between atoms: C_13  and  O_14
REMARK    7  A    between atoms: O_14  and  C_15
REMARK    8  A    between atoms: C_22  and  C_23
REMARK    9  A    between atoms: C_23  and  O_25
REMARK   10  A    between atoms: C_26  and  C_27
REMARK   11  A    between atoms: C_26  and  C_28
REMARK                            x       y       z     vdW  Elec       q    Type
REMARK                         _______ _______ _______ _____ _____    ______ ____
ROOT
ATOM      1  C   UNL     1       0.953  10.733  19.463  0.00  0.00    +0.000 A 
ATOM      2  C   UNL     1       1.454   9.845  18.496  0.00  0.00    +0.000 A 
ATOM      3  C   UNL     1       1.734   8.512  18.818  0.00  0.00    +0.000 A 
ATOM      4  C   UNL     1       1.521   8.043  20.111  0.00  0.00    +0.000 A 
ATOM      5  C   UNL     1       1.044   8.920  21.083  0.00  0.00    +0.000 A 
ATOM      6  C   UNL     1       0.696  10.252  20.768  0.00  0.00    +0.000 A 
ENDROOT
BRANCH   1   9
ATOM      7  C   UNL     1      -0.568  12.554  18.737  0.00  0.00    +0.000 C 
ATOM      8  O   UNL     1      -0.675  13.701  18.286  0.00  0.00    +0.000 OA
ATOM      9  N   UNL     1       0.716  12.073  19.044  0.00  0.00    +0.000 N 
BRANCH   7  13
ATOM     10  C   UNL     1      -4.759  11.765  18.089  0.00  0.00    +0.000 C 
ATOM     11  C   UNL     1      -4.342  11.848  19.563  0.00  0.00    +0.000 C 
ATOM     12  C   UNL     1      -2.917  12.407  19.727  0.00  0.00    +0.000 C 
ATOM     13  C   UNL     1      -1.840  11.679  18.903  0.00  0.00    +0.000 C 
ATOM     14  C   UNL     1      -2.339  11.341  17.476  0.00  0.00    +0.000 C 
ATOM     15  C   UNL     1      -3.772  10.844  17.364  0.00  0.00    +0.000 C 
BRANCH  10  17
ATOM     16  C   UNL     1      -6.722  10.317  18.942  0.00  0.00    +0.000 C 
ATOM     17  C   UNL     1      -6.193  11.244  17.859  0.00  0.00    +0.000 C 
ENDBRANCH  10  17
ENDBRANCH   7  13
BRANCH   9  18
ATOM     18  C   UNL     1       1.880  13.014  18.894  0.00  0.00    +0.000 C 
ATOM     19  C   UNL     1       2.547  13.374  20.235  0.00  0.00    +0.000 C 
ATOM     20  C   UNL     1       2.984  12.588  17.917  0.00  0.00    +0.000 C 
ENDBRANCH   9  18
ENDBRANCH   1   9
BRANCH   6  21
ATOM     21  C   UNL     1      -0.006  10.976  21.880  0.00  0.00    +0.000 C 
ATOM     22  O   UNL     1       0.152  12.169  22.069  0.00  0.00    +0.000 OA
BRANCH  21  23
ATOM     23  O   UNL     1      -0.798  10.244  22.677  0.00  0.00    +0.000 OA
ATOM     24  H   UNL     1      -0.801  10.504  23.613  0.00  0.00    +0.000 HD
ENDBRANCH  21  23
ENDBRANCH   6  21
BRANCH   4  25
ATOM     25  O   UNL     1       1.857   6.725  20.351  0.00  0.00    +0.000 OA
BRANCH  25  26
ATOM     26  C   UNL     1       2.455   5.977  19.361  0.00  0.00    +0.000 A 
ATOM     27  C   UNL     1       1.768   5.081  18.536  0.00  0.00    +0.000 A 
ATOM     28  C   UNL     1       2.456   4.354  17.564  0.00  0.00    +0.000 A 
ATOM     29  C   UNL     1       3.825   4.556  17.375  0.00  0.00    +0.000 A 
ATOM     30  C   UNL     1       4.506   5.482  18.160  0.00  0.00    +0.000 A 
ATOM     31  C   UNL     1       3.821   6.196  19.151  0.00  0.00    +0.000 A 
ENDBRANCH  25  26
ENDBRANCH   4  25
TORSDOF 8
ENDMDL
