MODEL 1
REMARK VINA RESULT:      -7.3      0.000      0.000
REMARK  Name = 
REMARK  12 active torsions:
REMARK  status: ('A' for Active; 'I' for Inactive)
REMARK    1  A    between atoms: C_1  and  O_2
REMARK    2  A    between atoms: O_2  and  C_3
REMARK    3  A    between atoms: C_3  and  C_4
REMARK    4  A    between atoms: C_4  and  O_5
REMARK    5  A    between atoms: O_5  and  C_6
REMARK    6  A    between atoms: C_11  and  C_12
REMARK    7  A    between atoms: C_13  and  C_14
REMARK    8  A    between atoms: C_14  and  C_16
REMARK    9  A    between atoms: C_16  and  C_17
REMARK   10  A    between atoms: C_16  and  C_18
REMARK   11  A    between atoms: N_23  and  C_24
REMARK   12  A    between atoms: C_27  and  C_28
REMARK                            x       y       z     vdW  Elec       q    Type
REMARK                         _______ _______ _______ _____ _____    ______ ____
ROOT
ATOM      1  C   UNL     1       3.156   4.192  18.018  0.00  0.00    +0.000 C 
ATOM      2  C   UNL     1       2.912   2.673  18.198  0.00  0.00    +0.000 C 
ATOM      3  C   UNL     1       1.533   2.680  18.740  0.00  0.00    +0.000 C 
ATOM      4  O   UNL     1       0.751   1.741  18.726  0.00  0.00    +0.000 OA
ATOM      5  C   UNL     1       1.185   4.054  19.267  0.00  0.00    +0.000 C 
ATOM      6  O   UNL     1       0.159   4.274  19.888  0.00  0.00    +0.000 OA
ATOM      7  N   UNL     1       2.198   4.905  18.849  0.00  0.00    +0.000 N 
ENDROOT
BRANCH   1  13
ATOM      8  C   UNL     1       5.462   4.608  16.845  0.00  0.00    +0.000 A 
ATOM      9  C   UNL     1       6.808   4.989  17.016  0.00  0.00    +0.000 A 
ATOM     10  C   UNL     1       7.311   5.418  18.242  0.00  0.00    +0.000 A 
ATOM     11  C   UNL     1       6.474   5.483  19.339  0.00  0.00    +0.000 A 
ATOM     12  C   UNL     1       5.133   5.128  19.196  0.00  0.00    +0.000 A 
ATOM     13  C   UNL     1       4.596   4.677  17.960  0.00  0.00    +0.000 A 
BRANCH   8  14
ATOM     14  O   UNL     1       4.986   4.122  15.636  0.00  0.00    +0.000 OA
BRANCH  14  15
ATOM     15  C   UNL     1       5.626   4.704  14.480  0.00  0.00    +0.000 C 
BRANCH  15  16
ATOM     16  C   UNL     1       6.187   3.713  13.465  0.00  0.00    +0.000 C 
BRANCH  16  18
ATOM     17  C   UNL     1       5.602   2.374  11.619  0.00  0.00    +0.000 C 
ATOM     18  O   UNL     1       5.240   3.490  12.421  0.00  0.00    +0.000 OA
ENDBRANCH  16  18
ENDBRANCH  15  16
ENDBRANCH  14  15
ENDBRANCH   8  14
ENDBRANCH   1  13
BRANCH   7  19
ATOM     19  C   UNL     1       2.174   6.320  19.010  0.00  0.00    +0.000 A 
ATOM     20  C   UNL     1       2.269   7.155  17.894  0.00  0.00    +0.000 A 
ATOM     21  C   UNL     1       2.019   8.527  18.001  0.00  0.00    +0.000 A 
ATOM     22  C   UNL     1       1.693   9.116  19.228  0.00  0.00    +0.000 A 
ATOM     23  C   UNL     1       1.690   8.296  20.361  0.00  0.00    +0.000 A 
ATOM     24  C   UNL     1       1.954   6.927  20.255  0.00  0.00    +0.000 A 
BRANCH  22  25
ATOM     25  C   UNL     1       1.336  10.539  19.346  0.00  0.00    +0.000 A 
ATOM     26  C   UNL     1       0.437  11.139  20.213  0.00  0.00    +0.000 A 
ATOM     27  C   UNL     1       0.374  12.556  20.058  0.00  0.00    +0.000 A 
ATOM     28  C   UNL     1       1.217  12.999  19.066  0.00  0.00    +0.000 A 
ATOM     29  S   UNL     1       2.083  11.720  18.342  0.00  0.00    +0.000 S 
ENDBRANCH  22  25
ENDBRANCH   7  19
BRANCH   2  30
ATOM     30  C   UNL     1       3.919   1.856  18.982  0.00  0.00    +0.000 C 
ATOM     31  O   UNL     1       4.392   0.844  18.448  0.00  0.00    +0.000 OA
BRANCH  30  32
ATOM     32  C   UNL     1       4.335   2.260  20.402  0.00  0.00    +0.000 C 
ATOM     33  C   UNL     1       3.159   2.361  21.376  0.00  0.00    +0.000 C 
ATOM     34  C   UNL     1       5.320   1.232  20.969  0.00  0.00    +0.000 C 
ENDBRANCH  30  32
ENDBRANCH   2  30
TORSDOF 9
ENDMDL
MODEL 2
REMARK VINA RESULT:      -6.5      7.567     10.488
REMARK  Name = 
REMARK  12 active torsions:
REMARK  status: ('A' for Active; 'I' for Inactive)
REMARK    1  A    between atoms: C_1  and  O_2
REMARK    2  A    between atoms: O_2  and  C_3
REMARK    3  A    between atoms: C_3  and  C_4
REMARK    4  A    between atoms: C_4  and  O_5
REMARK    5  A    between atoms: O_5  and  C_6
REMARK    6  A    between atoms: C_11  and  C_12
REMARK    7  A    between atoms: C_13  and  C_14
REMARK    8  A    between atoms: C_14  and  C_16
REMARK    9  A    between atoms: C_16  and  C_17
REMARK   10  A    between atoms: C_16  and  C_18
REMARK   11  A    between atoms: N_23  and  C_24
REMARK   12  A    between atoms: C_27  and  C_28
REMARK                            x       y       z     vdW  Elec       q    Type
REMARK                         _______ _______ _______ _____ _____    ______ ____
ROOT
ATOM      1  C   UNL     1      -0.566  13.961  19.686  0.00  0.00    +0.000 C 
ATOM      2  C   UNL     1      -1.887  14.275  20.430  0.00  0.00    +0.000 C 
ATOM      3  C   UNL     1      -1.608  15.646  20.917  0.00  0.00    +0.000 C 
ATOM      4  O   UNL     1      -2.442  16.472  21.257  0.00  0.00    +0.000 OA
ATOM      5  C   UNL     1      -0.122  15.923  20.876  0.00  0.00    +0.000 C 
ATOM      6  O   UNL     1       0.368  16.930  21.357  0.00  0.00    +0.000 OA
ATOM      7  N   UNL     1       0.456  14.875  20.173  0.00  0.00    +0.000 N 
ENDROOT
BRANCH   1  13
ATOM      8  C   UNL     1      -0.791  11.631  18.507  0.00  0.00    +0.000 A 
ATOM      9  C   UNL     1      -0.425  10.270  18.529  0.00  0.00    +0.000 A 
ATOM     10  C   UNL     1       0.477   9.756  19.458  0.00  0.00    +0.000 A 
ATOM     11  C   UNL     1       1.045  10.597  20.395  0.00  0.00    +0.000 A 
ATOM     12  C   UNL     1       0.714  11.951  20.388  0.00  0.00    +0.000 A 
ATOM     13  C   UNL     1      -0.210  12.500  19.458  0.00  0.00    +0.000 A 
BRANCH   8  14
ATOM     14  O   UNL     1      -1.737  12.121  17.619  0.00  0.00    +0.000 OA
BRANCH  14  15
ATOM     15  C   UNL     1      -3.046  11.534  17.780  0.00  0.00    +0.000 C 
BRANCH  15  16
ATOM     16  C   UNL     1      -3.742  11.105  16.490  0.00  0.00    +0.000 C 
BRANCH  16  18
ATOM     17  C   UNL     1      -3.235  10.168  14.391  0.00  0.00    +0.000 C 
ATOM     18  O   UNL     1      -2.800  11.047  15.420  0.00  0.00    +0.000 OA
ENDBRANCH  16  18
ENDBRANCH  15  16
ENDBRANCH  14  15
ENDBRANCH   8  14
ENDBRANCH   1  13
BRANCH   7  19
ATOM     19  C   UNL     1       1.824  14.830  19.781  0.00  0.00    +0.000 A 
ATOM     20  C   UNL     1       2.175  15.000  18.439  0.00  0.00    +0.000 A 
ATOM     21  C   UNL     1       3.510  15.188  18.066  0.00  0.00    +0.000 A 
ATOM     22  C   UNL     1       4.541  15.186  19.012  0.00  0.00    +0.000 A 
ATOM     23  C   UNL     1       4.199  14.923  20.343  0.00  0.00    +0.000 A 
ATOM     24  C   UNL     1       2.865  14.721  20.714  0.00  0.00    +0.000 A 
BRANCH  22  25
ATOM     25  C   UNL     1       5.938  15.474  18.653  0.00  0.00    +0.000 A 
ATOM     26  C   UNL     1       6.838  14.680  17.959  0.00  0.00    +0.000 A 
ATOM     27  C   UNL     1       8.105  15.307  17.771  0.00  0.00    +0.000 A 
ATOM     28  C   UNL     1       8.144  16.559  18.338  0.00  0.00    +0.000 A 
ATOM     29  S   UNL     1       6.664  16.975  19.077  0.00  0.00    +0.000 S 
ENDBRANCH  22  25
ENDBRANCH   7  19
BRANCH   2  30
ATOM     30  C   UNL     1      -2.390  13.299  21.475  0.00  0.00    +0.000 C 
ATOM     31  O   UNL     1      -3.414  12.651  21.223  0.00  0.00    +0.000 OA
BRANCH  30  32
ATOM     32  C   UNL     1      -1.661  13.125  22.813  0.00  0.00    +0.000 C 
ATOM     33  C   UNL     1      -2.346  13.844  23.979  0.00  0.00    +0.000 C 
ATOM     34  C   UNL     1      -1.577  11.637  23.171  0.00  0.00    +0.000 C 
ENDBRANCH  30  32
ENDBRANCH   2  30
TORSDOF 9
ENDMDL
MODEL 3
REMARK VINA RESULT:      -6.4      5.513     10.582
REMARK  Name = 
REMARK  12 active torsions:
REMARK  status: ('A' for Active; 'I' for Inactive)
REMARK    1  A    between atoms: C_1  and  O_2
REMARK    2  A    between atoms: O_2  and  C_3
REMARK    3  A    between atoms: C_3  and  C_4
REMARK    4  A    between atoms: C_4  and  O_5
REMARK    5  A    between atoms: O_5  and  C_6
REMARK    6  A    between atoms: C_11  and  C_12
REMARK    7  A    between atoms: C_13  and  C_14
REMARK    8  A    between atoms: C_14  and  C_16
REMARK    9  A    between atoms: C_16  and  C_17
REMARK   10  A    between atoms: C_16  and  C_18
REMARK   11  A    between atoms: N_23  and  C_24
REMARK   12  A    between atoms: C_27  and  C_28
REMARK                            x       y       z     vdW  Elec       q    Type
REMARK                         _______ _______ _______ _____ _____    ______ ____
ROOT
ATOM      1  C   UNL     1       0.722  13.325  21.837  0.00  0.00    +0.000 C 
ATOM      2  C   UNL     1      -0.113  14.506  22.392  0.00  0.00    +0.000 C 
ATOM      3  C   UNL     1      -1.256  13.777  22.990  0.00  0.00    +0.000 C 
ATOM      4  O   UNL     1      -2.013  14.206  23.848  0.00  0.00    +0.000 OA
ATOM      5  C   UNL     1      -1.328  12.372  22.433  0.00  0.00    +0.000 C 
ATOM      6  O   UNL     1      -2.263  11.625  22.666  0.00  0.00    +0.000 OA
ATOM      7  N   UNL     1      -0.153  12.168  21.724  0.00  0.00    +0.000 N 
ENDROOT
BRANCH   1  13
ATOM      8  C   UNL     1       3.069  13.987  20.879  0.00  0.00    +0.000 A 
ATOM      9  C   UNL     1       3.803  14.350  19.732  0.00  0.00    +0.000 A 
ATOM     10  C   UNL     1       3.237  14.366  18.459  0.00  0.00    +0.000 A 
ATOM     11  C   UNL     1       1.911  14.014  18.297  0.00  0.00    +0.000 A 
ATOM     12  C   UNL     1       1.164  13.635  19.412  0.00  0.00    +0.000 A 
ATOM     13  C   UNL     1       1.714  13.620  20.722  0.00  0.00    +0.000 A 
BRANCH   8  14
ATOM     14  O   UNL     1       3.624  14.035  22.150  0.00  0.00    +0.000 OA
BRANCH  14  15
ATOM     15  C   UNL     1       5.064  14.135  22.154  0.00  0.00    +0.000 C 
BRANCH  15  16
ATOM     16  C   UNL     1       5.765  13.552  23.378  0.00  0.00    +0.000 C 
BRANCH  16  18
ATOM     17  C   UNL     1       6.092  11.580  24.622  0.00  0.00    +0.000 C 
ATOM     18  O   UNL     1       5.601  12.135  23.409  0.00  0.00    +0.000 OA
ENDBRANCH  16  18
ENDBRANCH  15  16
ENDBRANCH  14  15
ENDBRANCH   8  14
ENDBRANCH   1  13
BRANCH   7  19
ATOM     19  C   UNL     1       0.241  10.917  21.168  0.00  0.00    +0.000 A 
ATOM     20  C   UNL     1       0.166  10.707  19.789  0.00  0.00    +0.000 A 
ATOM     21  C   UNL     1       0.756   9.583  19.201  0.00  0.00    +0.000 A 
ATOM     22  C   UNL     1       1.417   8.619  19.970  0.00  0.00    +0.000 A 
ATOM     23  C   UNL     1       1.413   8.783  21.359  0.00  0.00    +0.000 A 
ATOM     24  C   UNL     1       0.810   9.899  21.948  0.00  0.00    +0.000 A 
BRANCH  22  25
ATOM     25  C   UNL     1       2.124   7.480  19.364  0.00  0.00    +0.000 A 
ATOM     26  C   UNL     1       2.817   7.426  18.164  0.00  0.00    +0.000 A 
ATOM     27  C   UNL     1       3.402   6.150  17.916  0.00  0.00    +0.000 A 
ATOM     28  C   UNL     1       3.130   5.257  18.926  0.00  0.00    +0.000 A 
ATOM     29  S   UNL     1       2.189   5.958  20.164  0.00  0.00    +0.000 S 
ENDBRANCH  22  25
ENDBRANCH   7  19
BRANCH   2  30
ATOM     30  C   UNL     1      -0.478  15.646  21.463  0.00  0.00    +0.000 C 
ATOM     31  O   UNL     1      -1.430  15.486  20.688  0.00  0.00    +0.000 OA
BRANCH  30  32
ATOM     32  C   UNL     1       0.313  16.960  21.472  0.00  0.00    +0.000 C 
ATOM     33  C   UNL     1       1.474  16.966  22.470  0.00  0.00    +0.000 C 
ATOM     34  C   UNL     1       0.897  17.226  20.079  0.00  0.00    +0.000 C 
ENDBRANCH  30  32
ENDBRANCH   2  30
TORSDOF 9
ENDMDL
MODEL 4
REMARK VINA RESULT:      -6.4      4.857      9.885
REMARK  Name = 
REMARK  12 active torsions:
REMARK  status: ('A' for Active; 'I' for Inactive)
REMARK    1  A    between atoms: C_1  and  O_2
REMARK    2  A    between atoms: O_2  and  C_3
REMARK    3  A    between atoms: C_3  and  C_4
REMARK    4  A    between atoms: C_4  and  O_5
REMARK    5  A    between atoms: O_5  and  C_6
REMARK    6  A    between atoms: C_11  and  C_12
REMARK    7  A    between atoms: C_13  and  C_14
REMARK    8  A    between atoms: C_14  and  C_16
REMARK    9  A    between atoms: C_16  and  C_17
REMARK   10  A    between atoms: C_16  and  C_18
REMARK   11  A    between atoms: N_23  and  C_24
REMARK   12  A    between atoms: C_27  and  C_28
REMARK                            x       y       z     vdW  Elec       q    Type
REMARK                         _______ _______ _______ _____ _____    ______ ____
ROOT
ATOM      1  C   UNL     1      -0.866  11.590  20.356  0.00  0.00    +0.000 C 
ATOM      2  C   UNL     1      -1.626  12.541  21.313  0.00  0.00    +0.000 C 
ATOM      3  C   UNL     1      -1.034  12.151  22.614  0.00  0.00    +0.000 C 
ATOM      4  O   UNL     1      -1.030  12.825  23.633  0.00  0.00    +0.000 OA
ATOM      5  C   UNL     1      -0.358  10.803  22.498  0.00  0.00    +0.000 C 
ATOM      6  O   UNL     1       0.080  10.206  23.467  0.00  0.00    +0.000 OA
ATOM      7  N   UNL     1      -0.321  10.495  21.145  0.00  0.00    +0.000 N 
ENDROOT
BRANCH   1  13
ATOM      8  C   UNL     1      -1.438  12.104  17.851  0.00  0.00    +0.000 A 
ATOM      9  C   UNL     1      -2.195  11.726  16.724  0.00  0.00    +0.000 A 
ATOM     10  C   UNL     1      -3.000  10.589  16.714  0.00  0.00    +0.000 A 
ATOM     11  C   UNL     1      -3.068   9.791  17.840  0.00  0.00    +0.000 A 
ATOM     12  C   UNL     1      -2.318  10.131  18.964  0.00  0.00    +0.000 A 
ATOM     13  C   UNL     1      -1.497  11.290  19.005  0.00  0.00    +0.000 A 
BRANCH   8  14
ATOM     14  O   UNL     1      -0.689  13.271  17.873  0.00  0.00    +0.000 OA
BRANCH  14  15
ATOM     15  C   UNL     1       0.705  13.064  18.189  0.00  0.00    +0.000 C 
BRANCH  15  16
ATOM     16  C   UNL     1       1.436  14.269  18.776  0.00  0.00    +0.000 C 
BRANCH  16  18
ATOM     17  C   UNL     1       3.324  15.255  17.772  0.00  0.00    +0.000 C 
ATOM     18  O   UNL     1       2.838  14.158  18.534  0.00  0.00    +0.000 OA
ENDBRANCH  16  18
ENDBRANCH  15  16
ENDBRANCH  14  15
ENDBRANCH   8  14
ENDBRANCH   1  13
BRANCH   7  19
ATOM     19  C   UNL     1       0.369   9.377  20.595  0.00  0.00    +0.000 A 
ATOM     20  C   UNL     1       1.042   9.498  19.377  0.00  0.00    +0.000 A 
ATOM     21  C   UNL     1       1.909   8.493  18.934  0.00  0.00    +0.000 A 
ATOM     22  C   UNL     1       2.113   7.325  19.677  0.00  0.00    +0.000 A 
ATOM     23  C   UNL     1       1.369   7.164  20.850  0.00  0.00    +0.000 A 
ATOM     24  C   UNL     1       0.491   8.162  21.285  0.00  0.00    +0.000 A 
BRANCH  22  25
ATOM     25  C   UNL     1       3.089   6.299  19.277  0.00  0.00    +0.000 A 
ATOM     26  C   UNL     1       3.415   5.113  19.916  0.00  0.00    +0.000 A 
ATOM     27  C   UNL     1       4.394   4.351  19.212  0.00  0.00    +0.000 A 
ATOM     28  C   UNL     1       4.800   4.982  18.059  0.00  0.00    +0.000 A 
ATOM     29  S   UNL     1       3.999   6.470  17.826  0.00  0.00    +0.000 S 
ENDBRANCH  22  25
ENDBRANCH   7  19
BRANCH   2  30
ATOM     30  C   UNL     1      -3.140  12.572  21.267  0.00  0.00    +0.000 C 
ATOM     31  O   UNL     1      -3.763  11.926  22.120  0.00  0.00    +0.000 OA
BRANCH  30  32
ATOM     32  C   UNL     1      -3.884  13.371  20.190  0.00  0.00    +0.000 C 
ATOM     33  C   UNL     1      -5.017  12.586  19.522  0.00  0.00    +0.000 C 
ATOM     34  C   UNL     1      -4.496  14.634  20.807  0.00  0.00    +0.000 C 
ENDBRANCH  30  32
ENDBRANCH   2  30
TORSDOF 9
ENDMDL
MODEL 5
REMARK VINA RESULT:      -6.4      9.287     11.204
REMARK  Name = 
REMARK  12 active torsions:
REMARK  status: ('A' for Active; 'I' for Inactive)
REMARK    1  A    between atoms: C_1  and  O_2
REMARK    2  A    between atoms: O_2  and  C_3
REMARK    3  A    between atoms: C_3  and  C_4
REMARK    4  A    between atoms: C_4  and  O_5
REMARK    5  A    between atoms: O_5  and  C_6
REMARK    6  A    between atoms: C_11  and  C_12
REMARK    7  A    between atoms: C_13  and  C_14
REMARK    8  A    between atoms: C_14  and  C_16
REMARK    9  A    between atoms: C_16  and  C_17
REMARK   10  A    between atoms: C_16  and  C_18
REMARK   11  A    between atoms: N_23  and  C_24
REMARK   12  A    between atoms: C_27  and  C_28
REMARK                            x       y       z     vdW  Elec       q    Type
REMARK                         _______ _______ _______ _____ _____    ______ ____
ROOT
ATOM      1  C   UNL     1       6.742  14.601  20.977  0.00  0.00    +0.000 C 
ATOM      2  C   UNL     1       7.684  14.155  22.122  0.00  0.00    +0.000 C 
ATOM      3  C   UNL     1       6.696  13.787  23.163  0.00  0.00    +0.000 C 
ATOM      4  O   UNL     1       6.899  13.055  24.120  0.00  0.00    +0.000 OA
ATOM      5  C   UNL     1       5.350  14.397  22.844  0.00  0.00    +0.000 C 
ATOM      6  O   UNL     1       4.413  14.354  23.623  0.00  0.00    +0.000 OA
ATOM      7  N   UNL     1       5.441  14.903  21.555  0.00  0.00    +0.000 N 
ENDROOT
BRANCH   1  13
ATOM      8  C   UNL     1       7.825  15.127  18.650  0.00  0.00    +0.000 A 
ATOM      9  C   UNL     1       8.433  16.107  17.839  0.00  0.00    +0.000 A 
ATOM     10  C   UNL     1       8.550  17.437  18.236  0.00  0.00    +0.000 A 
ATOM     11  C   UNL     1       8.055  17.827  19.466  0.00  0.00    +0.000 A 
ATOM     12  C   UNL     1       7.435  16.884  20.283  0.00  0.00    +0.000 A 
ATOM     13  C   UNL     1       7.311  15.519  19.907  0.00  0.00    +0.000 A 
BRANCH   8  14
ATOM     14  O   UNL     1       7.770  13.794  18.272  0.00  0.00    +0.000 OA
BRANCH  14  15
ATOM     15  C   UNL     1       9.027  13.272  17.789  0.00  0.00    +0.000 C 
BRANCH  15  16
ATOM     16  C   UNL     1       9.347  11.836  18.195  0.00  0.00    +0.000 C 
BRANCH  16  18
ATOM     17  C   UNL     1      11.617  12.322  17.798  0.00  0.00    +0.000 C 
ATOM     18  O   UNL     1      10.554  11.406  17.567  0.00  0.00    +0.000 OA
ENDBRANCH  16  18
ENDBRANCH  15  16
ENDBRANCH  14  15
ENDBRANCH   8  14
ENDBRANCH   1  13
BRANCH   7  19
ATOM     19  C   UNL     1       4.340  15.428  20.820  0.00  0.00    +0.000 A 
ATOM     20  C   UNL     1       3.860  16.711  21.096  0.00  0.00    +0.000 A 
ATOM     21  C   UNL     1       2.939  17.331  20.244  0.00  0.00    +0.000 A 
ATOM     22  C   UNL     1       2.449  16.685  19.104  0.00  0.00    +0.000 A 
ATOM     23  C   UNL     1       2.860  15.367  18.878  0.00  0.00    +0.000 A 
ATOM     24  C   UNL     1       3.768  14.742  19.739  0.00  0.00    +0.000 A 
BRANCH  22  25
ATOM     25  C   UNL     1       1.554  17.353  18.146  0.00  0.00    +0.000 A 
ATOM     26  C   UNL     1       1.852  17.871  16.896  0.00  0.00    +0.000 A 
ATOM     27  C   UNL     1       0.714  18.422  16.236  0.00  0.00    +0.000 A 
ATOM     28  C   UNL     1      -0.421  18.323  17.005  0.00  0.00    +0.000 A 
ATOM     29  S   UNL     1      -0.117  17.561  18.501  0.00  0.00    +0.000 S 
ENDBRANCH  22  25
ENDBRANCH   7  19
BRANCH   2  30
ATOM     30  C   UNL     1       8.789  15.090  22.570  0.00  0.00    +0.000 C 
ATOM     31  O   UNL     1       8.491  16.028  23.320  0.00  0.00    +0.000 OA
BRANCH  30  32
ATOM     32  C   UNL     1      10.235  14.891  22.101  0.00  0.00    +0.000 C 
ATOM     33  C   UNL     1      10.387  13.798  21.039  0.00  0.00    +0.000 C 
ATOM     34  C   UNL     1      10.775  16.196  21.504  0.00  0.00    +0.000 C 
ENDBRANCH  30  32
ENDBRANCH   2  30
TORSDOF 9
ENDMDL
MODEL 6
REMARK VINA RESULT:      -6.4      5.993     11.267
REMARK  Name = 
REMARK  12 active torsions:
REMARK  status: ('A' for Active; 'I' for Inactive)
REMARK    1  A    between atoms: C_1  and  O_2
REMARK    2  A    between atoms: O_2  and  C_3
REMARK    3  A    between atoms: C_3  and  C_4
REMARK    4  A    between atoms: C_4  and  O_5
REMARK    5  A    between atoms: O_5  and  C_6
REMARK    6  A    between atoms: C_11  and  C_12
REMARK    7  A    between atoms: C_13  and  C_14
REMARK    8  A    between atoms: C_14  and  C_16
REMARK    9  A    between atoms: C_16  and  C_17
REMARK   10  A    between atoms: C_16  and  C_18
REMARK   11  A    between atoms: N_23  and  C_24
REMARK   12  A    between atoms: C_27  and  C_28
REMARK                            x       y       z     vdW  Elec       q    Type
REMARK                         _______ _______ _______ _____ _____    ______ ____
ROOT
ATOM      1  C   UNL     1      -0.519  13.786  22.458  0.00  0.00    +0.000 C 
ATOM      2  C   UNL     1      -1.482  14.804  23.116  0.00  0.00    +0.000 C 
ATOM      3  C   UNL     1      -2.425  13.887  23.799  0.00  0.00    +0.000 C 
ATOM      4  O   UNL     1      -3.158  14.174  24.734  0.00  0.00    +0.000 OA
ATOM      5  C   UNL     1      -2.314  12.495  23.217  0.00  0.00    +0.000 C 
ATOM      6  O   UNL     1      -3.085  11.599  23.517  0.00  0.00    +0.000 OA
ATOM      7  N   UNL     1      -1.195  12.498  22.397  0.00  0.00    +0.000 N 
ENDROOT
BRANCH   1  13
ATOM      8  C   UNL     1       1.611  14.777  21.298  0.00  0.00    +0.000 A 
ATOM      9  C   UNL     1       2.163  15.282  20.103  0.00  0.00    +0.000 A 
ATOM     10  C   UNL     1       1.458  15.289  18.901  0.00  0.00    +0.000 A 
ATOM     11  C   UNL     1       0.173  14.785  18.861  0.00  0.00    +0.000 A 
ATOM     12  C   UNL     1      -0.393  14.264  20.023  0.00  0.00    +0.000 A 
ATOM     13  C   UNL     1       0.299  14.253  21.264  0.00  0.00    +0.000 A 
BRANCH   8  14
ATOM     14  O   UNL     1       2.297  14.832  22.502  0.00  0.00    +0.000 OA
BRANCH  14  15
ATOM     15  C   UNL     1       3.520  15.596  22.443  0.00  0.00    +0.000 C 
BRANCH  15  16
ATOM     16  C   UNL     1       4.761  14.903  23.001  0.00  0.00    +0.000 C 
BRANCH  16  18
ATOM     17  C   UNL     1       5.807  14.960  20.892  0.00  0.00    +0.000 C 
ATOM     18  O   UNL     1       5.398  14.139  21.978  0.00  0.00    +0.000 OA
ENDBRANCH  16  18
ENDBRANCH  15  16
ENDBRANCH  14  15
ENDBRANCH   8  14
ENDBRANCH   1  13
BRANCH   7  19
ATOM     19  C   UNL     1      -0.652  11.337  21.776  0.00  0.00    +0.000 A 
ATOM     20  C   UNL     1      -0.806  11.140  20.402  0.00  0.00    +0.000 A 
ATOM     21  C   UNL     1      -0.094  10.136  19.737  0.00  0.00    +0.000 A 
ATOM     22  C   UNL     1       0.775   9.280  20.424  0.00  0.00    +0.000 A 
ATOM     23  C   UNL     1       0.859   9.419  21.812  0.00  0.00    +0.000 A 
ATOM     24  C   UNL     1       0.135  10.413  22.479  0.00  0.00    +0.000 A 
BRANCH  22  25
ATOM     25  C   UNL     1       1.603   8.280  19.731  0.00  0.00    +0.000 A 
ATOM     26  C   UNL     1       2.065   7.060  20.199  0.00  0.00    +0.000 A 
ATOM     27  C   UNL     1       2.822   6.341  19.228  0.00  0.00    +0.000 A 
ATOM     28  C   UNL     1       2.930   7.036  18.047  0.00  0.00    +0.000 A 
ATOM     29  S   UNL     1       2.116   8.534  18.108  0.00  0.00    +0.000 S 
ENDBRANCH  22  25
ENDBRANCH   7  19
BRANCH   2  30
ATOM     30  C   UNL     1      -2.120  15.875  22.255  0.00  0.00    +0.000 C 
ATOM     31  O   UNL     1      -3.104  15.564  21.571  0.00  0.00    +0.000 OA
BRANCH  30  32
ATOM     32  C   UNL     1      -1.558  17.301  22.218  0.00  0.00    +0.000 C 
ATOM     33  C   UNL     1      -0.284  17.476  23.049  0.00  0.00    +0.000 C 
ATOM     34  C   UNL     1      -1.227  17.694  20.774  0.00  0.00    +0.000 C 
ENDBRANCH  30  32
ENDBRANCH   2  30
TORSDOF 9
ENDMDL
MODEL 7
REMARK VINA RESULT:      -6.4      7.840     11.406
REMARK  Name = 
REMARK  12 active torsions:
REMARK  status: ('A' for Active; 'I' for Inactive)
REMARK    1  A    between atoms: C_1  and  O_2
REMARK    2  A    between atoms: O_2  and  C_3
REMARK    3  A    between atoms: C_3  and  C_4
REMARK    4  A    between atoms: C_4  and  O_5
REMARK    5  A    between atoms: O_5  and  C_6
REMARK    6  A    between atoms: C_11  and  C_12
REMARK    7  A    between atoms: C_13  and  C_14
REMARK    8  A    between atoms: C_14  and  C_16
REMARK    9  A    between atoms: C_16  and  C_17
REMARK   10  A    between atoms: C_16  and  C_18
REMARK   11  A    between atoms: N_23  and  C_24
REMARK   12  A    between atoms: C_27  and  C_28
REMARK                            x       y       z     vdW  Elec       q    Type
REMARK                         _______ _______ _______ _____ _____    ______ ____
ROOT
ATOM      1  C   UNL     1       1.105  14.241  21.633  0.00  0.00    +0.000 C 
ATOM      2  C   UNL     1       2.485  14.805  21.215  0.00  0.00    +0.000 C 
ATOM      3  C   UNL     1       2.586  15.978  22.115  0.00  0.00    +0.000 C 
ATOM      4  O   UNL     1       3.615  16.555  22.432  0.00  0.00    +0.000 OA
ATOM      5  C   UNL     1       1.221  16.339  22.657  0.00  0.00    +0.000 C 
ATOM      6  O   UNL     1       1.023  17.352  23.307  0.00  0.00    +0.000 OA
ATOM      7  N   UNL     1       0.370  15.299  22.309  0.00  0.00    +0.000 N 
ENDROOT
BRANCH   1  13
ATOM      8  C   UNL     1       0.492  11.940  20.540  0.00  0.00    +0.000 A 
ATOM      9  C   UNL     1      -0.162  11.290  19.474  0.00  0.00    +0.000 A 
ATOM     10  C   UNL     1      -0.906  11.984  18.522  0.00  0.00    +0.000 A 
ATOM     11  C   UNL     1      -1.019  13.357  18.612  0.00  0.00    +0.000 A 
ATOM     12  C   UNL     1      -0.396  14.026  19.665  0.00  0.00    +0.000 A 
ATOM     13  C   UNL     1       0.376  13.345  20.644  0.00  0.00    +0.000 A 
BRANCH   8  14
ATOM     14  O   UNL     1       1.282  11.248  21.446  0.00  0.00    +0.000 OA
BRANCH  14  15
ATOM     15  C   UNL     1       1.076   9.819  21.427  0.00  0.00    +0.000 C 
BRANCH  15  16
ATOM     16  C   UNL     1       0.296   9.246  22.607  0.00  0.00    +0.000 C 
BRANCH  16  18
ATOM     17  C   UNL     1      -1.408  10.741  23.243  0.00  0.00    +0.000 C 
ATOM     18  O   UNL     1      -0.083  10.293  23.499  0.00  0.00    +0.000 OA
ENDBRANCH  16  18
ENDBRANCH  15  16
ENDBRANCH  14  15
ENDBRANCH   8  14
ENDBRANCH   1  13
BRANCH   7  19
ATOM     19  C   UNL     1      -0.975  15.178  22.760  0.00  0.00    +0.000 A 
ATOM     20  C   UNL     1      -2.008  15.811  22.064  0.00  0.00    +0.000 A 
ATOM     21  C   UNL     1      -3.347  15.522  22.350  0.00  0.00    +0.000 A 
ATOM     22  C   UNL     1      -3.701  14.615  23.355  0.00  0.00    +0.000 A 
ATOM     23  C   UNL     1      -2.669  14.052  24.113  0.00  0.00    +0.000 A 
ATOM     24  C   UNL     1      -1.330  14.353  23.837  0.00  0.00    +0.000 A 
BRANCH  22  25
ATOM     25  C   UNL     1      -5.097  14.228  23.609  0.00  0.00    +0.000 A 
ATOM     26  C   UNL     1      -5.627  12.961  23.793  0.00  0.00    +0.000 A 
ATOM     27  C   UNL     1      -7.031  12.975  24.047  0.00  0.00    +0.000 A 
ATOM     28  C   UNL     1      -7.539  14.253  24.037  0.00  0.00    +0.000 A 
ATOM     29  S   UNL     1      -6.331  15.420  23.737  0.00  0.00    +0.000 S 
ENDBRANCH  22  25
ENDBRANCH   7  19
BRANCH   2  30
ATOM     30  C   UNL     1       2.752  15.081  19.749  0.00  0.00    +0.000 C 
ATOM     31  O   UNL     1       2.247  16.092  19.244  0.00  0.00    +0.000 OA
BRANCH  30  32
ATOM     32  C   UNL     1       3.614  14.132  18.908  0.00  0.00    +0.000 C 
ATOM     33  C   UNL     1       2.795  13.182  18.029  0.00  0.00    +0.000 C 
ATOM     34  C   UNL     1       4.533  14.941  17.986  0.00  0.00    +0.000 C 
ENDBRANCH  30  32
ENDBRANCH   2  30
TORSDOF 9
ENDMDL
MODEL 8
REMARK VINA RESULT:      -6.3      5.173     10.661
REMARK  Name = 
REMARK  12 active torsions:
REMARK  status: ('A' for Active; 'I' for Inactive)
REMARK    1  A    between atoms: C_1  and  O_2
REMARK    2  A    between atoms: O_2  and  C_3
REMARK    3  A    between atoms: C_3  and  C_4
REMARK    4  A    between atoms: C_4  and  O_5
REMARK    5  A    between atoms: O_5  and  C_6
REMARK    6  A    between atoms: C_11  and  C_12
REMARK    7  A    between atoms: C_13  and  C_14
REMARK    8  A    between atoms: C_14  and  C_16
REMARK    9  A    between atoms: C_16  and  C_17
REMARK   10  A    between atoms: C_16  and  C_18
REMARK   11  A    between atoms: N_23  and  C_24
REMARK   12  A    between atoms: C_27  and  C_28
REMARK                            x       y       z     vdW  Elec       q    Type
REMARK                         _______ _______ _______ _____ _____    ______ ____
ROOT
ATOM      1  C   UNL     1      -0.174  13.296  19.635  0.00  0.00    +0.000 C 
ATOM      2  C   UNL     1       0.200  14.796  19.557  0.00  0.00    +0.000 C 
ATOM      3  C   UNL     1       1.474  14.722  18.804  0.00  0.00    +0.000 C 
ATOM      4  O   UNL     1       1.995  15.635  18.181  0.00  0.00    +0.000 OA
ATOM      5  C   UNL     1       2.028  13.316  18.851  0.00  0.00    +0.000 C 
ATOM      6  O   UNL     1       3.135  13.036  18.425  0.00  0.00    +0.000 OA
ATOM      7  N   UNL     1       1.030  12.516  19.391  0.00  0.00    +0.000 N 
ENDROOT
BRANCH   1  13
ATOM      8  C   UNL     1      -2.506  12.564  20.582  0.00  0.00    +0.000 A 
ATOM      9  C   UNL     1      -3.267  12.303  21.739  0.00  0.00    +0.000 A 
ATOM     10  C   UNL     1      -2.715  12.334  23.017  0.00  0.00    +0.000 A 
ATOM     11  C   UNL     1      -1.375  12.628  23.175  0.00  0.00    +0.000 A 
ATOM     12  C   UNL     1      -0.593  12.876  22.048  0.00  0.00    +0.000 A 
ATOM     13  C   UNL     1      -1.132  12.860  20.733  0.00  0.00    +0.000 A 
BRANCH   8  14
ATOM     14  O   UNL     1      -3.078  12.593  19.318  0.00  0.00    +0.000 OA
BRANCH  14  15
ATOM     15  C   UNL     1      -2.854  11.391  18.550  0.00  0.00    +0.000 C 
BRANCH  15  16
ATOM     16  C   UNL     1      -3.574  11.322  17.206  0.00  0.00    +0.000 C 
BRANCH  16  18
ATOM     17  C   UNL     1      -3.179  10.567  15.010  0.00  0.00    +0.000 C 
ATOM     18  O   UNL     1      -3.001  10.297  16.395  0.00  0.00    +0.000 OA
ENDBRANCH  16  18
ENDBRANCH  15  16
ENDBRANCH  14  15
ENDBRANCH   8  14
ENDBRANCH   1  13
BRANCH   7  19
ATOM     19  C   UNL     1       1.094  11.096  19.468  0.00  0.00    +0.000 A 
ATOM     20  C   UNL     1       1.431  10.347  18.338  0.00  0.00    +0.000 A 
ATOM     21  C   UNL     1       1.723   8.982  18.442  0.00  0.00    +0.000 A 
ATOM     22  C   UNL     1       1.662   8.315  19.671  0.00  0.00    +0.000 A 
ATOM     23  C   UNL     1       1.236   9.044  20.785  0.00  0.00    +0.000 A 
ATOM     24  C   UNL     1       0.930  10.405  20.677  0.00  0.00    +0.000 A 
BRANCH  22  25
ATOM     25  C   UNL     1       2.055   6.904  19.819  0.00  0.00    +0.000 A 
ATOM     26  C   UNL     1       1.622   5.976  20.752  0.00  0.00    +0.000 A 
ATOM     27  C   UNL     1       2.204   4.687  20.567  0.00  0.00    +0.000 A 
ATOM     28  C   UNL     1       3.077   4.668  19.505  0.00  0.00    +0.000 A 
ATOM     29  S   UNL     1       3.181   6.186  18.734  0.00  0.00    +0.000 S 
ENDBRANCH  22  25
ENDBRANCH   7  19
BRANCH   2  30
ATOM     30  C   UNL     1       0.242  15.610  20.835  0.00  0.00    +0.000 C 
ATOM     31  O   UNL     1       1.302  15.637  21.475  0.00  0.00    +0.000 OA
BRANCH  30  32
ATOM     32  C   UNL     1      -0.993  16.370  21.332  0.00  0.00    +0.000 C 
ATOM     33  C   UNL     1      -0.672  17.764  21.879  0.00  0.00    +0.000 C 
ATOM     34  C   UNL     1      -1.996  16.541  20.185  0.00  0.00    +0.000 C 
ENDBRANCH  30  32
ENDBRANCH   2  30
TORSDOF 9
ENDMDL
MODEL 9
REMARK VINA RESULT:      -6.3      7.456     11.231
REMARK  Name = 
REMARK  12 active torsions:
REMARK  status: ('A' for Active; 'I' for Inactive)
REMARK    1  A    between atoms: C_1  and  O_2
REMARK    2  A    between atoms: O_2  and  C_3
REMARK    3  A    between atoms: C_3  and  C_4
REMARK    4  A    between atoms: C_4  and  O_5
REMARK    5  A    between atoms: O_5  and  C_6
REMARK    6  A    between atoms: C_11  and  C_12
REMARK    7  A    between atoms: C_13  and  C_14
REMARK    8  A    between atoms: C_14  and  C_16
REMARK    9  A    between atoms: C_16  and  C_17
REMARK   10  A    between atoms: C_16  and  C_18
REMARK   11  A    between atoms: N_23  and  C_24
REMARK   12  A    between atoms: C_27  and  C_28
REMARK                            x       y       z     vdW  Elec       q    Type
REMARK                         _______ _______ _______ _____ _____    ______ ____
ROOT
ATOM      1  C   UNL     1      -3.064  12.306  20.205  0.00  0.00    +0.000 C 
ATOM      2  C   UNL     1      -4.498  11.944  19.747  0.00  0.00    +0.000 C 
ATOM      3  C   UNL     1      -4.221  11.355  18.416  0.00  0.00    +0.000 C 
ATOM      4  O   UNL     1      -4.959  10.606  17.793  0.00  0.00    +0.000 OA
ATOM      5  C   UNL     1      -2.842  11.759  17.943  0.00  0.00    +0.000 C 
ATOM      6  O   UNL     1      -2.441  11.515  16.818  0.00  0.00    +0.000 OA
ATOM      7  N   UNL     1      -2.212  12.356  19.026  0.00  0.00    +0.000 N 
ENDROOT
BRANCH   1  13
ATOM      8  C   UNL     1      -2.632  13.150  22.647  0.00  0.00    +0.000 A 
ATOM      9  C   UNL     1      -2.654  14.255  23.523  0.00  0.00    +0.000 A 
ATOM     10  C   UNL     1      -2.947  15.545  23.088  0.00  0.00    +0.000 A 
ATOM     11  C   UNL     1      -3.226  15.769  21.754  0.00  0.00    +0.000 A 
ATOM     12  C   UNL     1      -3.196  14.698  20.861  0.00  0.00    +0.000 A 
ATOM     13  C   UNL     1      -2.910  13.371  21.279  0.00  0.00    +0.000 A 
BRANCH   8  14
ATOM     14  O   UNL     1      -2.401  11.860  23.101  0.00  0.00    +0.000 OA
BRANCH  14  15
ATOM     15  C   UNL     1      -1.014  11.462  23.045  0.00  0.00    +0.000 C 
BRANCH  15  16
ATOM     16  C   UNL     1      -0.752   9.961  23.140  0.00  0.00    +0.000 C 
BRANCH  16  18
ATOM     17  C   UNL     1       1.255   9.128  22.234  0.00  0.00    +0.000 C 
ATOM     18  O   UNL     1       0.635   9.718  23.369  0.00  0.00    +0.000 OA
ENDBRANCH  16  18
ENDBRANCH  15  16
ENDBRANCH  14  15
ENDBRANCH   8  14
ENDBRANCH   1  13
BRANCH   7  19
ATOM     19  C   UNL     1      -0.842  12.742  19.044  0.00  0.00    +0.000 A 
ATOM     20  C   UNL     1      -0.466  14.014  18.605  0.00  0.00    +0.000 A 
ATOM     21  C   UNL     1       0.829  14.495  18.825  0.00  0.00    +0.000 A 
ATOM     22  C   UNL     1       1.799  13.715  19.465  0.00  0.00    +0.000 A 
ATOM     23  C   UNL     1       1.449  12.409  19.821  0.00  0.00    +0.000 A 
ATOM     24  C   UNL     1       0.158  11.923  19.587  0.00  0.00    +0.000 A 
BRANCH  22  25
ATOM     25  C   UNL     1       3.137  14.235  19.789  0.00  0.00    +0.000 A 
ATOM     26  C   UNL     1       4.126  14.685  18.928  0.00  0.00    +0.000 A 
ATOM     27  C   UNL     1       5.290  15.146  19.609  0.00  0.00    +0.000 A 
ATOM     28  C   UNL     1       5.166  15.024  20.973  0.00  0.00    +0.000 A 
ATOM     29  S   UNL     1       3.655  14.372  21.424  0.00  0.00    +0.000 S 
ENDBRANCH  22  25
ENDBRANCH   7  19
BRANCH   2  30
ATOM     30  C   UNL     1      -5.570  13.015  19.778  0.00  0.00    +0.000 C 
ATOM     31  O   UNL     1      -5.751  13.689  18.755  0.00  0.00    +0.000 OA
BRANCH  30  32
ATOM     32  C   UNL     1      -6.402  13.268  21.041  0.00  0.00    +0.000 C 
ATOM     33  C   UNL     1      -7.052  14.654  21.076  0.00  0.00    +0.000 C 
ATOM     34  C   UNL     1      -7.524  12.228  21.143  0.00  0.00    +0.000 C 
ENDBRANCH  30  32
ENDBRANCH   2  30
TORSDOF 9
ENDMDL
