MODEL 1
REMARK VINA RESULT:      -8.5      0.000      0.000
REMARK  Name = 
REMARK  6 active torsions:
REMARK  status: ('A' for Active; 'I' for Inactive)
REMARK    1  A    between atoms: C_1  and  C_2
REMARK    2  A    between atoms: C_10  and  O_11
REMARK    3  A    between atoms: C_12  and  C_13
REMARK    4  A    between atoms: C_13  and  O_15
REMARK    5  A    between atoms: O_15  and  C_16
REMARK    6  A    between atoms: N_23  and  C_24
REMARK                            x       y       z     vdW  Elec       q    Type
REMARK                         _______ _______ _______ _____ _____    ______ ____
ROOT
ATOM      1  C   UNL     1       7.636   7.084  17.378  0.00  0.00    +0.000 C 
ATOM      2  C   UNL     1       6.877   6.150  16.483  0.00  0.00    +0.000 A 
ATOM      3  N   UNL     1       7.563   5.798  15.358  0.00  0.00    +0.000 NA
ATOM      4  C   UNL     1       6.979   5.012  14.442  0.00  0.00    +0.000 A 
ATOM      5  C   UNL     1       7.689   4.749  13.277  0.00  0.00    +0.000 A 
ATOM      6  C   UNL     1       7.157   3.969  12.249  0.00  0.00    +0.000 A 
ATOM      7  C   UNL     1       5.894   3.417  12.399  0.00  0.00    +0.000 A 
ATOM      8  C   UNL     1       5.174   3.647  13.573  0.00  0.00    +0.000 A 
ATOM      9  C   UNL     1       5.694   4.465  14.612  0.00  0.00    +0.000 A 
ATOM     10  C   UNL     1       5.018   4.805  15.814  0.00  0.00    +0.000 A 
ATOM     11  C   UNL     1       5.584   5.694  16.745  0.00  0.00    +0.000 A 
ENDROOT
BRANCH  10  12
ATOM     12  O   UNL     1       3.798   4.252  16.120  0.00  0.00    +0.000 OA
ATOM     13  H   UNL     1       3.267   4.862  16.651  0.00  0.00    +0.000 HD
ENDBRANCH  10  12
BRANCH  11  14
ATOM     14  C   UNL     1       4.751   6.212  17.876  0.00  0.00    +0.000 C 
ATOM     15  O   UNL     1       3.997   7.167  17.797  0.00  0.00    +0.000 OA
BRANCH  14  16
ATOM     16  O   UNL     1       4.990   5.493  18.991  0.00  0.00    +0.000 OA
BRANCH  16  17
ATOM     17  C   UNL     1       3.973   4.651  19.577  0.00  0.00    +0.000 C 
ATOM     18  C   UNL     1       2.520   5.131  19.369  0.00  0.00    +0.000 C 
ATOM     19  C   UNL     1       1.502   4.080  19.886  0.00  0.00    +0.000 C 
ATOM     20  C   UNL     1       1.074   3.072  18.803  0.00  0.00    +0.000 C 
ATOM     21  C   UNL     1       1.961   1.846  19.020  0.00  0.00    +0.000 C 
ATOM     22  C   UNL     1       3.007   2.344  20.016  0.00  0.00    +0.000 C 
ATOM     23  C   UNL     1       4.107   3.157  19.269  0.00  0.00    +0.000 C 
ATOM     24  N   UNL     1       2.228   3.264  20.879  0.00  0.00    +0.000 NA
ATOM     25  C   UNL     1       1.353   2.599  21.837  0.00  0.00    +0.000 C 
ENDBRANCH  16  17
ENDBRANCH  14  16
ENDBRANCH  11  14
TORSDOF 4
ENDMDL
MODEL 2
REMARK VINA RESULT:      -8.2      1.009      1.200
REMARK  Name = 
REMARK  6 active torsions:
REMARK  status: ('A' for Active; 'I' for Inactive)
REMARK    1  A    between atoms: C_1  and  C_2
REMARK    2  A    between atoms: C_10  and  O_11
REMARK    3  A    between atoms: C_12  and  C_13
REMARK    4  A    between atoms: C_13  and  O_15
REMARK    5  A    between atoms: O_15  and  C_16
REMARK    6  A    between atoms: N_23  and  C_24
REMARK                            x       y       z     vdW  Elec       q    Type
REMARK                         _______ _______ _______ _____ _____    ______ ____
ROOT
ATOM      1  C   UNL     1       7.728   6.990  17.461  0.00  0.00    +0.000 C 
ATOM      2  C   UNL     1       7.233   5.908  16.548  0.00  0.00    +0.000 A 
ATOM      3  N   UNL     1       7.658   6.047  15.260  0.00  0.00    +0.000 NA
ATOM      4  C   UNL     1       7.243   5.180  14.326  0.00  0.00    +0.000 A 
ATOM      5  C   UNL     1       7.639   5.412  13.015  0.00  0.00    +0.000 A 
ATOM      6  C   UNL     1       7.234   4.586  11.964  0.00  0.00    +0.000 A 
ATOM      7  C   UNL     1       6.434   3.486  12.234  0.00  0.00    +0.000 A 
ATOM      8  C   UNL     1       6.046   3.219  13.549  0.00  0.00    +0.000 A 
ATOM      9  C   UNL     1       6.428   4.071  14.621  0.00  0.00    +0.000 A 
ATOM     10  C   UNL     1       6.038   3.919  15.978  0.00  0.00    +0.000 A 
ATOM     11  C   UNL     1       6.397   4.866  16.953  0.00  0.00    +0.000 A 
ENDROOT
BRANCH  10  12
ATOM     12  O   UNL     1       5.319   2.822  16.388  0.00  0.00    +0.000 OA
ATOM     13  H   UNL     1       5.869   2.026  16.377  0.00  0.00    +0.000 HD
ENDBRANCH  10  12
BRANCH  11  14
ATOM     14  C   UNL     1       5.776   4.802  18.314  0.00  0.00    +0.000 C 
ATOM     15  O   UNL     1       6.385   4.552  19.340  0.00  0.00    +0.000 OA
BRANCH  14  16
ATOM     16  O   UNL     1       4.449   5.021  18.224  0.00  0.00    +0.000 OA
BRANCH  16  17
ATOM     17  C   UNL     1       3.509   4.312  19.061  0.00  0.00    +0.000 C 
ATOM     18  C   UNL     1       2.152   5.018  19.275  0.00  0.00    +0.000 C 
ATOM     19  C   UNL     1       1.160   4.105  20.043  0.00  0.00    +0.000 C 
ATOM     20  C   UNL     1       0.294   3.237  19.112  0.00  0.00    +0.000 C 
ATOM     21  C   UNL     1       0.996   1.881  19.057  0.00  0.00    +0.000 C 
ATOM     22  C   UNL     1       2.342   2.157  19.725  0.00  0.00    +0.000 C 
ATOM     23  C   UNL     1       3.310   2.835  18.710  0.00  0.00    +0.000 C 
ATOM     24  N   UNL     1       1.989   3.134  20.783  0.00  0.00    +0.000 NA
ATOM     25  C   UNL     1       1.316   2.556  21.940  0.00  0.00    +0.000 C 
ENDBRANCH  16  17
ENDBRANCH  14  16
ENDBRANCH  11  14
TORSDOF 4
ENDMDL
MODEL 3
REMARK VINA RESULT:      -8.0      0.584      1.508
REMARK  Name = 
REMARK  6 active torsions:
REMARK  status: ('A' for Active; 'I' for Inactive)
REMARK    1  A    between atoms: C_1  and  C_2
REMARK    2  A    between atoms: C_10  and  O_11
REMARK    3  A    between atoms: C_12  and  C_13
REMARK    4  A    between atoms: C_13  and  O_15
REMARK    5  A    between atoms: O_15  and  C_16
REMARK    6  A    between atoms: N_23  and  C_24
REMARK                            x       y       z     vdW  Elec       q    Type
REMARK                         _______ _______ _______ _____ _____    ______ ____
ROOT
ATOM      1  C   UNL     1       7.653   7.202  17.359  0.00  0.00    +0.000 C 
ATOM      2  C   UNL     1       6.917   6.248  16.466  0.00  0.00    +0.000 A 
ATOM      3  N   UNL     1       7.618   5.897  15.350  0.00  0.00    +0.000 NA
ATOM      4  C   UNL     1       7.055   5.093  14.437  0.00  0.00    +0.000 A 
ATOM      5  C   UNL     1       7.779   4.832  13.280  0.00  0.00    +0.000 A 
ATOM      6  C   UNL     1       7.269   4.033  12.255  0.00  0.00    +0.000 A 
ATOM      7  C   UNL     1       6.014   3.461  12.400  0.00  0.00    +0.000 A 
ATOM      8  C   UNL     1       5.280   3.690  13.565  0.00  0.00    +0.000 A 
ATOM      9  C   UNL     1       5.778   4.525  14.602  0.00  0.00    +0.000 A 
ATOM     10  C   UNL     1       5.087   4.865  15.795  0.00  0.00    +0.000 A 
ATOM     11  C   UNL     1       5.629   5.772  16.723  0.00  0.00    +0.000 A 
ENDROOT
BRANCH  10  12
ATOM     12  O   UNL     1       3.874   4.294  16.096  0.00  0.00    +0.000 OA
ATOM     13  H   UNL     1       3.246   4.962  16.407  0.00  0.00    +0.000 HD
ENDBRANCH  10  12
BRANCH  11  14
ATOM     14  C   UNL     1       4.779   6.286  17.842  0.00  0.00    +0.000 C 
ATOM     15  O   UNL     1       4.181   7.348  17.823  0.00  0.00    +0.000 OA
BRANCH  14  16
ATOM     16  O   UNL     1       4.808   5.422  18.876  0.00  0.00    +0.000 OA
BRANCH  16  17
ATOM     17  C   UNL     1       3.706   4.526  19.141  0.00  0.00    +0.000 C 
ATOM     18  C   UNL     1       4.106   3.082  19.517  0.00  0.00    +0.000 C 
ATOM     19  C   UNL     1       2.867   2.250  19.943  0.00  0.00    +0.000 C 
ATOM     20  C   UNL     1       2.588   2.315  21.456  0.00  0.00    +0.000 C 
ATOM     21  C   UNL     1       1.518   3.393  21.621  0.00  0.00    +0.000 C 
ATOM     22  C   UNL     1       1.469   4.052  20.244  0.00  0.00    +0.000 C 
ATOM     23  C   UNL     1       2.642   5.067  20.099  0.00  0.00    +0.000 C 
ATOM     24  N   UNL     1       1.701   2.911  19.326  0.00  0.00    +0.000 NA
ATOM     25  C   UNL     1       0.553   2.028  19.156  0.00  0.00    +0.000 C 
ENDBRANCH  16  17
ENDBRANCH  14  16
ENDBRANCH  11  14
TORSDOF 4
ENDMDL
MODEL 4
REMARK VINA RESULT:      -7.8      1.063      1.865
REMARK  Name = 
REMARK  6 active torsions:
REMARK  status: ('A' for Active; 'I' for Inactive)
REMARK    1  A    between atoms: C_1  and  C_2
REMARK    2  A    between atoms: C_10  and  O_11
REMARK    3  A    between atoms: C_12  and  C_13
REMARK    4  A    between atoms: C_13  and  O_15
REMARK    5  A    between atoms: O_15  and  C_16
REMARK    6  A    between atoms: N_23  and  C_24
REMARK                            x       y       z     vdW  Elec       q    Type
REMARK                         _______ _______ _______ _____ _____    ______ ____
ROOT
ATOM      1  C   UNL     1       7.789   7.190  17.465  0.00  0.00    +0.000 C 
ATOM      2  C   UNL     1       7.274   6.075  16.605  0.00  0.00    +0.000 A 
ATOM      3  N   UNL     1       7.681   6.159  15.306  0.00  0.00    +0.000 NA
ATOM      4  C   UNL     1       7.247   5.258  14.414  0.00  0.00    +0.000 A 
ATOM      5  C   UNL     1       7.625   5.434  13.088  0.00  0.00    +0.000 A 
ATOM      6  C   UNL     1       7.201   4.569  12.078  0.00  0.00    +0.000 A 
ATOM      7  C   UNL     1       6.398   3.486  12.404  0.00  0.00    +0.000 A 
ATOM      8  C   UNL     1       6.028   3.275  13.734  0.00  0.00    +0.000 A 
ATOM      9  C   UNL     1       6.431   4.167  14.765  0.00  0.00    +0.000 A 
ATOM     10  C   UNL     1       6.060   4.073  16.133  0.00  0.00    +0.000 A 
ATOM     11  C   UNL     1       6.439   5.055  17.064  0.00  0.00    +0.000 A 
ENDROOT
BRANCH  10  12
ATOM     12  O   UNL     1       5.340   2.998  16.597  0.00  0.00    +0.000 OA
ATOM     13  H   UNL     1       5.208   2.344  15.896  0.00  0.00    +0.000 HD
ENDBRANCH  10  12
BRANCH  11  14
ATOM     14  C   UNL     1       5.837   5.050  18.434  0.00  0.00    +0.000 C 
ATOM     15  O   UNL     1       6.422   4.697  19.444  0.00  0.00    +0.000 OA
BRANCH  14  16
ATOM     16  O   UNL     1       4.552   5.455  18.374  0.00  0.00    +0.000 OA
BRANCH  16  17
ATOM     17  C   UNL     1       3.465   4.566  18.711  0.00  0.00    +0.000 C 
ATOM     18  C   UNL     1       3.890   3.177  19.237  0.00  0.00    +0.000 C 
ATOM     19  C   UNL     1       2.663   2.362  19.727  0.00  0.00    +0.000 C 
ATOM     20  C   UNL     1       2.357   2.573  21.221  0.00  0.00    +0.000 C 
ATOM     21  C   UNL     1       1.261   3.638  21.262  0.00  0.00    +0.000 C 
ATOM     22  C   UNL     1       1.221   4.153  19.825  0.00  0.00    +0.000 C 
ATOM     23  C   UNL     1       2.374   5.176  19.595  0.00  0.00    +0.000 C 
ATOM     24  N   UNL     1       1.493   2.931  19.030  0.00  0.00    +0.000 NA
ATOM     25  C   UNL     1       0.367   2.009  18.934  0.00  0.00    +0.000 C 
ENDBRANCH  16  17
ENDBRANCH  14  16
ENDBRANCH  11  14
TORSDOF 4
ENDMDL
MODEL 5
REMARK VINA RESULT:      -7.3      3.639      7.680
REMARK  Name = 
REMARK  6 active torsions:
REMARK  status: ('A' for Active; 'I' for Inactive)
REMARK    1  A    between atoms: C_1  and  C_2
REMARK    2  A    between atoms: C_10  and  O_11
REMARK    3  A    between atoms: C_12  and  C_13
REMARK    4  A    between atoms: C_13  and  O_15
REMARK    5  A    between atoms: O_15  and  C_16
REMARK    6  A    between atoms: N_23  and  C_24
REMARK                            x       y       z     vdW  Elec       q    Type
REMARK                         _______ _______ _______ _____ _____    ______ ____
ROOT
ATOM      1  C   UNL     1       8.254   5.735  19.689  0.00  0.00    +0.000 C 
ATOM      2  C   UNL     1       6.894   5.660  19.064  0.00  0.00    +0.000 A 
ATOM      3  N   UNL     1       6.114   4.664  19.575  0.00  0.00    +0.000 NA
ATOM      4  C   UNL     1       4.893   4.448  19.067  0.00  0.00    +0.000 A 
ATOM      5  C   UNL     1       4.172   3.371  19.567  0.00  0.00    +0.000 A 
ATOM      6  C   UNL     1       2.904   3.042  19.083  0.00  0.00    +0.000 A 
ATOM      7  C   UNL     1       2.332   3.825  18.091  0.00  0.00    +0.000 A 
ATOM      8  C   UNL     1       3.029   4.927  17.592  0.00  0.00    +0.000 A 
ATOM      9  C   UNL     1       4.332   5.252  18.058  0.00  0.00    +0.000 A 
ATOM     10  C   UNL     1       5.143   6.314  17.575  0.00  0.00    +0.000 A 
ATOM     11  C   UNL     1       6.456   6.502  18.040  0.00  0.00    +0.000 A 
ENDROOT
BRANCH  10  12
ATOM     12  O   UNL     1       4.657   7.212  16.656  0.00  0.00    +0.000 OA
ATOM     13  H   UNL     1       4.117   6.765  15.989  0.00  0.00    +0.000 HD
ENDBRANCH  10  12
BRANCH  11  14
ATOM     14  C   UNL     1       7.357   7.474  17.344  0.00  0.00    +0.000 C 
ATOM     15  O   UNL     1       8.174   7.171  16.491  0.00  0.00    +0.000 OA
BRANCH  14  16
ATOM     16  O   UNL     1       7.156   8.716  17.830  0.00  0.00    +0.000 OA
BRANCH  16  17
ATOM     17  C   UNL     1       8.241   9.662  17.953  0.00  0.00    +0.000 C 
ATOM     18  C   UNL     1       7.898  11.114  17.555  0.00  0.00    +0.000 C 
ATOM     19  C   UNL     1       9.071  12.077  17.880  0.00  0.00    +0.000 C 
ATOM     20  C   UNL     1       8.975  12.690  19.289  0.00  0.00    +0.000 C 
ATOM     21  C   UNL     1       9.871  11.819  20.169  0.00  0.00    +0.000 C 
ATOM     22  C   UNL     1      10.186  10.623  19.272  0.00  0.00    +0.000 C 
ATOM     23  C   UNL     1       8.992   9.621  19.286  0.00  0.00    +0.000 C 
ATOM     24  N   UNL     1      10.284  11.239  17.926  0.00  0.00    +0.000 NA
ATOM     25  C   UNL     1      11.516  11.983  17.691  0.00  0.00    +0.000 C 
ENDBRANCH  16  17
ENDBRANCH  14  16
ENDBRANCH  11  14
TORSDOF 4
ENDMDL
MODEL 6
REMARK VINA RESULT:      -7.2      8.279     10.277
REMARK  Name = 
REMARK  6 active torsions:
REMARK  status: ('A' for Active; 'I' for Inactive)
REMARK    1  A    between atoms: C_1  and  C_2
REMARK    2  A    between atoms: C_10  and  O_11
REMARK    3  A    between atoms: C_12  and  C_13
REMARK    4  A    between atoms: C_13  and  O_15
REMARK    5  A    between atoms: O_15  and  C_16
REMARK    6  A    between atoms: N_23  and  C_24
REMARK                            x       y       z     vdW  Elec       q    Type
REMARK                         _______ _______ _______ _____ _____    ______ ____
ROOT
ATOM      1  C   UNL     1      -0.021   9.514  23.291  0.00  0.00    +0.000 C 
ATOM      2  C   UNL     1       0.391   9.511  21.849  0.00  0.00    +0.000 A 
ATOM      3  N   UNL     1       1.034   8.369  21.470  0.00  0.00    +0.000 NA
ATOM      4  C   UNL     1       1.508   8.256  20.222  0.00  0.00    +0.000 A 
ATOM      5  C   UNL     1       2.226   7.108  19.910  0.00  0.00    +0.000 A 
ATOM      6  C   UNL     1       2.788   6.908  18.648  0.00  0.00    +0.000 A 
ATOM      7  C   UNL     1       2.606   7.868  17.664  0.00  0.00    +0.000 A 
ATOM      8  C   UNL     1       1.865   9.017  17.948  0.00  0.00    +0.000 A 
ATOM      9  C   UNL     1       1.315   9.244  19.239  0.00  0.00    +0.000 A 
ATOM     10  C   UNL     1       0.599  10.402  19.642  0.00  0.00    +0.000 A 
ATOM     11  C   UNL     1       0.168  10.572  20.969  0.00  0.00    +0.000 A 
ENDROOT
BRANCH  10  12
ATOM     12  O   UNL     1       0.277  11.385  18.736  0.00  0.00    +0.000 OA
ATOM     13  H   UNL     1       0.750  12.205  18.936  0.00  0.00    +0.000 HD
ENDBRANCH  10  12
BRANCH  11  14
ATOM     14  C   UNL     1      -0.369  11.897  21.411  0.00  0.00    +0.000 C 
ATOM     15  O   UNL     1       0.298  12.772  21.935  0.00  0.00    +0.000 OA
BRANCH  14  16
ATOM     16  O   UNL     1      -1.696  11.956  21.178  0.00  0.00    +0.000 OA
BRANCH  16  17
ATOM     17  C   UNL     1      -2.569  12.766  21.996  0.00  0.00    +0.000 C 
ATOM     18  C   UNL     1      -3.850  13.270  21.295  0.00  0.00    +0.000 C 
ATOM     19  C   UNL     1      -4.795  13.983  22.298  0.00  0.00    +0.000 C 
ATOM     20  C   UNL     1      -5.812  13.029  22.952  0.00  0.00    +0.000 C 
ATOM     21  C   UNL     1      -5.198  12.648  24.299  0.00  0.00    +0.000 C 
ATOM     22  C   UNL     1      -3.770  13.180  24.195  0.00  0.00    +0.000 C 
ATOM     23  C   UNL     1      -2.891  12.187  23.376  0.00  0.00    +0.000 C 
ATOM     24  N   UNL     1      -3.941  14.430  23.415  0.00  0.00    +0.000 NA
ATOM     25  C   UNL     1      -4.505  15.542  24.171  0.00  0.00    +0.000 C 
ENDBRANCH  16  17
ENDBRANCH  14  16
ENDBRANCH  11  14
TORSDOF 4
ENDMDL
MODEL 7
REMARK VINA RESULT:      -7.1      8.153     10.221
REMARK  Name = 
REMARK  6 active torsions:
REMARK  status: ('A' for Active; 'I' for Inactive)
REMARK    1  A    between atoms: C_1  and  C_2
REMARK    2  A    between atoms: C_10  and  O_11
REMARK    3  A    between atoms: C_12  and  C_13
REMARK    4  A    between atoms: C_13  and  O_15
REMARK    5  A    between atoms: O_15  and  C_16
REMARK    6  A    between atoms: N_23  and  C_24
REMARK                            x       y       z     vdW  Elec       q    Type
REMARK                         _______ _______ _______ _____ _____    ______ ____
ROOT
ATOM      1  C   UNL     1      -0.153   9.520  23.169  0.00  0.00    +0.000 C 
ATOM      2  C   UNL     1       0.310   9.533  21.743  0.00  0.00    +0.000 A 
ATOM      3  N   UNL     1       0.967   8.396  21.373  0.00  0.00    +0.000 NA
ATOM      4  C   UNL     1       1.484   8.298  20.141  0.00  0.00    +0.000 A 
ATOM      5  C   UNL     1       2.213   7.154  19.841  0.00  0.00    +0.000 A 
ATOM      6  C   UNL     1       2.819   6.969  18.597  0.00  0.00    +0.000 A 
ATOM      7  C   UNL     1       2.671   7.941  17.619  0.00  0.00    +0.000 A 
ATOM      8  C   UNL     1       1.920   9.086  17.890  0.00  0.00    +0.000 A 
ATOM      9  C   UNL     1       1.325   9.298  19.164  0.00  0.00    +0.000 A 
ATOM     10  C   UNL     1       0.595  10.451  19.555  0.00  0.00    +0.000 A 
ATOM     11  C   UNL     1       0.117  10.605  20.868  0.00  0.00    +0.000 A 
ENDROOT
BRANCH  10  12
ATOM     12  O   UNL     1       0.305  11.444  18.651  0.00  0.00    +0.000 OA
ATOM     13  H   UNL     1       0.202  12.297  19.097  0.00  0.00    +0.000 HD
ENDBRANCH  10  12
BRANCH  11  14
ATOM     14  C   UNL     1      -0.436  11.924  21.307  0.00  0.00    +0.000 C 
ATOM     15  O   UNL     1       0.154  12.717  22.022  0.00  0.00    +0.000 OA
BRANCH  14  16
ATOM     16  O   UNL     1      -1.686  12.082  20.827  0.00  0.00    +0.000 OA
BRANCH  16  17
ATOM     17  C   UNL     1      -2.791  12.409  21.698  0.00  0.00    +0.000 C 
ATOM     18  C   UNL     1      -2.596  12.028  23.182  0.00  0.00    +0.000 C 
ATOM     19  C   UNL     1      -3.758  12.569  24.058  0.00  0.00    +0.000 C 
ATOM     20  C   UNL     1      -3.481  13.973  24.627  0.00  0.00    +0.000 C 
ATOM     21  C   UNL     1      -4.180  14.940  23.671  0.00  0.00    +0.000 C 
ATOM     22  C   UNL     1      -4.561  14.049  22.490  0.00  0.00    +0.000 C 
ATOM     23  C   UNL     1      -3.324  13.838  21.564  0.00  0.00    +0.000 C 
ATOM     24  N   UNL     1      -4.900  12.762  23.144  0.00  0.00    +0.000 NA
ATOM     25  C   UNL     1      -6.193  12.749  23.817  0.00  0.00    +0.000 C 
ENDBRANCH  16  17
ENDBRANCH  14  16
ENDBRANCH  11  14
TORSDOF 4
ENDMDL
MODEL 8
REMARK VINA RESULT:      -7.1      6.025      8.560
REMARK  Name = 
REMARK  6 active torsions:
REMARK  status: ('A' for Active; 'I' for Inactive)
REMARK    1  A    between atoms: C_1  and  C_2
REMARK    2  A    between atoms: C_10  and  O_11
REMARK    3  A    between atoms: C_12  and  C_13
REMARK    4  A    between atoms: C_13  and  O_15
REMARK    5  A    between atoms: O_15  and  C_16
REMARK    6  A    between atoms: N_23  and  C_24
REMARK                            x       y       z     vdW  Elec       q    Type
REMARK                         _______ _______ _______ _____ _____    ______ ____
ROOT
ATOM      1  C   UNL     1       0.355   9.928  21.168  0.00  0.00    +0.000 C 
ATOM      2  C   UNL     1       0.951  11.114  20.469  0.00  0.00    +0.000 A 
ATOM      3  N   UNL     1       0.982  12.240  21.239  0.00  0.00    +0.000 NA
ATOM      4  C   UNL     1       1.437  13.388  20.719  0.00  0.00    +0.000 A 
ATOM      5  C   UNL     1       1.372  14.523  21.517  0.00  0.00    +0.000 A 
ATOM      6  C   UNL     1       1.791  15.773  21.059  0.00  0.00    +0.000 A 
ATOM      7  C   UNL     1       2.312  15.888  19.778  0.00  0.00    +0.000 A 
ATOM      8  C   UNL     1       2.411  14.754  18.969  0.00  0.00    +0.000 A 
ATOM      9  C   UNL     1       1.959  13.483  19.416  0.00  0.00    +0.000 A 
ATOM     10  C   UNL     1       1.963  12.287  18.650  0.00  0.00    +0.000 A 
ATOM     11  C   UNL     1       1.413  11.094  19.152  0.00  0.00    +0.000 A 
ENDROOT
BRANCH  10  12
ATOM     12  O   UNL     1       2.533  12.250  17.400  0.00  0.00    +0.000 OA
ATOM     13  H   UNL     1       1.964  11.779  16.776  0.00  0.00    +0.000 HD
ENDBRANCH  10  12
BRANCH  11  14
ATOM     14  C   UNL     1       1.220   9.925  18.239  0.00  0.00    +0.000 C 
ATOM     15  O   UNL     1       0.146   9.581  17.775  0.00  0.00    +0.000 OA
BRANCH  14  16
ATOM     16  O   UNL     1       2.396   9.295  18.042  0.00  0.00    +0.000 OA
BRANCH  16  17
ATOM     17  C   UNL     1       2.492   7.853  18.065  0.00  0.00    +0.000 C 
ATOM     18  C   UNL     1       3.748   7.266  17.384  0.00  0.00    +0.000 C 
ATOM     19  C   UNL     1       3.841   5.733  17.607  0.00  0.00    +0.000 C 
ATOM     20  C   UNL     1       4.638   5.354  18.869  0.00  0.00    +0.000 C 
ATOM     21  C   UNL     1       3.587   5.123  19.955  0.00  0.00    +0.000 C 
ATOM     22  C   UNL     1       2.304   5.653  19.317  0.00  0.00    +0.000 C 
ATOM     23  C   UNL     1       2.255   7.206  19.432  0.00  0.00    +0.000 C 
ATOM     24  N   UNL     1       2.467   5.278  17.892  0.00  0.00    +0.000 NA
ATOM     25  C   UNL     1       2.251   3.864  17.610  0.00  0.00    +0.000 C 
ENDBRANCH  16  17
ENDBRANCH  14  16
ENDBRANCH  11  14
TORSDOF 4
ENDMDL
MODEL 9
REMARK VINA RESULT:      -7.0      2.961      7.078
REMARK  Name = 
REMARK  6 active torsions:
REMARK  status: ('A' for Active; 'I' for Inactive)
REMARK    1  A    between atoms: C_1  and  C_2
REMARK    2  A    between atoms: C_10  and  O_11
REMARK    3  A    between atoms: C_12  and  C_13
REMARK    4  A    between atoms: C_13  and  O_15
REMARK    5  A    between atoms: O_15  and  C_16
REMARK    6  A    between atoms: N_23  and  C_24
REMARK                            x       y       z     vdW  Elec       q    Type
REMARK                         _______ _______ _______ _____ _____    ______ ____
ROOT
ATOM      1  C   UNL     1       1.822   4.657  21.155  0.00  0.00    +0.000 C 
ATOM      2  C   UNL     1       1.787   5.950  20.395  0.00  0.00    +0.000 A 
ATOM      3  N   UNL     1       1.512   7.033  21.178  0.00  0.00    +0.000 NA
ATOM      4  C   UNL     1       1.395   8.245  20.617  0.00  0.00    +0.000 A 
ATOM      5  C   UNL     1       1.034   9.301  21.445  0.00  0.00    +0.000 A 
ATOM      6  C   UNL     1       0.855  10.595  20.954  0.00  0.00    +0.000 A 
ATOM      7  C   UNL     1       1.066  10.846  19.606  0.00  0.00    +0.000 A 
ATOM      8  C   UNL     1       1.455   9.804  18.762  0.00  0.00    +0.000 A 
ATOM      9  C   UNL     1       1.611   8.477  19.246  0.00  0.00    +0.000 A 
ATOM     10  C   UNL     1       1.945   7.342  18.460  0.00  0.00    +0.000 A 
ATOM     11  C   UNL     1       1.990   6.053  19.018  0.00  0.00    +0.000 A 
ENDROOT
BRANCH  10  12
ATOM     12  O   UNL     1       2.264   7.474  17.130  0.00  0.00    +0.000 OA
ATOM     13  H   UNL     1       2.858   8.225  16.991  0.00  0.00    +0.000 HD
ENDBRANCH  10  12
BRANCH  11  14
ATOM     14  C   UNL     1       2.110   4.861  18.121  0.00  0.00    +0.000 C 
ATOM     15  O   UNL     1       1.226   4.460  17.383  0.00  0.00    +0.000 OA
BRANCH  14  16
ATOM     16  O   UNL     1       3.318   4.283  18.283  0.00  0.00    +0.000 OA
BRANCH  16  17
ATOM     17  C   UNL     1       4.540   5.002  18.007  0.00  0.00    +0.000 C 
ATOM     18  C   UNL     1       5.741   4.629  18.904  0.00  0.00    +0.000 C 
ATOM     19  C   UNL     1       7.040   5.329  18.422  0.00  0.00    +0.000 C 
ATOM     20  C   UNL     1       7.838   4.488  17.408  0.00  0.00    +0.000 C 
ATOM     21  C   UNL     1       7.427   5.017  16.034  0.00  0.00    +0.000 C 
ATOM     22  C   UNL     1       6.232   5.916  16.349  0.00  0.00    +0.000 C 
ATOM     23  C   UNL     1       4.950   5.049  16.533  0.00  0.00    +0.000 C 
ATOM     24  N   UNL     1       6.604   6.512  17.655  0.00  0.00    +0.000 NA
ATOM     25  C   UNL     1       7.616   7.559  17.575  0.00  0.00    +0.000 C 
ENDBRANCH  16  17
ENDBRANCH  14  16
ENDBRANCH  11  14
TORSDOF 4
ENDMDL
