MODEL 1
REMARK VINA RESULT:      -8.8      0.000      0.000
REMARK  Name = 
REMARK  6 active torsions:
REMARK  status: ('A' for Active; 'I' for Inactive)
REMARK    1  A    between atoms: C_2  and  O_3
REMARK    2  A    between atoms: C_2  and  C_4
REMARK    3  A    between atoms: C_7  and  N_8
REMARK    4  A    between atoms: C_9  and  C_11
REMARK    5  A    between atoms: N_17  and  S_18
REMARK    6  A    between atoms: S_18  and  C_21
REMARK                            x       y       z     vdW  Elec       q    Type
REMARK                         _______ _______ _______ _____ _____    ______ ____
ROOT
ATOM      1  C   UNL     1       1.369   8.243  20.287  0.00  0.00    +0.000 A 
ATOM      2  C   UNL     1       1.263   8.407  21.676  0.00  0.00    +0.000 A 
ATOM      3  C   UNL     1       1.026   9.677  22.179  0.00  0.00    +0.000 A 
ATOM      4  C   UNL     1       0.795  10.695  21.274  0.00  0.00    +0.000 A 
ATOM      5  C   UNL     1       0.336  10.399  19.997  0.00  0.00    +0.000 A 
ATOM      6  C   UNL     1       0.810   9.214  19.437  0.00  0.00    +0.000 A 
ATOM      7  N   UNL     1      -0.101  11.534  19.231  0.00  0.00    +0.000 N 
ATOM      8  C   UNL     1       1.068  12.425  19.098  0.00  0.00    +0.000 C 
ATOM      9  C   UNL     1       1.548  12.827  20.502  0.00  0.00    +0.000 C 
ATOM     10  O   UNL     1       1.135  11.980  21.616  0.00  0.00    +0.000 OA
ENDROOT
BRANCH   1  12
ATOM     11  N   UNL     1       2.667   7.334  18.416  0.00  0.00    +0.000 N 
ATOM     12  C   UNL     1       2.220   7.136  19.728  0.00  0.00    +0.000 C 
ATOM     13  O   UNL     1       2.399   6.137  20.412  0.00  0.00    +0.000 OA
ATOM     14  H   UNL     1       2.338   8.160  17.925  0.00  0.00    +0.000 HD
BRANCH  11  18
ATOM     15  C   UNL     1       5.501   5.004  16.321  0.00  0.00    +0.000 A 
ATOM     16  C   UNL     1       4.386   4.388  16.883  0.00  0.00    +0.000 A 
ATOM     17  C   UNL     1       3.428   5.146  17.565  0.00  0.00    +0.000 A 
ATOM     18  C   UNL     1       3.557   6.529  17.680  0.00  0.00    +0.000 A 
ATOM     19  C   UNL     1       4.638   7.158  17.037  0.00  0.00    +0.000 A 
ATOM     20  C   UNL     1       5.613   6.398  16.371  0.00  0.00    +0.000 A 
BRANCH  15  22
ATOM     21  O   UNL     1       6.382   3.547  14.661  0.00  0.00    +0.000 OA
ATOM     22  C   UNL     1       6.575   4.230  15.643  0.00  0.00    +0.000 C 
BRANCH  22  23
ATOM     23  O   UNL     1       7.798   4.400  16.202  0.00  0.00    +0.000 OA
ATOM     24  H   UNL     1       7.845   5.063  16.912  0.00  0.00    +0.000 HD
ENDBRANCH  22  23
ENDBRANCH  15  22
ENDBRANCH  11  18
ENDBRANCH   1  12
BRANCH   7  25
ATOM     25  S   UNL     1      -1.562  12.334  19.780  0.00  0.00    +0.000 S 
ATOM     26  O   UNL     1      -1.855  11.816  21.116  0.00  0.00    +0.000 OA
ATOM     27  O   UNL     1      -1.377  13.760  19.604  0.00  0.00    +0.000 OA
BRANCH  25  28
ATOM     28  C   UNL     1      -3.009  11.930  18.773  0.00  0.00    +0.000 A 
ATOM     29  C   UNL     1      -4.306  12.228  19.195  0.00  0.00    +0.000 A 
ATOM     30  C   UNL     1      -5.411  11.909  18.377  0.00  0.00    +0.000 A 
ATOM     31  C   UNL     1      -5.207  11.337  17.127  0.00  0.00    +0.000 A 
ATOM     32  C   UNL     1      -3.911  11.114  16.672  0.00  0.00    +0.000 A 
ATOM     33 CL   UNL     1      -3.656  10.457  15.106  0.00  0.00    +0.000 Cl
ATOM     34  C   UNL     1      -2.811  11.422  17.479  0.00  0.00    +0.000 A 
ENDBRANCH  25  28
ENDBRANCH   7  25
TORSDOF 6
ENDMDL
MODEL 2
REMARK VINA RESULT:      -8.5      1.008      1.319
REMARK  Name = 
REMARK  6 active torsions:
REMARK  status: ('A' for Active; 'I' for Inactive)
REMARK    1  A    between atoms: C_2  and  O_3
REMARK    2  A    between atoms: C_2  and  C_4
REMARK    3  A    between atoms: C_7  and  N_8
REMARK    4  A    between atoms: C_9  and  C_11
REMARK    5  A    between atoms: N_17  and  S_18
REMARK    6  A    between atoms: S_18  and  C_21
REMARK                            x       y       z     vdW  Elec       q    Type
REMARK                         _______ _______ _______ _____ _____    ______ ____
ROOT
ATOM      1  C   UNL     1       1.351   8.258  20.257  0.00  0.00    +0.000 A 
ATOM      2  C   UNL     1       1.286   8.438  21.646  0.00  0.00    +0.000 A 
ATOM      3  C   UNL     1       1.071   9.715  22.141  0.00  0.00    +0.000 A 
ATOM      4  C   UNL     1       0.821  10.724  21.232  0.00  0.00    +0.000 A 
ATOM      5  C   UNL     1       0.324  10.417  19.972  0.00  0.00    +0.000 A 
ATOM      6  C   UNL     1       0.774   9.223  19.411  0.00  0.00    +0.000 A 
ATOM      7  N   UNL     1      -0.129  11.546  19.206  0.00  0.00    +0.000 N 
ATOM      8  C   UNL     1       1.042  12.428  19.029  0.00  0.00    +0.000 C 
ATOM      9  C   UNL     1       1.565  12.842  20.415  0.00  0.00    +0.000 C 
ATOM     10  O   UNL     1       1.178  12.010  21.550  0.00  0.00    +0.000 OA
ENDROOT
BRANCH   1  12
ATOM     11  N   UNL     1       2.671   7.363  18.394  0.00  0.00    +0.000 N 
ATOM     12  C   UNL     1       2.179   7.140  19.685  0.00  0.00    +0.000 C 
ATOM     13  O   UNL     1       2.303   6.113  20.341  0.00  0.00    +0.000 OA
ATOM     14  H   UNL     1       2.386   8.215  17.921  0.00  0.00    +0.000 HD
BRANCH  11  18
ATOM     15  C   UNL     1       5.485   5.022  16.283  0.00  0.00    +0.000 A 
ATOM     16  C   UNL     1       4.425   4.399  16.936  0.00  0.00    +0.000 A 
ATOM     17  C   UNL     1       3.474   5.159  17.626  0.00  0.00    +0.000 A 
ATOM     18  C   UNL     1       3.554   6.550  17.658  0.00  0.00    +0.000 A 
ATOM     19  C   UNL     1       4.575   7.180  16.924  0.00  0.00    +0.000 A 
ATOM     20  C   UNL     1       5.544   6.420  16.250  0.00  0.00    +0.000 A 
BRANCH  15  22
ATOM     21  O   UNL     1       6.391   3.701  14.526  0.00  0.00    +0.000 OA
ATOM     22  C   UNL     1       6.553   4.250  15.593  0.00  0.00    +0.000 C 
BRANCH  22  23
ATOM     23  O   UNL     1       7.738   4.261  16.251  0.00  0.00    +0.000 OA
ATOM     24  H   UNL     1       8.307   5.030  16.075  0.00  0.00    +0.000 HD
ENDBRANCH  22  23
ENDBRANCH  15  22
ENDBRANCH  11  18
ENDBRANCH   1  12
BRANCH   7  25
ATOM     25  S   UNL     1      -1.569  12.362  19.788  0.00  0.00    +0.000 S 
ATOM     26  O   UNL     1      -1.845  11.835  21.124  0.00  0.00    +0.000 OA
ATOM     27  O   UNL     1      -1.366  13.786  19.622  0.00  0.00    +0.000 OA
BRANCH  25  28
ATOM     28  C   UNL     1      -3.038  11.987  18.802  0.00  0.00    +0.000 A 
ATOM     29  C   UNL     1      -2.948  11.377  17.549  0.00  0.00    +0.000 A 
ATOM     30  C   UNL     1      -4.117  11.088  16.814  0.00  0.00    +0.000 A 
ATOM     31  C   UNL     1      -5.365  11.369  17.356  0.00  0.00    +0.000 A 
ATOM     32  C   UNL     1      -5.458  11.903  18.637  0.00  0.00    +0.000 A 
ATOM     33 CL   UNL     1      -7.002  12.203  19.329  0.00  0.00    +0.000 Cl
ATOM     34  C   UNL     1      -4.304  12.198  19.371  0.00  0.00    +0.000 A 
ENDBRANCH  25  28
ENDBRANCH   7  25
TORSDOF 6
ENDMDL
MODEL 3
REMARK VINA RESULT:      -8.4      0.940      1.604
REMARK  Name = 
REMARK  6 active torsions:
REMARK  status: ('A' for Active; 'I' for Inactive)
REMARK    1  A    between atoms: C_2  and  O_3
REMARK    2  A    between atoms: C_2  and  C_4
REMARK    3  A    between atoms: C_7  and  N_8
REMARK    4  A    between atoms: C_9  and  C_11
REMARK    5  A    between atoms: N_17  and  S_18
REMARK    6  A    between atoms: S_18  and  C_21
REMARK                            x       y       z     vdW  Elec       q    Type
REMARK                         _______ _______ _______ _____ _____    ______ ____
ROOT
ATOM      1  C   UNL     1       1.501   8.159  20.088  0.00  0.00    +0.000 A 
ATOM      2  C   UNL     1       1.164   8.184  21.449  0.00  0.00    +0.000 A 
ATOM      3  C   UNL     1       0.823   9.396  22.028  0.00  0.00    +0.000 A 
ATOM      4  C   UNL     1       0.725  10.499  21.202  0.00  0.00    +0.000 A 
ATOM      5  C   UNL     1       0.489  10.330  19.843  0.00  0.00    +0.000 A 
ATOM      6  C   UNL     1       1.071   9.208  19.256  0.00  0.00    +0.000 A 
ATOM      7  N   UNL     1       0.162  11.535  19.130  0.00  0.00    +0.000 N 
ATOM      8  C   UNL     1       1.319  12.438  19.281  0.00  0.00    +0.000 C 
ATOM      9  C   UNL     1       1.554  12.699  20.778  0.00  0.00    +0.000 C 
ATOM     10  O   UNL     1       0.978  11.743  21.720  0.00  0.00    +0.000 OA
ENDROOT
BRANCH   1  12
ATOM     11  N   UNL     1       2.995   7.378  18.308  0.00  0.00    +0.000 N 
ATOM     12  C   UNL     1       2.454   7.116  19.572  0.00  0.00    +0.000 C 
ATOM     13  O   UNL     1       2.630   6.106  20.241  0.00  0.00    +0.000 OA
ATOM     14  H   UNL     1       2.664   8.201  17.814  0.00  0.00    +0.000 HD
BRANCH  11  18
ATOM     15  C   UNL     1       5.819   5.125  16.117  0.00  0.00    +0.000 A 
ATOM     16  C   UNL     1       6.135   6.421  16.516  0.00  0.00    +0.000 A 
ATOM     17  C   UNL     1       5.219   7.176  17.256  0.00  0.00    +0.000 A 
ATOM     18  C   UNL     1       3.986   6.644  17.627  0.00  0.00    +0.000 A 
ATOM     19  C   UNL     1       3.705   5.305  17.299  0.00  0.00    +0.000 A 
ATOM     20  C   UNL     1       4.613   4.552  16.536  0.00  0.00    +0.000 A 
BRANCH  15  22
ATOM     21  O   UNL     1       7.909   4.571  15.128  0.00  0.00    +0.000 OA
ATOM     22  C   UNL     1       6.735   4.311  15.274  0.00  0.00    +0.000 C 
BRANCH  22  23
ATOM     23  O   UNL     1       6.141   3.223  14.726  0.00  0.00    +0.000 OA
ATOM     24  H   UNL     1       5.523   2.747  15.306  0.00  0.00    +0.000 HD
ENDBRANCH  22  23
ENDBRANCH  15  22
ENDBRANCH  11  18
ENDBRANCH   1  12
BRANCH   7  25
ATOM     25  S   UNL     1      -1.385  12.272  19.505  0.00  0.00    +0.000 S 
ATOM     26  O   UNL     1      -1.823  11.715  20.784  0.00  0.00    +0.000 OA
ATOM     27  O   UNL     1      -1.232  13.707  19.379  0.00  0.00    +0.000 OA
BRANCH  25  28
ATOM     28  C   UNL     1      -2.678  11.840  18.317  0.00  0.00    +0.000 A 
ATOM     29  C   UNL     1      -2.375  11.353  17.043  0.00  0.00    +0.000 A 
ATOM     30  C   UNL     1      -3.411  11.014  16.147  0.00  0.00    +0.000 A 
ATOM     31  C   UNL     1      -4.738  11.122  16.546  0.00  0.00    +0.000 A 
ATOM     32  C   UNL     1      -5.039  11.531  17.841  0.00  0.00    +0.000 A 
ATOM     33 CL   UNL     1      -6.677  11.613  18.353  0.00  0.00    +0.000 Cl
ATOM     34  C   UNL     1      -4.018  11.874  18.734  0.00  0.00    +0.000 A 
ENDBRANCH  25  28
ENDBRANCH   7  25
TORSDOF 6
ENDMDL
MODEL 4
REMARK VINA RESULT:      -8.3      1.260      1.423
REMARK  Name = 
REMARK  6 active torsions:
REMARK  status: ('A' for Active; 'I' for Inactive)
REMARK    1  A    between atoms: C_2  and  O_3
REMARK    2  A    between atoms: C_2  and  C_4
REMARK    3  A    between atoms: C_7  and  N_8
REMARK    4  A    between atoms: C_9  and  C_11
REMARK    5  A    between atoms: N_17  and  S_18
REMARK    6  A    between atoms: S_18  and  C_21
REMARK                            x       y       z     vdW  Elec       q    Type
REMARK                         _______ _______ _______ _____ _____    ______ ____
ROOT
ATOM      1  C   UNL     1       1.066   9.374  19.211  0.00  0.00    +0.000 A 
ATOM      2  C   UNL     1       0.985   8.897  20.527  0.00  0.00    +0.000 A 
ATOM      3  C   UNL     1       0.594   9.772  21.528  0.00  0.00    +0.000 A 
ATOM      4  C   UNL     1       0.196  11.041  21.155  0.00  0.00    +0.000 A 
ATOM      5  C   UNL     1      -0.261  11.274  19.864  0.00  0.00    +0.000 A 
ATOM      6  C   UNL     1       0.352  10.532  18.855  0.00  0.00    +0.000 A 
ATOM      7  N   UNL     1      -0.875  12.558  19.660  0.00  0.00    +0.000 N 
ATOM      8  C   UNL     1       0.157  13.568  19.967  0.00  0.00    +0.000 C 
ATOM      9  C   UNL     1       0.624  13.376  21.419  0.00  0.00    +0.000 C 
ATOM     10  O   UNL     1       0.368  12.079  22.036  0.00  0.00    +0.000 OA
ENDROOT
BRANCH   1  12
ATOM     11  N   UNL     1       2.595   7.537  18.665  0.00  0.00    +0.000 N 
ATOM     12  C   UNL     1       2.042   8.753  18.249  0.00  0.00    +0.000 C 
ATOM     13  O   UNL     1       2.329   9.370  17.231  0.00  0.00    +0.000 OA
ATOM     14  H   UNL     1       2.355   7.201  19.592  0.00  0.00    +0.000 HD
BRANCH  11  18
ATOM     15  C   UNL     1       5.307   5.059  16.577  0.00  0.00    +0.000 A 
ATOM     16  C   UNL     1       4.188   4.495  17.184  0.00  0.00    +0.000 A 
ATOM     17  C   UNL     1       3.270   5.302  17.865  0.00  0.00    +0.000 A 
ATOM     18  C   UNL     1       3.443   6.683  17.933  0.00  0.00    +0.000 A 
ATOM     19  C   UNL     1       4.526   7.259  17.245  0.00  0.00    +0.000 A 
ATOM     20  C   UNL     1       5.461   6.450  16.580  0.00  0.00    +0.000 A 
BRANCH  15  22
ATOM     21  O   UNL     1       7.455   4.636  15.649  0.00  0.00    +0.000 OA
ATOM     22  C   UNL     1       6.340   4.232  15.898  0.00  0.00    +0.000 C 
BRANCH  22  23
ATOM     23  O   UNL     1       5.930   2.968  15.630  0.00  0.00    +0.000 OA
ATOM     24  H   UNL     1       5.353   2.564  16.300  0.00  0.00    +0.000 HD
ENDBRANCH  22  23
ENDBRANCH  15  22
ENDBRANCH  11  18
ENDBRANCH   1  12
BRANCH   7  25
ATOM     25  S   UNL     1      -2.412  12.827  20.460  0.00  0.00    +0.000 S 
ATOM     26  O   UNL     1      -2.420  11.991  21.660  0.00  0.00    +0.000 OA
ATOM     27  O   UNL     1      -2.592  14.258  20.599  0.00  0.00    +0.000 OA
BRANCH  25  28
ATOM     28  C   UNL     1      -3.825  12.278  19.475  0.00  0.00    +0.000 A 
ATOM     29  C   UNL     1      -5.141  12.480  19.898  0.00  0.00    +0.000 A 
ATOM     30  C   UNL     1      -6.220  12.049  19.097  0.00  0.00    +0.000 A 
ATOM     31  C   UNL     1      -5.975  11.462  17.861  0.00  0.00    +0.000 A 
ATOM     32  C   UNL     1      -4.668  11.333  17.403  0.00  0.00    +0.000 A 
ATOM     33 CL   UNL     1      -4.367  10.656  15.854  0.00  0.00    +0.000 Cl
ATOM     34  C   UNL     1      -3.593  11.753  18.194  0.00  0.00    +0.000 A 
ENDBRANCH  25  28
ENDBRANCH   7  25
TORSDOF 6
ENDMDL
MODEL 5
REMARK VINA RESULT:      -8.1      1.715      2.168
REMARK  Name = 
REMARK  6 active torsions:
REMARK  status: ('A' for Active; 'I' for Inactive)
REMARK    1  A    between atoms: C_2  and  O_3
REMARK    2  A    between atoms: C_2  and  C_4
REMARK    3  A    between atoms: C_7  and  N_8
REMARK    4  A    between atoms: C_9  and  C_11
REMARK    5  A    between atoms: N_17  and  S_18
REMARK    6  A    between atoms: S_18  and  C_21
REMARK                            x       y       z     vdW  Elec       q    Type
REMARK                         _______ _______ _______ _____ _____    ______ ____
ROOT
ATOM      1  C   UNL     1       1.166   9.308  19.132  0.00  0.00    +0.000 A 
ATOM      2  C   UNL     1       1.135   8.867  20.462  0.00  0.00    +0.000 A 
ATOM      3  C   UNL     1       0.765   9.764  21.452  0.00  0.00    +0.000 A 
ATOM      4  C   UNL     1       0.339  11.018  21.058  0.00  0.00    +0.000 A 
ATOM      5  C   UNL     1      -0.163  11.210  19.777  0.00  0.00    +0.000 A 
ATOM      6  C   UNL     1       0.426  10.448  18.769  0.00  0.00    +0.000 A 
ATOM      7  N   UNL     1      -0.799  12.481  19.559  0.00  0.00    +0.000 N 
ATOM      8  C   UNL     1       0.229  13.511  19.803  0.00  0.00    +0.000 C 
ATOM      9  C   UNL     1       0.746  13.364  21.244  0.00  0.00    +0.000 C 
ATOM     10  O   UNL     1       0.526  12.081  21.904  0.00  0.00    +0.000 OA
ENDROOT
BRANCH   1  12
ATOM     11  N   UNL     1       2.750   7.511  18.611  0.00  0.00    +0.000 N 
ATOM     12  C   UNL     1       2.117   8.673  18.155  0.00  0.00    +0.000 C 
ATOM     13  O   UNL     1       2.320   9.237  17.088  0.00  0.00    +0.000 OA
ATOM     14  H   UNL     1       2.577   7.223  19.569  0.00  0.00    +0.000 HD
BRANCH  11  18
ATOM     15  C   UNL     1       5.121   4.866  16.322  0.00  0.00    +0.000 A 
ATOM     16  C   UNL     1       5.514   6.194  16.463  0.00  0.00    +0.000 A 
ATOM     17  C   UNL     1       4.751   7.080  17.232  0.00  0.00    +0.000 A 
ATOM     18  C   UNL     1       3.598   6.651  17.886  0.00  0.00    +0.000 A 
ATOM     19  C   UNL     1       3.251   5.290  17.813  0.00  0.00    +0.000 A 
ATOM     20  C   UNL     1       4.002   4.403  17.024  0.00  0.00    +0.000 A 
BRANCH  15  22
ATOM     21  O   UNL     1       6.564   4.251  14.535  0.00  0.00    +0.000 OA
ATOM     22  C   UNL     1       5.866   3.907  15.463  0.00  0.00    +0.000 C 
BRANCH  22  23
ATOM     23  O   UNL     1       5.728   2.616  15.851  0.00  0.00    +0.000 OA
ATOM     24  H   UNL     1       5.590   2.477  16.803  0.00  0.00    +0.000 HD
ENDBRANCH  22  23
ENDBRANCH  15  22
ENDBRANCH  11  18
ENDBRANCH   1  12
BRANCH   7  25
ATOM     25  S   UNL     1      -2.313  12.753  20.402  0.00  0.00    +0.000 S 
ATOM     26  O   UNL     1      -2.301  11.895  21.586  0.00  0.00    +0.000 OA
ATOM     27  O   UNL     1      -2.472  14.183  20.571  0.00  0.00    +0.000 OA
BRANCH  25  28
ATOM     28  C   UNL     1      -3.757  12.239  19.442  0.00  0.00    +0.000 A 
ATOM     29  C   UNL     1      -3.631  11.528  18.246  0.00  0.00    +0.000 A 
ATOM     30  C   UNL     1      -4.781  11.132  17.531  0.00  0.00    +0.000 A 
ATOM     31  C   UNL     1      -6.045  11.409  18.038  0.00  0.00    +0.000 A 
ATOM     32  C   UNL     1      -6.171  12.046  19.268  0.00  0.00    +0.000 A 
ATOM     33 CL   UNL     1      -7.731  12.342  19.922  0.00  0.00    +0.000 Cl
ATOM     34  C   UNL     1      -5.036  12.447  19.982  0.00  0.00    +0.000 A 
ENDBRANCH  25  28
ENDBRANCH   7  25
TORSDOF 6
ENDMDL
MODEL 6
REMARK VINA RESULT:      -8.1      2.448      2.826
REMARK  Name = 
REMARK  6 active torsions:
REMARK  status: ('A' for Active; 'I' for Inactive)
REMARK    1  A    between atoms: C_2  and  O_3
REMARK    2  A    between atoms: C_2  and  C_4
REMARK    3  A    between atoms: C_7  and  N_8
REMARK    4  A    between atoms: C_9  and  C_11
REMARK    5  A    between atoms: N_17  and  S_18
REMARK    6  A    between atoms: S_18  and  C_21
REMARK                            x       y       z     vdW  Elec       q    Type
REMARK                         _______ _______ _______ _____ _____    ______ ____
ROOT
ATOM      1  C   UNL     1       0.256   8.903  21.076  0.00  0.00    +0.000 A 
ATOM      2  C   UNL     1      -0.034   8.872  22.448  0.00  0.00    +0.000 A 
ATOM      3  C   UNL     1      -0.398  10.052  23.078  0.00  0.00    +0.000 A 
ATOM      4  C   UNL     1      -0.563  11.176  22.292  0.00  0.00    +0.000 A 
ATOM      5  C   UNL     1      -0.840  11.043  20.938  0.00  0.00    +0.000 A 
ATOM      6  C   UNL     1      -0.239   9.962  20.294  0.00  0.00    +0.000 A 
ATOM      7  N   UNL     1      -1.233  12.257  20.276  0.00  0.00    +0.000 N 
ATOM      8  C   UNL     1      -0.103  13.196  20.418  0.00  0.00    +0.000 C 
ATOM      9  C   UNL     1       0.173  13.417  21.915  0.00  0.00    +0.000 C 
ATOM     10  O   UNL     1      -0.336  12.412  22.843  0.00  0.00    +0.000 OA
ENDROOT
BRANCH   1  12
ATOM     11  N   UNL     1       1.177   6.631  21.055  0.00  0.00    +0.000 N 
ATOM     12  C   UNL     1       1.227   7.912  20.494  0.00  0.00    +0.000 C 
ATOM     13  O   UNL     1       2.018   8.302  19.645  0.00  0.00    +0.000 OA
ATOM     14  H   UNL     1       0.551   6.483  21.841  0.00  0.00    +0.000 HD
BRANCH  11  18
ATOM     15  C   UNL     1       3.464   3.261  19.930  0.00  0.00    +0.000 A 
ATOM     16  C   UNL     1       2.192   3.080  20.468  0.00  0.00    +0.000 A 
ATOM     17  C   UNL     1       1.414   4.185  20.830  0.00  0.00    +0.000 A 
ATOM     18  C   UNL     1       1.882   5.484  20.644  0.00  0.00    +0.000 A 
ATOM     19  C   UNL     1       3.129   5.665  20.019  0.00  0.00    +0.000 A 
ATOM     20  C   UNL     1       3.923   4.558  19.675  0.00  0.00    +0.000 A 
BRANCH  15  22
ATOM     21  O   UNL     1       5.176   1.666  20.354  0.00  0.00    +0.000 OA
ATOM     22  C   UNL     1       4.350   2.115  19.591  0.00  0.00    +0.000 C 
BRANCH  22  23
ATOM     23  O   UNL     1       4.109   1.592  18.364  0.00  0.00    +0.000 OA
ATOM     24  H   UNL     1       3.823   2.228  17.686  0.00  0.00    +0.000 HD
ENDBRANCH  22  23
ENDBRANCH  15  22
ENDBRANCH  11  18
ENDBRANCH   1  12
BRANCH   7  25
ATOM     25  S   UNL     1      -2.791  12.925  20.726  0.00  0.00    +0.000 S 
ATOM     26  O   UNL     1      -3.147  12.341  22.019  0.00  0.00    +0.000 OA
ATOM     27  O   UNL     1      -2.704  14.366  20.607  0.00  0.00    +0.000 OA
BRANCH  25  28
ATOM     28  C   UNL     1      -4.117  12.448  19.594  0.00  0.00    +0.000 A 
ATOM     29  C   UNL     1      -5.454  12.758  19.853  0.00  0.00    +0.000 A 
ATOM     30  C   UNL     1      -6.461  12.380  18.940  0.00  0.00    +0.000 A 
ATOM     31  C   UNL     1      -6.120  11.737  17.756  0.00  0.00    +0.000 A 
ATOM     32  C   UNL     1      -4.782  11.499  17.460  0.00  0.00    +0.000 A 
ATOM     33 CL   UNL     1      -4.354  10.753  15.973  0.00  0.00    +0.000 Cl
ATOM     34  C   UNL     1      -3.777  11.866  18.362  0.00  0.00    +0.000 A 
ENDBRANCH  25  28
ENDBRANCH   7  25
TORSDOF 6
ENDMDL
MODEL 7
REMARK VINA RESULT:      -8.1      2.172      2.658
REMARK  Name = 
REMARK  6 active torsions:
REMARK  status: ('A' for Active; 'I' for Inactive)
REMARK    1  A    between atoms: C_2  and  O_3
REMARK    2  A    between atoms: C_2  and  C_4
REMARK    3  A    between atoms: C_7  and  N_8
REMARK    4  A    between atoms: C_9  and  C_11
REMARK    5  A    between atoms: N_17  and  S_18
REMARK    6  A    between atoms: S_18  and  C_21
REMARK                            x       y       z     vdW  Elec       q    Type
REMARK                         _______ _______ _______ _____ _____    ______ ____
ROOT
ATOM      1  C   UNL     1       0.038   9.655  20.816  0.00  0.00    +0.000 A 
ATOM      2  C   UNL     1      -0.038   9.263  22.160  0.00  0.00    +0.000 A 
ATOM      3  C   UNL     1      -0.474  10.185  23.098  0.00  0.00    +0.000 A 
ATOM      4  C   UNL     1      -0.920  11.409  22.638  0.00  0.00    +0.000 A 
ATOM      5  C   UNL     1      -1.372  11.538  21.331  0.00  0.00    +0.000 A 
ATOM      6  C   UNL     1      -0.720  10.756  20.378  0.00  0.00    +0.000 A 
ATOM      7  N   UNL     1      -2.036  12.779  21.037  0.00  0.00    +0.000 N 
ATOM      8  C   UNL     1      -1.050  13.849  21.283  0.00  0.00    +0.000 C 
ATOM      9  C   UNL     1      -0.589  13.772  22.748  0.00  0.00    +0.000 C 
ATOM     10  O   UNL     1      -0.799  12.509  23.449  0.00  0.00    +0.000 OA
ENDROOT
BRANCH   1  12
ATOM     11  N   UNL     1       1.538   7.775  20.338  0.00  0.00    +0.000 N 
ATOM     12  C   UNL     1       1.047   9.012  19.904  0.00  0.00    +0.000 C 
ATOM     13  O   UNL     1       1.412   9.629  18.911  0.00  0.00    +0.000 OA
ATOM     14  H   UNL     1       1.235   7.439  21.247  0.00  0.00    +0.000 HD
BRANCH  11  18
ATOM     15  C   UNL     1       4.264   5.316  18.247  0.00  0.00    +0.000 A 
ATOM     16  C   UNL     1       3.722   4.872  19.450  0.00  0.00    +0.000 A 
ATOM     17  C   UNL     1       2.804   5.665  20.148  0.00  0.00    +0.000 A 
ATOM     18  C   UNL     1       2.400   6.901  19.648  0.00  0.00    +0.000 A 
ATOM     19  C   UNL     1       2.882   7.307  18.391  0.00  0.00    +0.000 A 
ATOM     20  C   UNL     1       3.820   6.524  17.698  0.00  0.00    +0.000 A 
BRANCH  15  22
ATOM     21  O   UNL     1       5.325   4.464  16.297  0.00  0.00    +0.000 OA
ATOM     22  C   UNL     1       5.290   4.535  17.506  0.00  0.00    +0.000 C 
BRANCH  22  23
ATOM     23  O   UNL     1       6.210   3.951  18.312  0.00  0.00    +0.000 OA
ATOM     24  H   UNL     1       5.897   3.712  19.201  0.00  0.00    +0.000 HD
ENDBRANCH  22  23
ENDBRANCH  15  22
ENDBRANCH  11  18
ENDBRANCH   1  12
BRANCH   7  25
ATOM     25  S   UNL     1      -3.591  13.037  21.806  0.00  0.00    +0.000 S 
ATOM     26  O   UNL     1      -3.666  12.111  22.936  0.00  0.00    +0.000 OA
ATOM     27  O   UNL     1      -3.732  14.457  22.050  0.00  0.00    +0.000 OA
BRANCH  25  28
ATOM     28  C   UNL     1      -4.986  12.612  20.736  0.00  0.00    +0.000 A 
ATOM     29  C   UNL     1      -6.302  12.627  21.202  0.00  0.00    +0.000 A 
ATOM     30  C   UNL     1      -7.367  12.303  20.334  0.00  0.00    +0.000 A 
ATOM     31  C   UNL     1      -7.111  12.010  19.000  0.00  0.00    +0.000 A 
ATOM     32  C   UNL     1      -5.808  12.073  18.516  0.00  0.00    +0.000 A 
ATOM     33 CL   UNL     1      -5.497  11.764  16.856  0.00  0.00    +0.000 Cl
ATOM     34  C   UNL     1      -4.746  12.389  19.371  0.00  0.00    +0.000 A 
ENDBRANCH  25  28
ENDBRANCH   7  25
TORSDOF 6
ENDMDL
MODEL 8
REMARK VINA RESULT:      -8.0      2.511      3.016
REMARK  Name = 
REMARK  6 active torsions:
REMARK  status: ('A' for Active; 'I' for Inactive)
REMARK    1  A    between atoms: C_2  and  O_3
REMARK    2  A    between atoms: C_2  and  C_4
REMARK    3  A    between atoms: C_7  and  N_8
REMARK    4  A    between atoms: C_9  and  C_11
REMARK    5  A    between atoms: N_17  and  S_18
REMARK    6  A    between atoms: S_18  and  C_21
REMARK                            x       y       z     vdW  Elec       q    Type
REMARK                         _______ _______ _______ _____ _____    ______ ____
ROOT
ATOM      1  C   UNL     1       0.791   8.841  20.683  0.00  0.00    +0.000 A 
ATOM      2  C   UNL     1       0.683   8.957  22.076  0.00  0.00    +0.000 A 
ATOM      3  C   UNL     1       0.398  10.200  22.619  0.00  0.00    +0.000 A 
ATOM      4  C   UNL     1       0.123  11.236  21.748  0.00  0.00    +0.000 A 
ATOM      5  C   UNL     1      -0.329  10.962  20.464  0.00  0.00    +0.000 A 
ATOM      6  C   UNL     1       0.190   9.815  19.865  0.00  0.00    +0.000 A 
ATOM      7  N   UNL     1      -0.814  12.102  19.734  0.00  0.00    +0.000 N 
ATOM      8  C   UNL     1       0.317  13.042  19.627  0.00  0.00    +0.000 C 
ATOM      9  C   UNL     1       0.787  13.419  21.042  0.00  0.00    +0.000 C 
ATOM     10  O   UNL     1       0.412  12.521  22.130  0.00  0.00    +0.000 OA
ENDROOT
BRANCH   1  12
ATOM     11  N   UNL     1       1.789   6.607  20.831  0.00  0.00    +0.000 N 
ATOM     12  C   UNL     1       1.683   7.787  20.086  0.00  0.00    +0.000 C 
ATOM     13  O   UNL     1       2.293   8.054  19.059  0.00  0.00    +0.000 OA
ATOM     14  H   UNL     1       1.320   6.572  21.730  0.00  0.00    +0.000 HD
BRANCH  11  18
ATOM     15  C   UNL     1       3.607   2.969  19.682  0.00  0.00    +0.000 A 
ATOM     16  C   UNL     1       4.167   4.177  19.272  0.00  0.00    +0.000 A 
ATOM     17  C   UNL     1       3.588   5.391  19.657  0.00  0.00    +0.000 A 
ATOM     18  C   UNL     1       2.458   5.421  20.471  0.00  0.00    +0.000 A 
ATOM     19  C   UNL     1       1.948   4.203  20.955  0.00  0.00    +0.000 A 
ATOM     20  C   UNL     1       2.512   2.981  20.553  0.00  0.00    +0.000 A 
BRANCH  15  22
ATOM     21  O   UNL     1       3.722   1.045  18.290  0.00  0.00    +0.000 OA
ATOM     22  C   UNL     1       4.151   1.656  19.244  0.00  0.00    +0.000 C 
BRANCH  22  23
ATOM     23  O   UNL     1       5.204   1.234  19.985  0.00  0.00    +0.000 OA
ATOM     24  H   UNL     1       5.204   0.288  20.212  0.00  0.00    +0.000 HD
ENDBRANCH  22  23
ENDBRANCH  15  22
ENDBRANCH  11  18
ENDBRANCH   1  12
BRANCH   7  25
ATOM     25  S   UNL     1      -2.304  12.825  20.312  0.00  0.00    +0.000 S 
ATOM     26  O   UNL     1      -2.568  12.256  21.634  0.00  0.00    +0.000 OA
ATOM     27  O   UNL     1      -2.179  14.261  20.177  0.00  0.00    +0.000 OA
BRANCH  25  28
ATOM     28  C   UNL     1      -3.738  12.390  19.300  0.00  0.00    +0.000 A 
ATOM     29  C   UNL     1      -3.626  11.555  18.186  0.00  0.00    +0.000 A 
ATOM     30  C   UNL     1      -4.770  11.227  17.427  0.00  0.00    +0.000 A 
ATOM     31  C   UNL     1      -6.019  11.697  17.813  0.00  0.00    +0.000 A 
ATOM     32  C   UNL     1      -6.142  12.463  18.968  0.00  0.00    +0.000 A 
ATOM     33 CL   UNL     1      -7.692  13.001  19.477  0.00  0.00    +0.000 Cl
ATOM     34  C   UNL     1      -5.013  12.797  19.724  0.00  0.00    +0.000 A 
ENDBRANCH  25  28
ENDBRANCH   7  25
TORSDOF 6
ENDMDL
MODEL 9
REMARK VINA RESULT:      -8.0      1.961      2.309
REMARK  Name = 
REMARK  6 active torsions:
REMARK  status: ('A' for Active; 'I' for Inactive)
REMARK    1  A    between atoms: C_2  and  O_3
REMARK    2  A    between atoms: C_2  and  C_4
REMARK    3  A    between atoms: C_7  and  N_8
REMARK    4  A    between atoms: C_9  and  C_11
REMARK    5  A    between atoms: N_17  and  S_18
REMARK    6  A    between atoms: S_18  and  C_21
REMARK                            x       y       z     vdW  Elec       q    Type
REMARK                         _______ _______ _______ _____ _____    ______ ____
ROOT
ATOM      1  C   UNL     1       0.649   9.513  19.426  0.00  0.00    +0.000 A 
ATOM      2  C   UNL     1       0.675   9.145  20.779  0.00  0.00    +0.000 A 
ATOM      3  C   UNL     1       0.353  10.098  21.733  0.00  0.00    +0.000 A 
ATOM      4  C   UNL     1      -0.086  11.330  21.289  0.00  0.00    +0.000 A 
ATOM      5  C   UNL     1      -0.644  11.455  20.023  0.00  0.00    +0.000 A 
ATOM      6  C   UNL     1      -0.103  10.634  19.034  0.00  0.00    +0.000 A 
ATOM      7  N   UNL     1      -1.285  12.715  19.763  0.00  0.00    +0.000 N 
ATOM      8  C   UNL     1      -0.244  13.751  19.904  0.00  0.00    +0.000 C 
ATOM      9  C   UNL     1       0.336  13.681  21.327  0.00  0.00    +0.000 C 
ATOM     10  O   UNL     1       0.142  12.438  22.066  0.00  0.00    +0.000 OA
ENDROOT
BRANCH   1  12
ATOM     11  N   UNL     1       2.342   7.795  18.984  0.00  0.00    +0.000 N 
ATOM     12  C   UNL     1       1.553   8.818  18.445  0.00  0.00    +0.000 C 
ATOM     13  O   UNL     1       1.588   9.230  17.293  0.00  0.00    +0.000 OA
ATOM     14  H   UNL     1       2.297   7.643  19.987  0.00  0.00    +0.000 HD
BRANCH  11  18
ATOM     15  C   UNL     1       5.062   5.251  16.988  0.00  0.00    +0.000 A 
ATOM     16  C   UNL     1       4.058   4.699  17.779  0.00  0.00    +0.000 A 
ATOM     17  C   UNL     1       3.138   5.525  18.434  0.00  0.00    +0.000 A 
ATOM     18  C   UNL     1       3.192   6.910  18.294  0.00  0.00    +0.000 A 
ATOM     19  C   UNL     1       4.152   7.460  17.425  0.00  0.00    +0.000 A 
ATOM     20  C   UNL     1       5.091   6.635  16.784  0.00  0.00    +0.000 A 
BRANCH  15  22
ATOM     21  O   UNL     1       7.165   4.850  15.955  0.00  0.00    +0.000 OA
ATOM     22  C   UNL     1       6.098   4.414  16.327  0.00  0.00    +0.000 C 
BRANCH  22  23
ATOM     23  O   UNL     1       5.752   3.108  16.224  0.00  0.00    +0.000 OA
ATOM     24  H   UNL     1       5.501   2.675  17.057  0.00  0.00    +0.000 HD
ENDBRANCH  22  23
ENDBRANCH  15  22
ENDBRANCH  11  18
ENDBRANCH   1  12
BRANCH   7  25
ATOM     25  S   UNL     1      -2.759  13.042  20.655  0.00  0.00    +0.000 S 
ATOM     26  O   UNL     1      -2.630  12.375  21.950  0.00  0.00    +0.000 OA
ATOM     27  O   UNL     1      -2.986  14.473  20.621  0.00  0.00    +0.000 OA
BRANCH  25  28
ATOM     28  C   UNL     1      -4.227  12.323  19.881  0.00  0.00    +0.000 A 
ATOM     29  C   UNL     1      -4.213  11.864  18.563  0.00  0.00    +0.000 A 
ATOM     30  C   UNL     1      -5.374  11.296  17.996  0.00  0.00    +0.000 A 
ATOM     31  C   UNL     1      -6.522  11.151  18.764  0.00  0.00    +0.000 A 
ATOM     32  C   UNL     1      -6.512  11.535  20.101  0.00  0.00    +0.000 A 
ATOM     33 CL   UNL     1      -7.915  11.308  21.067  0.00  0.00    +0.000 Cl
ATOM     34  C   UNL     1      -5.367  12.104  20.670  0.00  0.00    +0.000 A 
ENDBRANCH  25  28
ENDBRANCH   7  25
TORSDOF 6
ENDMDL
