MODEL 1
REMARK VINA RESULT:      -7.3      0.000      0.000
REMARK  Name = 
REMARK  13 active torsions:
REMARK  status: ('A' for Active; 'I' for Inactive)
REMARK    1  A    between atoms: C_1  and  O_2
REMARK    2  A    between atoms: O_2  and  C_3
REMARK    3  A    between atoms: C_3  and  C_4
REMARK    4  A    between atoms: C_4  and  N_5
REMARK    5  A    between atoms: N_5  and  C_6
REMARK    6  A    between atoms: C_8  and  O_9
REMARK    7  A    between atoms: O_9  and  C_10
REMARK    8  A    between atoms: C_11  and  O_12
REMARK    9  A    between atoms: O_12  and  C_13
REMARK   10  A    between atoms: C_14  and  O_15
REMARK   11  A    between atoms: O_15  and  C_16
REMARK   12  A    between atoms: C_23  and  O_24
REMARK   13  A    between atoms: O_24  and  C_25
REMARK                            x       y       z     vdW  Elec       q    Type
REMARK                         _______ _______ _______ _____ _____    ______ ____
ROOT
ATOM      1  N   UNL     1       2.626   6.472  19.503  0.00  0.00    +0.000 N 
ATOM      2  C   UNL     1       2.003   7.694  19.282  0.00  0.00    +0.000 A 
ATOM      3  N   UNL     1       1.803   8.209  18.053  0.00  0.00    +0.000 NA
ATOM      4  N   UNL     1       1.214   9.387  18.257  0.00  0.00    +0.000 N 
ATOM      5  C   UNL     1       0.917   9.629  19.553  0.00  0.00    +0.000 A 
ATOM      6  N   UNL     1       0.256  10.706  20.004  0.00  0.00    +0.000 NA
ATOM      7  C   UNL     1       0.073  10.688  21.341  0.00  0.00    +0.000 A 
ATOM      8  C   UNL     1       0.509   9.692  22.196  0.00  0.00    +0.000 A 
ATOM      9  C   UNL     1       1.226   8.612  21.678  0.00  0.00    +0.000 A 
ATOM     10  C   UNL     1       1.423   8.559  20.277  0.00  0.00    +0.000 A 
ATOM     11  H   UNL     1       0.999   9.976  17.464  0.00  0.00    +0.000 HD
ENDROOT
BRANCH   1  12
ATOM     12  C   UNL     1       3.553   5.876  18.584  0.00  0.00    +0.000 A 
ATOM     13  C   UNL     1       4.612   6.560  17.983  0.00  0.00    +0.000 A 
ATOM     14  C   UNL     1       5.582   5.921  17.188  0.00  0.00    +0.000 A 
ATOM     15  C   UNL     1       5.492   4.543  16.928  0.00  0.00    +0.000 A 
ATOM     16  C   UNL     1       4.396   3.831  17.433  0.00  0.00    +0.000 A 
ATOM     17  C   UNL     1       3.444   4.516  18.212  0.00  0.00    +0.000 A 
BRANCH  14  18
ATOM     18  O   UNL     1       6.649   6.600  16.640  0.00  0.00    +0.000 OA
ATOM     19  C   UNL     1       7.446   7.355  17.550  0.00  0.00    +0.000 C 
ENDBRANCH  14  18
BRANCH  15  20
ATOM     20  O   UNL     1       6.465   4.017  16.110  0.00  0.00    +0.000 OA
ATOM     21  C   UNL     1       6.144   3.922  14.727  0.00  0.00    +0.000 C 
ENDBRANCH  15  20
BRANCH  16  22
ATOM     22  O   UNL     1       4.281   2.501  17.117  0.00  0.00    +0.000 OA
ATOM     23  C   UNL     1       3.518   1.668  17.981  0.00  0.00    +0.000 C 
ENDBRANCH  16  22
ENDBRANCH   1  12
BRANCH   7  24
ATOM     24  O   UNL     1      -0.627  11.727  21.926  0.00  0.00    +0.000 OA
ATOM     25  C   UNL     1      -1.374  11.303  23.067  0.00  0.00    +0.000 C 
ENDBRANCH   7  24
BRANCH   1  26
ATOM     26  C   UNL     1       2.109   5.642  20.622  0.00  0.00    +0.000 C 
BRANCH  26  27
ATOM     27  C   UNL     1       1.056   4.605  20.183  0.00  0.00    +0.000 C 
BRANCH  27  29
ATOM     28  C   UNL     1       2.393   3.125  21.439  0.00  0.00    +0.000 C 
ATOM     29  O   UNL     1       1.063   3.506  21.104  0.00  0.00    +0.000 OA
ENDBRANCH  27  29
ENDBRANCH  26  27
ENDBRANCH   1  26
TORSDOF 8
ENDMDL
MODEL 2
REMARK VINA RESULT:      -7.2      0.269      2.432
REMARK  Name = 
REMARK  13 active torsions:
REMARK  status: ('A' for Active; 'I' for Inactive)
REMARK    1  A    between atoms: C_1  and  O_2
REMARK    2  A    between atoms: O_2  and  C_3
REMARK    3  A    between atoms: C_3  and  C_4
REMARK    4  A    between atoms: C_4  and  N_5
REMARK    5  A    between atoms: N_5  and  C_6
REMARK    6  A    between atoms: C_8  and  O_9
REMARK    7  A    between atoms: O_9  and  C_10
REMARK    8  A    between atoms: C_11  and  O_12
REMARK    9  A    between atoms: O_12  and  C_13
REMARK   10  A    between atoms: C_14  and  O_15
REMARK   11  A    between atoms: O_15  and  C_16
REMARK   12  A    between atoms: C_23  and  O_24
REMARK   13  A    between atoms: O_24  and  C_25
REMARK                            x       y       z     vdW  Elec       q    Type
REMARK                         _______ _______ _______ _____ _____    ______ ____
ROOT
ATOM      1  N   UNL     1       2.691   6.320  19.610  0.00  0.00    +0.000 N 
ATOM      2  C   UNL     1       2.108   7.552  19.344  0.00  0.00    +0.000 A 
ATOM      3  N   UNL     1       1.963   8.047  18.099  0.00  0.00    +0.000 NA
ATOM      4  N   UNL     1       1.397   9.243  18.260  0.00  0.00    +0.000 N 
ATOM      5  C   UNL     1       1.062   9.518  19.540  0.00  0.00    +0.000 A 
ATOM      6  N   UNL     1       0.413  10.621  19.947  0.00  0.00    +0.000 NA
ATOM      7  C   UNL     1       0.184  10.634  21.276  0.00  0.00    +0.000 A 
ATOM      8  C   UNL     1       0.565   9.645  22.166  0.00  0.00    +0.000 A 
ATOM      9  C   UNL     1       1.272   8.538  21.693  0.00  0.00    +0.000 A 
ATOM     10  C   UNL     1       1.515   8.451  20.301  0.00  0.00    +0.000 A 
ATOM     11  H   UNL     1       1.224   9.821  17.448  0.00  0.00    +0.000 HD
ENDROOT
BRANCH   1  12
ATOM     12  C   UNL     1       3.634   5.682  18.735  0.00  0.00    +0.000 A 
ATOM     13  C   UNL     1       3.602   4.326  18.402  0.00  0.00    +0.000 A 
ATOM     14  C   UNL     1       4.459   3.756  17.442  0.00  0.00    +0.000 A 
ATOM     15  C   UNL     1       5.431   4.541  16.800  0.00  0.00    +0.000 A 
ATOM     16  C   UNL     1       5.563   5.886  17.170  0.00  0.00    +0.000 A 
ATOM     17  C   UNL     1       4.691   6.410  18.144  0.00  0.00    +0.000 A 
BRANCH  14  18
ATOM     18  O   UNL     1       4.384   2.425  17.088  0.00  0.00    +0.000 OA
ATOM     19  C   UNL     1       3.669   1.577  17.983  0.00  0.00    +0.000 C 
ENDBRANCH  14  18
BRANCH  15  20
ATOM     20  O   UNL     1       6.245   3.885  15.906  0.00  0.00    +0.000 OA
ATOM     21  C   UNL     1       5.959   4.088  14.527  0.00  0.00    +0.000 C 
ENDBRANCH  15  20
BRANCH  16  22
ATOM     22  O   UNL     1       6.560   6.627  16.587  0.00  0.00    +0.000 OA
ATOM     23  C   UNL     1       7.479   7.303  17.437  0.00  0.00    +0.000 C 
ENDBRANCH  16  22
ENDBRANCH   1  12
BRANCH   7  24
ATOM     24  O   UNL     1      -0.509  11.701  21.817  0.00  0.00    +0.000 OA
ATOM     25  C   UNL     1      -1.261  11.330  22.973  0.00  0.00    +0.000 C 
ENDBRANCH   7  24
BRANCH   1  26
ATOM     26  C   UNL     1       2.115   5.525  20.726  0.00  0.00    +0.000 C 
BRANCH  26  27
ATOM     27  C   UNL     1       0.850   4.738  20.333  0.00  0.00    +0.000 C 
BRANCH  27  29
ATOM     28  C   UNL     1       1.722   2.996  21.658  0.00  0.00    +0.000 C 
ATOM     29  O   UNL     1       1.123   3.333  20.411  0.00  0.00    +0.000 OA
ENDBRANCH  27  29
ENDBRANCH  26  27
ENDBRANCH   1  26
TORSDOF 8
ENDMDL
MODEL 3
REMARK VINA RESULT:      -6.9      1.454      2.848
REMARK  Name = 
REMARK  13 active torsions:
REMARK  status: ('A' for Active; 'I' for Inactive)
REMARK    1  A    between atoms: C_1  and  O_2
REMARK    2  A    between atoms: O_2  and  C_3
REMARK    3  A    between atoms: C_3  and  C_4
REMARK    4  A    between atoms: C_4  and  N_5
REMARK    5  A    between atoms: N_5  and  C_6
REMARK    6  A    between atoms: C_8  and  O_9
REMARK    7  A    between atoms: O_9  and  C_10
REMARK    8  A    between atoms: C_11  and  O_12
REMARK    9  A    between atoms: O_12  and  C_13
REMARK   10  A    between atoms: C_14  and  O_15
REMARK   11  A    between atoms: O_15  and  C_16
REMARK   12  A    between atoms: C_23  and  O_24
REMARK   13  A    between atoms: O_24  and  C_25
REMARK                            x       y       z     vdW  Elec       q    Type
REMARK                         _______ _______ _______ _____ _____    ______ ____
ROOT
ATOM      1  N   UNL     1       3.341   6.099  18.328  0.00  0.00    +0.000 N 
ATOM      2  C   UNL     1       2.761   7.360  18.383  0.00  0.00    +0.000 A 
ATOM      3  N   UNL     1       2.876   8.269  17.395  0.00  0.00    +0.000 NA
ATOM      4  N   UNL     1       2.216   9.343  17.828  0.00  0.00    +0.000 N 
ATOM      5  C   UNL     1       1.579   9.152  19.005  0.00  0.00    +0.000 A 
ATOM      6  N   UNL     1       0.788  10.054  19.608  0.00  0.00    +0.000 NA
ATOM      7  C   UNL     1       0.258   9.597  20.762  0.00  0.00    +0.000 A 
ATOM      8  C   UNL     1       0.485   8.347  21.309  0.00  0.00    +0.000 A 
ATOM      9  C   UNL     1       1.348   7.463  20.659  0.00  0.00    +0.000 A 
ATOM     10  C   UNL     1       1.910   7.872  19.426  0.00  0.00    +0.000 A 
ATOM     11  H   UNL     1       2.200  10.176  17.256  0.00  0.00    +0.000 HD
ENDROOT
BRANCH   1  12
ATOM     12  C   UNL     1       4.498   5.791  17.535  0.00  0.00    +0.000 A 
ATOM     13  C   UNL     1       4.583   4.704  16.661  0.00  0.00    +0.000 A 
ATOM     14  C   UNL     1       5.678   4.501  15.800  0.00  0.00    +0.000 A 
ATOM     15  C   UNL     1       6.772   5.382  15.822  0.00  0.00    +0.000 A 
ATOM     16  C   UNL     1       6.773   6.434  16.748  0.00  0.00    +0.000 A 
ATOM     17  C   UNL     1       5.661   6.590  17.597  0.00  0.00    +0.000 A 
BRANCH  14  18
ATOM     18  O   UNL     1       5.728   3.451  14.909  0.00  0.00    +0.000 OA
ATOM     19  C   UNL     1       5.143   3.684  13.630  0.00  0.00    +0.000 C 
ENDBRANCH  14  18
BRANCH  15  20
ATOM     20  O   UNL     1       7.810   5.078  14.971  0.00  0.00    +0.000 OA
ATOM     21  C   UNL     1       7.763   5.676  13.680  0.00  0.00    +0.000 C 
ENDBRANCH  15  20
BRANCH  16  22
ATOM     22  O   UNL     1       7.876   7.247  16.807  0.00  0.00    +0.000 OA
ATOM     23  C   UNL     1       7.859   8.338  17.721  0.00  0.00    +0.000 C 
ENDBRANCH  16  22
ENDBRANCH   1  12
BRANCH   7  24
ATOM     24  O   UNL     1      -0.604  10.420  21.463  0.00  0.00    +0.000 OA
ATOM     25  C   UNL     1      -0.532  10.205  22.873  0.00  0.00    +0.000 C 
ENDBRANCH   7  24
BRANCH   1  26
ATOM     26  C   UNL     1       2.574   4.973  18.923  0.00  0.00    +0.000 C 
BRANCH  26  27
ATOM     27  C   UNL     1       3.285   4.306  20.116  0.00  0.00    +0.000 C 
BRANCH  27  29
ATOM     28  C   UNL     1       1.388   3.233  21.011  0.00  0.00    +0.000 C 
ATOM     29  O   UNL     1       2.380   4.231  21.225  0.00  0.00    +0.000 OA
ENDBRANCH  27  29
ENDBRANCH  26  27
ENDBRANCH   1  26
TORSDOF 8
ENDMDL
MODEL 4
REMARK VINA RESULT:      -6.8      1.405      1.856
REMARK  Name = 
REMARK  13 active torsions:
REMARK  status: ('A' for Active; 'I' for Inactive)
REMARK    1  A    between atoms: C_1  and  O_2
REMARK    2  A    between atoms: O_2  and  C_3
REMARK    3  A    between atoms: C_3  and  C_4
REMARK    4  A    between atoms: C_4  and  N_5
REMARK    5  A    between atoms: N_5  and  C_6
REMARK    6  A    between atoms: C_8  and  O_9
REMARK    7  A    between atoms: O_9  and  C_10
REMARK    8  A    between atoms: C_11  and  O_12
REMARK    9  A    between atoms: O_12  and  C_13
REMARK   10  A    between atoms: C_14  and  O_15
REMARK   11  A    between atoms: O_15  and  C_16
REMARK   12  A    between atoms: C_23  and  O_24
REMARK   13  A    between atoms: O_24  and  C_25
REMARK                            x       y       z     vdW  Elec       q    Type
REMARK                         _______ _______ _______ _____ _____    ______ ____
ROOT
ATOM      1  N   UNL     1       3.233   6.376  18.347  0.00  0.00    +0.000 N 
ATOM      2  C   UNL     1       2.596   7.608  18.417  0.00  0.00    +0.000 A 
ATOM      3  N   UNL     1       2.604   8.502  17.409  0.00  0.00    +0.000 NA
ATOM      4  N   UNL     1       1.921   9.552  17.865  0.00  0.00    +0.000 N 
ATOM      5  C   UNL     1       1.369   9.354  19.083  0.00  0.00    +0.000 A 
ATOM      6  N   UNL     1       0.573  10.227  19.720  0.00  0.00    +0.000 NA
ATOM      7  C   UNL     1       0.140   9.769  20.912  0.00  0.00    +0.000 A 
ATOM      8  C   UNL     1       0.462   8.542  21.465  0.00  0.00    +0.000 A 
ATOM      9  C   UNL     1       1.325   7.689  20.776  0.00  0.00    +0.000 A 
ATOM     10  C   UNL     1       1.788   8.100  19.503  0.00  0.00    +0.000 A 
ATOM     11  H   UNL     1       1.827  10.372  17.281  0.00  0.00    +0.000 HD
ENDROOT
BRANCH   1  12
ATOM     12  C   UNL     1       4.352   6.108  17.487  0.00  0.00    +0.000 A 
ATOM     13  C   UNL     1       5.521   6.872  17.461  0.00  0.00    +0.000 A 
ATOM     14  C   UNL     1       6.651   6.512  16.703  0.00  0.00    +0.000 A 
ATOM     15  C   UNL     1       6.627   5.366  15.891  0.00  0.00    +0.000 A 
ATOM     16  C   UNL     1       5.444   4.619  15.813  0.00  0.00    +0.000 A 
ATOM     17  C   UNL     1       4.335   5.025  16.580  0.00  0.00    +0.000 A 
BRANCH  14  18
ATOM     18  O   UNL     1       7.816   7.249  16.723  0.00  0.00    +0.000 OA
ATOM     19  C   UNL     1       7.868   8.315  17.669  0.00  0.00    +0.000 C 
ENDBRANCH  14  18
BRANCH  15  20
ATOM     20  O   UNL     1       7.766   5.118  15.160  0.00  0.00    +0.000 OA
ATOM     21  C   UNL     1       7.722   5.477  13.783  0.00  0.00    +0.000 C 
ENDBRANCH  15  20
BRANCH  16  22
ATOM     22  O   UNL     1       5.409   3.541  14.965  0.00  0.00    +0.000 OA
ATOM     23  C   UNL     1       5.047   3.766  13.608  0.00  0.00    +0.000 C 
ENDBRANCH  16  22
ENDBRANCH   1  12
BRANCH   7  24
ATOM     24  O   UNL     1      -0.717  10.563  21.653  0.00  0.00    +0.000 OA
ATOM     25  C   UNL     1      -0.734  10.199  23.034  0.00  0.00    +0.000 C 
ENDBRANCH   7  24
BRANCH   1  26
ATOM     26  C   UNL     1       2.561   5.227  19.007  0.00  0.00    +0.000 C 
BRANCH  26  27
ATOM     27  C   UNL     1       3.355   4.650  20.196  0.00  0.00    +0.000 C 
BRANCH  27  29
ATOM     28  C   UNL     1       4.121   2.566  19.405  0.00  0.00    +0.000 C 
ATOM     29  O   UNL     1       3.176   3.228  20.239  0.00  0.00    +0.000 OA
ENDBRANCH  27  29
ENDBRANCH  26  27
ENDBRANCH   1  26
TORSDOF 8
ENDMDL
MODEL 5
REMARK VINA RESULT:      -6.8      2.258      4.195
REMARK  Name = 
REMARK  13 active torsions:
REMARK  status: ('A' for Active; 'I' for Inactive)
REMARK    1  A    between atoms: C_1  and  O_2
REMARK    2  A    between atoms: O_2  and  C_3
REMARK    3  A    between atoms: C_3  and  C_4
REMARK    4  A    between atoms: C_4  and  N_5
REMARK    5  A    between atoms: N_5  and  C_6
REMARK    6  A    between atoms: C_8  and  O_9
REMARK    7  A    between atoms: O_9  and  C_10
REMARK    8  A    between atoms: C_11  and  O_12
REMARK    9  A    between atoms: O_12  and  C_13
REMARK   10  A    between atoms: C_14  and  O_15
REMARK   11  A    between atoms: O_15  and  C_16
REMARK   12  A    between atoms: C_23  and  O_24
REMARK   13  A    between atoms: O_24  and  C_25
REMARK                            x       y       z     vdW  Elec       q    Type
REMARK                         _______ _______ _______ _____ _____    ______ ____
ROOT
ATOM      1  N   UNL     1       1.413   8.961  20.379  0.00  0.00    +0.000 N 
ATOM      2  C   UNL     1       0.784   9.871  19.539  0.00  0.00    +0.000 A 
ATOM      3  N   UNL     1       0.111   9.509  18.429  0.00  0.00    +0.000 NA
ATOM      4  N   UNL     1      -0.314  10.651  17.889  0.00  0.00    +0.000 N 
ATOM      5  C   UNL     1      -0.049  11.741  18.642  0.00  0.00    +0.000 A 
ATOM      6  N   UNL     1      -0.442  12.992  18.353  0.00  0.00    +0.000 NA
ATOM      7  C   UNL     1      -0.063  13.889  19.286  0.00  0.00    +0.000 A 
ATOM      8  C   UNL     1       0.661  13.601  20.429  0.00  0.00    +0.000 A 
ATOM      9  C   UNL     1       1.077  12.289  20.661  0.00  0.00    +0.000 A 
ATOM     10  C   UNL     1       0.682  11.295  19.733  0.00  0.00    +0.000 A 
ATOM     11  H   UNL     1      -0.820  10.624  17.014  0.00  0.00    +0.000 HD
ENDROOT
BRANCH   1  12
ATOM     12  C   UNL     1       1.869   7.668  19.950  0.00  0.00    +0.000 A 
ATOM     13  C   UNL     1       2.532   7.431  18.744  0.00  0.00    +0.000 A 
ATOM     14  C   UNL     1       3.082   6.180  18.408  0.00  0.00    +0.000 A 
ATOM     15  C   UNL     1       2.941   5.085  19.277  0.00  0.00    +0.000 A 
ATOM     16  C   UNL     1       2.204   5.251  20.457  0.00  0.00    +0.000 A 
ATOM     17  C   UNL     1       1.662   6.518  20.745  0.00  0.00    +0.000 A 
BRANCH  14  18
ATOM     18  O   UNL     1       3.775   5.972  17.235  0.00  0.00    +0.000 OA
ATOM     19  C   UNL     1       4.892   6.828  17.006  0.00  0.00    +0.000 C 
ENDBRANCH  14  18
BRANCH  15  20
ATOM     20  O   UNL     1       3.480   3.896  18.844  0.00  0.00    +0.000 OA
ATOM     21  C   UNL     1       4.778   3.576  19.333  0.00  0.00    +0.000 C 
ENDBRANCH  15  20
BRANCH  16  22
ATOM     22  O   UNL     1       2.015   4.159  21.265  0.00  0.00    +0.000 OA
ATOM     23  C   UNL     1       1.072   3.175  20.856  0.00  0.00    +0.000 C 
ENDBRANCH  16  22
ENDBRANCH   1  12
BRANCH   7  24
ATOM     24  O   UNL     1      -0.437  15.211  19.122  0.00  0.00    +0.000 OA
ATOM     25  C   UNL     1       0.686  16.093  19.096  0.00  0.00    +0.000 C 
ENDBRANCH   7  24
BRANCH   1  26
ATOM     26  C   UNL     1       1.379   9.248  21.837  0.00  0.00    +0.000 C 
BRANCH  26  27
ATOM     27  C   UNL     1      -0.040   9.217  22.437  0.00  0.00    +0.000 C 
BRANCH  27  29
ATOM     28  C   UNL     1      -1.317  11.093  23.074  0.00  0.00    +0.000 C 
ATOM     29  O   UNL     1      -0.180  10.291  23.376  0.00  0.00    +0.000 OA
ENDBRANCH  27  29
ENDBRANCH  26  27
ENDBRANCH   1  26
TORSDOF 8
ENDMDL
MODEL 6
REMARK VINA RESULT:      -6.8      1.690      3.025
REMARK  Name = 
REMARK  13 active torsions:
REMARK  status: ('A' for Active; 'I' for Inactive)
REMARK    1  A    between atoms: C_1  and  O_2
REMARK    2  A    between atoms: O_2  and  C_3
REMARK    3  A    between atoms: C_3  and  C_4
REMARK    4  A    between atoms: C_4  and  N_5
REMARK    5  A    between atoms: N_5  and  C_6
REMARK    6  A    between atoms: C_8  and  O_9
REMARK    7  A    between atoms: O_9  and  C_10
REMARK    8  A    between atoms: C_11  and  O_12
REMARK    9  A    between atoms: O_12  and  C_13
REMARK   10  A    between atoms: C_14  and  O_15
REMARK   11  A    between atoms: O_15  and  C_16
REMARK   12  A    between atoms: C_23  and  O_24
REMARK   13  A    between atoms: O_24  and  C_25
REMARK                            x       y       z     vdW  Elec       q    Type
REMARK                         _______ _______ _______ _____ _____    ______ ____
ROOT
ATOM      1  N   UNL     1       3.409   6.017  18.239  0.00  0.00    +0.000 N 
ATOM      2  C   UNL     1       2.816   7.271  18.312  0.00  0.00    +0.000 A 
ATOM      3  N   UNL     1       2.914   8.192  17.333  0.00  0.00    +0.000 NA
ATOM      4  N   UNL     1       2.247   9.254  17.783  0.00  0.00    +0.000 N 
ATOM      5  C   UNL     1       1.623   9.045  18.964  0.00  0.00    +0.000 A 
ATOM      6  N   UNL     1       0.828   9.932  19.583  0.00  0.00    +0.000 NA
ATOM      7  C   UNL     1       0.313   9.458  20.737  0.00  0.00    +0.000 A 
ATOM      8  C   UNL     1       0.558   8.205  21.269  0.00  0.00    +0.000 A 
ATOM      9  C   UNL     1       1.423   7.337  20.602  0.00  0.00    +0.000 A 
ATOM     10  C   UNL     1       1.970   7.764  19.368  0.00  0.00    +0.000 A 
ATOM     11  H   UNL     1       2.216  10.093  17.220  0.00  0.00    +0.000 HD
ENDROOT
BRANCH   1  12
ATOM     12  C   UNL     1       4.562   5.729  17.432  0.00  0.00    +0.000 A 
ATOM     13  C   UNL     1       4.646   4.658  16.540  0.00  0.00    +0.000 A 
ATOM     14  C   UNL     1       5.736   4.476  15.667  0.00  0.00    +0.000 A 
ATOM     15  C   UNL     1       6.826   5.362  15.696  0.00  0.00    +0.000 A 
ATOM     16  C   UNL     1       6.828   6.398  16.639  0.00  0.00    +0.000 A 
ATOM     17  C   UNL     1       5.721   6.534  17.499  0.00  0.00    +0.000 A 
BRANCH  14  18
ATOM     18  O   UNL     1       5.785   3.441  14.758  0.00  0.00    +0.000 OA
ATOM     19  C   UNL     1       5.168   3.685  13.496  0.00  0.00    +0.000 C 
ENDBRANCH  14  18
BRANCH  15  20
ATOM     20  O   UNL     1       7.859   5.079  14.833  0.00  0.00    +0.000 OA
ATOM     21  C   UNL     1       7.792   5.688  13.548  0.00  0.00    +0.000 C 
ENDBRANCH  15  20
BRANCH  16  22
ATOM     22  O   UNL     1       7.927   7.217  16.705  0.00  0.00    +0.000 OA
ATOM     23  C   UNL     1       7.930   8.262  17.670  0.00  0.00    +0.000 C 
ENDBRANCH  16  22
ENDBRANCH   1  12
BRANCH   7  24
ATOM     24  O   UNL     1      -0.551  10.265  21.454  0.00  0.00    +0.000 OA
ATOM     25  C   UNL     1      -0.751  11.534  20.832  0.00  0.00    +0.000 C 
ENDBRANCH   7  24
BRANCH   1  26
ATOM     26  C   UNL     1       2.659   4.878  18.829  0.00  0.00    +0.000 C 
BRANCH  26  27
ATOM     27  C   UNL     1       1.503   4.377  17.941  0.00  0.00    +0.000 C 
BRANCH  27  29
ATOM     28  C   UNL     1       0.895   2.322  18.921  0.00  0.00    +0.000 C 
ATOM     29  O   UNL     1       1.571   2.949  17.837  0.00  0.00    +0.000 OA
ENDBRANCH  27  29
ENDBRANCH  26  27
ENDBRANCH   1  26
TORSDOF 8
ENDMDL
MODEL 7
REMARK VINA RESULT:      -6.7      2.599      8.063
REMARK  Name = 
REMARK  13 active torsions:
REMARK  status: ('A' for Active; 'I' for Inactive)
REMARK    1  A    between atoms: C_1  and  O_2
REMARK    2  A    between atoms: O_2  and  C_3
REMARK    3  A    between atoms: C_3  and  C_4
REMARK    4  A    between atoms: C_4  and  N_5
REMARK    5  A    between atoms: N_5  and  C_6
REMARK    6  A    between atoms: C_8  and  O_9
REMARK    7  A    between atoms: O_9  and  C_10
REMARK    8  A    between atoms: C_11  and  O_12
REMARK    9  A    between atoms: O_12  and  C_13
REMARK   10  A    between atoms: C_14  and  O_15
REMARK   11  A    between atoms: O_15  and  C_16
REMARK   12  A    between atoms: C_23  and  O_24
REMARK   13  A    between atoms: O_24  and  C_25
REMARK                            x       y       z     vdW  Elec       q    Type
REMARK                         _______ _______ _______ _____ _____    ______ ____
ROOT
ATOM      1  N   UNL     1       1.270   8.853  20.270  0.00  0.00    +0.000 N 
ATOM      2  C   UNL     1       1.903   7.874  19.515  0.00  0.00    +0.000 A 
ATOM      3  N   UNL     1       2.595   8.142  18.390  0.00  0.00    +0.000 NA
ATOM      4  N   UNL     1       3.018   6.958  17.949  0.00  0.00    +0.000 N 
ATOM      5  C   UNL     1       2.733   5.932  18.782  0.00  0.00    +0.000 A 
ATOM      6  N   UNL     1       3.119   4.660  18.599  0.00  0.00    +0.000 NA
ATOM      7  C   UNL     1       2.719   3.842  19.595  0.00  0.00    +0.000 A 
ATOM      8  C   UNL     1       1.981   4.226  20.700  0.00  0.00    +0.000 A 
ATOM      9  C   UNL     1       1.573   5.556  20.820  0.00  0.00    +0.000 A 
ATOM     10  C   UNL     1       1.990   6.470  19.823  0.00  0.00    +0.000 A 
ATOM     11  H   UNL     1       3.538   6.911  17.083  0.00  0.00    +0.000 HD
ENDROOT
BRANCH   1  12
ATOM     12  C   UNL     1       0.832  10.111  19.733  0.00  0.00    +0.000 A 
ATOM     13  C   UNL     1      -0.425  10.324  19.162  0.00  0.00    +0.000 A 
ATOM     14  C   UNL     1      -0.876  11.596  18.762  0.00  0.00    +0.000 A 
ATOM     15  C   UNL     1      -0.039  12.718  18.886  0.00  0.00    +0.000 A 
ATOM     16  C   UNL     1       1.264  12.538  19.368  0.00  0.00    +0.000 A 
ATOM     17  C   UNL     1       1.675  11.245  19.744  0.00  0.00    +0.000 A 
BRANCH  14  18
ATOM     18  O   UNL     1      -2.136  11.801  18.243  0.00  0.00    +0.000 OA
ATOM     19  C   UNL     1      -2.406  11.182  16.987  0.00  0.00    +0.000 C 
ENDBRANCH  14  18
BRANCH  15  20
ATOM     20  O   UNL     1      -0.555  13.911  18.433  0.00  0.00    +0.000 OA
ATOM     21  C   UNL     1      -0.843  14.890  19.425  0.00  0.00    +0.000 C 
ENDBRANCH  15  20
BRANCH  16  22
ATOM     22  O   UNL     1       2.095  13.628  19.421  0.00  0.00    +0.000 OA
ATOM     23  C   UNL     1       3.067  13.783  18.393  0.00  0.00    +0.000 C 
ENDBRANCH  16  22
ENDBRANCH   1  12
BRANCH   7  24
ATOM     24  O   UNL     1       3.083   2.509  19.541  0.00  0.00    +0.000 OA
ATOM     25  C   UNL     1       3.299   2.059  18.203  0.00  0.00    +0.000 C 
ENDBRANCH   7  24
BRANCH   1  26
ATOM     26  C   UNL     1       1.280   8.682  21.747  0.00  0.00    +0.000 C 
BRANCH  26  27
ATOM     27  C   UNL     1      -0.052   9.067  22.420  0.00  0.00    +0.000 C 
BRANCH  27  29
ATOM     28  C   UNL     1      -1.035  11.159  22.879  0.00  0.00    +0.000 C 
ATOM     29  O   UNL     1       0.101  10.327  23.087  0.00  0.00    +0.000 OA
ENDBRANCH  27  29
ENDBRANCH  26  27
ENDBRANCH   1  26
TORSDOF 8
ENDMDL
MODEL 8
REMARK VINA RESULT:      -6.7      2.162      4.554
REMARK  Name = 
REMARK  13 active torsions:
REMARK  status: ('A' for Active; 'I' for Inactive)
REMARK    1  A    between atoms: C_1  and  O_2
REMARK    2  A    between atoms: O_2  and  C_3
REMARK    3  A    between atoms: C_3  and  C_4
REMARK    4  A    between atoms: C_4  and  N_5
REMARK    5  A    between atoms: N_5  and  C_6
REMARK    6  A    between atoms: C_8  and  O_9
REMARK    7  A    between atoms: O_9  and  C_10
REMARK    8  A    between atoms: C_11  and  O_12
REMARK    9  A    between atoms: O_12  and  C_13
REMARK   10  A    between atoms: C_14  and  O_15
REMARK   11  A    between atoms: O_15  and  C_16
REMARK   12  A    between atoms: C_23  and  O_24
REMARK   13  A    between atoms: O_24  and  C_25
REMARK                            x       y       z     vdW  Elec       q    Type
REMARK                         _______ _______ _______ _____ _____    ______ ____
ROOT
ATOM      1  N   UNL     1       1.444   8.893  20.394  0.00  0.00    +0.000 N 
ATOM      2  C   UNL     1       0.831   9.827  19.569  0.00  0.00    +0.000 A 
ATOM      3  N   UNL     1       0.161   9.495  18.448  0.00  0.00    +0.000 NA
ATOM      4  N   UNL     1      -0.248  10.652  17.928  0.00  0.00    +0.000 N 
ATOM      5  C   UNL     1       0.026  11.725  18.704  0.00  0.00    +0.000 A 
ATOM      6  N   UNL     1      -0.351  12.985  18.437  0.00  0.00    +0.000 NA
ATOM      7  C   UNL     1       0.033  13.860  19.390  0.00  0.00    +0.000 A 
ATOM      8  C   UNL     1       0.747  13.540  20.532  0.00  0.00    +0.000 A 
ATOM      9  C   UNL     1       1.145  12.219  20.740  0.00  0.00    +0.000 A 
ATOM     10  C   UNL     1       0.745  11.248  19.790  0.00  0.00    +0.000 A 
ATOM     11  H   UNL     1      -0.749  10.649  17.050  0.00  0.00    +0.000 HD
ENDROOT
BRANCH   1  12
ATOM     12  C   UNL     1       1.887   7.604  19.943  0.00  0.00    +0.000 A 
ATOM     13  C   UNL     1       1.518   6.395  20.536  0.00  0.00    +0.000 A 
ATOM     14  C   UNL     1       1.861   5.142  19.995  0.00  0.00    +0.000 A 
ATOM     15  C   UNL     1       2.646   5.061  18.832  0.00  0.00    +0.000 A 
ATOM     16  C   UNL     1       3.118   6.246  18.253  0.00  0.00    +0.000 A 
ATOM     17  C   UNL     1       2.758   7.476  18.838  0.00  0.00    +0.000 A 
BRANCH  14  18
ATOM     18  O   UNL     1       1.450   3.956  20.565  0.00  0.00    +0.000 OA
ATOM     19  C   UNL     1       2.153   3.545  21.735  0.00  0.00    +0.000 C 
ENDBRANCH  14  18
BRANCH  15  20
ATOM     20  O   UNL     1       2.961   3.793  18.402  0.00  0.00    +0.000 OA
ATOM     21  C   UNL     1       4.250   3.307  18.759  0.00  0.00    +0.000 C 
ENDBRANCH  15  20
BRANCH  16  22
ATOM     22  O   UNL     1       3.939   6.154  17.159  0.00  0.00    +0.000 OA
ATOM     23  C   UNL     1       5.283   6.604  17.287  0.00  0.00    +0.000 C 
ENDBRANCH  16  22
ENDBRANCH   1  12
BRANCH   7  24
ATOM     24  O   UNL     1      -0.324  15.188  19.250  0.00  0.00    +0.000 OA
ATOM     25  C   UNL     1       0.574  16.066  19.930  0.00  0.00    +0.000 C 
ENDBRANCH   7  24
BRANCH   1  26
ATOM     26  C   UNL     1       1.405   9.152  21.857  0.00  0.00    +0.000 C 
BRANCH  26  27
ATOM     27  C   UNL     1      -0.019   9.136  22.447  0.00  0.00    +0.000 C 
BRANCH  27  29
ATOM     28  C   UNL     1      -1.300  10.992  23.132  0.00  0.00    +0.000 C 
ATOM     29  O   UNL     1      -0.149  10.198  23.401  0.00  0.00    +0.000 OA
ENDBRANCH  27  29
ENDBRANCH  26  27
ENDBRANCH   1  26
TORSDOF 8
ENDMDL
MODEL 9
REMARK VINA RESULT:      -6.6      1.107      1.177
REMARK  Name = 
REMARK  13 active torsions:
REMARK  status: ('A' for Active; 'I' for Inactive)
REMARK    1  A    between atoms: C_1  and  O_2
REMARK    2  A    between atoms: O_2  and  C_3
REMARK    3  A    between atoms: C_3  and  C_4
REMARK    4  A    between atoms: C_4  and  N_5
REMARK    5  A    between atoms: N_5  and  C_6
REMARK    6  A    between atoms: C_8  and  O_9
REMARK    7  A    between atoms: O_9  and  C_10
REMARK    8  A    between atoms: C_11  and  O_12
REMARK    9  A    between atoms: O_12  and  C_13
REMARK   10  A    between atoms: C_14  and  O_15
REMARK   11  A    between atoms: O_15  and  C_16
REMARK   12  A    between atoms: C_23  and  O_24
REMARK   13  A    between atoms: O_24  and  C_25
REMARK                            x       y       z     vdW  Elec       q    Type
REMARK                         _______ _______ _______ _____ _____    ______ ____
ROOT
ATOM      1  N   UNL     1       2.718   6.908  18.734  0.00  0.00    +0.000 N 
ATOM      2  C   UNL     1       2.171   8.174  18.562  0.00  0.00    +0.000 A 
ATOM      3  N   UNL     1       2.241   8.857  17.403  0.00  0.00    +0.000 NA
ATOM      4  N   UNL     1       1.635  10.020  17.644  0.00  0.00    +0.000 N 
ATOM      5  C   UNL     1       1.074  10.097  18.871  0.00  0.00    +0.000 A 
ATOM      6  N   UNL     1       0.345  11.130  19.322  0.00  0.00    +0.000 NA
ATOM      7  C   UNL     1      -0.117  10.938  20.575  0.00  0.00    +0.000 A 
ATOM      8  C   UNL     1       0.118   9.819  21.354  0.00  0.00    +0.000 A 
ATOM      9  C   UNL     1       0.915   8.791  20.849  0.00  0.00    +0.000 A 
ATOM     10  C   UNL     1       1.403   8.919  19.526  0.00  0.00    +0.000 A 
ATOM     11  H   UNL     1       1.599  10.718  16.914  0.00  0.00    +0.000 HD
ENDROOT
BRANCH   1  12
ATOM     12  C   UNL     1       3.812   6.404  17.953  0.00  0.00    +0.000 A 
ATOM     13  C   UNL     1       4.937   7.154  17.602  0.00  0.00    +0.000 A 
ATOM     14  C   UNL     1       6.052   6.598  16.948  0.00  0.00    +0.000 A 
ATOM     15  C   UNL     1       6.055   5.243  16.575  0.00  0.00    +0.000 A 
ATOM     16  C   UNL     1       4.911   4.473  16.823  0.00  0.00    +0.000 A 
ATOM     17  C   UNL     1       3.815   5.076  17.469  0.00  0.00    +0.000 A 
BRANCH  14  18
ATOM     18  O   UNL     1       7.176   7.339  16.650  0.00  0.00    +0.000 OA
ATOM     19  C   UNL     1       7.655   8.196  17.683  0.00  0.00    +0.000 C 
ENDBRANCH  14  18
BRANCH  15  20
ATOM     20  O   UNL     1       7.174   4.802  15.907  0.00  0.00    +0.000 OA
ATOM     21  C   UNL     1       7.096   4.789  14.486  0.00  0.00    +0.000 C 
ENDBRANCH  15  20
BRANCH  16  22
ATOM     22  O   UNL     1       4.898   3.170  16.394  0.00  0.00    +0.000 OA
ATOM     23  C   UNL     1       4.142   2.224  17.141  0.00  0.00    +0.000 C 
ENDBRANCH  16  22
ENDBRANCH   1  12
BRANCH   7  24
ATOM     24  O   UNL     1      -0.912  11.917  21.142  0.00  0.00    +0.000 OA
ATOM     25  C   UNL     1      -1.626  12.671  20.162  0.00  0.00    +0.000 C 
ENDBRANCH   7  24
BRANCH   1  26
ATOM     26  C   UNL     1       1.967   5.956  19.593  0.00  0.00    +0.000 C 
BRANCH  26  27
ATOM     27  C   UNL     1       2.874   5.084  20.484  0.00  0.00    +0.000 C 
BRANCH  27  29
ATOM     28  C   UNL     1       2.026   3.159  21.546  0.00  0.00    +0.000 C 
ATOM     29  O   UNL     1       2.110   4.580  21.587  0.00  0.00    +0.000 OA
ENDBRANCH  27  29
ENDBRANCH  26  27
ENDBRANCH   1  26
TORSDOF 8
ENDMDL
