MODEL 1
REMARK VINA RESULT:      -7.7      0.000      0.000
REMARK  Name = 
REMARK  2 active torsions:
REMARK  status: ('A' for Active; 'I' for Inactive)
REMARK    1  A    between atoms: C_7  and  C_8
REMARK    2  A    between atoms: C_13  and  C_14
REMARK                            x       y       z     vdW  Elec       q    Type
REMARK                         _______ _______ _______ _____ _____    ______ ____
ROOT
ATOM      1  C   UNL     1       4.455   4.009  18.085  0.00  0.00    +0.000 A 
ATOM      2  N   UNL     1       4.326   2.869  18.764  0.00  0.00    +0.000 NA
ATOM      3  N   UNL     1       3.407   3.045  19.795  0.00  0.00    +0.000 NA
ATOM      4  C   UNL     1       3.014   4.279  19.697  0.00  0.00    +0.000 A 
ATOM      5  S   UNL     1       1.980   5.339  20.544  0.00  0.00    +0.000 S 
ATOM      6  C   UNL     1       2.456   6.581  19.354  0.00  0.00    +0.000 A 
ATOM      7  N   UNL     1       3.295   6.226  18.414  0.00  0.00    +0.000 NA
ATOM      8  N   UNL     1       3.596   4.918  18.658  0.00  0.00    +0.000 N 
ENDROOT
BRANCH   1  15
ATOM      9 CL   UNL     1       7.245   5.362  18.679  0.00  0.00    +0.000 Cl
ATOM     10  C   UNL     1       6.611   4.912  17.132  0.00  0.00    +0.000 A 
ATOM     11  C   UNL     1       7.433   5.172  16.025  0.00  0.00    +0.000 A 
ATOM     12  C   UNL     1       7.028   4.813  14.741  0.00  0.00    +0.000 A 
ATOM     13  C   UNL     1       5.796   4.198  14.555  0.00  0.00    +0.000 A 
ATOM     14  C   UNL     1       4.972   3.946  15.654  0.00  0.00    +0.000 A 
ATOM     15  C   UNL     1       5.363   4.288  16.966  0.00  0.00    +0.000 A 
ENDBRANCH   1  15
BRANCH   6  16
ATOM     16  C   UNL     1       1.892   7.936  19.445  0.00  0.00    +0.000 A 
ATOM     17  C   UNL     1       1.888   8.757  18.315  0.00  0.00    +0.000 A 
ATOM     18  C   UNL     1       1.359  10.042  18.402  0.00  0.00    +0.000 A 
ATOM     19  C   UNL     1       0.865  10.468  19.624  0.00  0.00    +0.000 A 
ATOM     20  N   UNL     1       0.871   9.706  20.740  0.00  0.00    +0.000 NA
ATOM     21  C   UNL     1       1.385   8.457  20.628  0.00  0.00    +0.000 A 
ENDBRANCH   6  16
TORSDOF 2
ENDMDL
MODEL 2
REMARK VINA RESULT:      -7.7      0.656      1.139
REMARK  Name = 
REMARK  2 active torsions:
REMARK  status: ('A' for Active; 'I' for Inactive)
REMARK    1  A    between atoms: C_7  and  C_8
REMARK    2  A    between atoms: C_13  and  C_14
REMARK                            x       y       z     vdW  Elec       q    Type
REMARK                         _______ _______ _______ _____ _____    ______ ____
ROOT
ATOM      1  C   UNL     1       4.384   3.912  18.389  0.00  0.00    +0.000 A 
ATOM      2  N   UNL     1       4.243   2.738  19.004  0.00  0.00    +0.000 NA
ATOM      3  N   UNL     1       3.306   2.860  20.027  0.00  0.00    +0.000 NA
ATOM      4  C   UNL     1       2.916   4.098  19.988  0.00  0.00    +0.000 A 
ATOM      5  S   UNL     1       1.870   5.113  20.874  0.00  0.00    +0.000 S 
ATOM      6  C   UNL     1       2.367   6.416  19.761  0.00  0.00    +0.000 A 
ATOM      7  N   UNL     1       3.221   6.110  18.817  0.00  0.00    +0.000 NA
ATOM      8  N   UNL     1       3.516   4.791  18.995  0.00  0.00    +0.000 N 
ENDROOT
BRANCH   1  15
ATOM      9 CL   UNL     1       7.017   5.518  19.065  0.00  0.00    +0.000 Cl
ATOM     10  C   UNL     1       6.491   4.985  17.504  0.00  0.00    +0.000 A 
ATOM     11  C   UNL     1       7.333   5.295  16.426  0.00  0.00    +0.000 A 
ATOM     12  C   UNL     1       7.016   4.877  15.134  0.00  0.00    +0.000 A 
ATOM     13  C   UNL     1       5.852   4.152  14.913  0.00  0.00    +0.000 A 
ATOM     14  C   UNL     1       5.007   3.849  15.983  0.00  0.00    +0.000 A 
ATOM     15  C   UNL     1       5.310   4.249  17.302  0.00  0.00    +0.000 A 
ENDBRANCH   1  15
BRANCH   6  16
ATOM     16  C   UNL     1       1.803   7.765  19.914  0.00  0.00    +0.000 A 
ATOM     17  C   UNL     1       1.245   8.144  21.137  0.00  0.00    +0.000 A 
ATOM     18  C   UNL     1       0.707   9.420  21.281  0.00  0.00    +0.000 A 
ATOM     19  C   UNL     1       0.731  10.271  20.187  0.00  0.00    +0.000 A 
ATOM     20  N   UNL     1       1.245   9.929  18.986  0.00  0.00    +0.000 NA
ATOM     21  C   UNL     1       1.769   8.684  18.873  0.00  0.00    +0.000 A 
ENDBRANCH   6  16
TORSDOF 2
ENDMDL
MODEL 3
REMARK VINA RESULT:      -7.6      3.671      6.743
REMARK  Name = 
REMARK  2 active torsions:
REMARK  status: ('A' for Active; 'I' for Inactive)
REMARK    1  A    between atoms: C_7  and  C_8
REMARK    2  A    between atoms: C_13  and  C_14
REMARK                            x       y       z     vdW  Elec       q    Type
REMARK                         _______ _______ _______ _____ _____    ______ ____
ROOT
ATOM      1  C   UNL     1       4.559   4.255  18.987  0.00  0.00    +0.000 A 
ATOM      2  N   UNL     1       5.279   4.687  20.022  0.00  0.00    +0.000 NA
ATOM      3  N   UNL     1       6.520   5.130  19.572  0.00  0.00    +0.000 NA
ATOM      4  C   UNL     1       6.500   4.953  18.285  0.00  0.00    +0.000 A 
ATOM      5  S   UNL     1       7.571   5.156  16.973  0.00  0.00    +0.000 S 
ATOM      6  C   UNL     1       6.262   4.515  15.944  0.00  0.00    +0.000 A 
ATOM      7  N   UNL     1       5.136   4.196  16.531  0.00  0.00    +0.000 NA
ATOM      8  N   UNL     1       5.323   4.446  17.858  0.00  0.00    +0.000 N 
ENDROOT
BRANCH   1  15
ATOM      9 CL   UNL     1       2.143   5.918  20.156  0.00  0.00    +0.000 Cl
ATOM     10  C   UNL     1       2.097   4.301  19.541  0.00  0.00    +0.000 A 
ATOM     11  C   UNL     1       0.845   3.666  19.558  0.00  0.00    +0.000 A 
ATOM     12  C   UNL     1       0.697   2.376  19.051  0.00  0.00    +0.000 A 
ATOM     13  C   UNL     1       1.799   1.712  18.529  0.00  0.00    +0.000 A 
ATOM     14  C   UNL     1       3.048   2.338  18.517  0.00  0.00    +0.000 A 
ATOM     15  C   UNL     1       3.224   3.646  19.014  0.00  0.00    +0.000 A 
ENDBRANCH   1  15
BRANCH   6  16
ATOM     16  C   UNL     1       6.467   4.383  14.495  0.00  0.00    +0.000 A 
ATOM     17  C   UNL     1       5.633   3.542  13.754  0.00  0.00    +0.000 A 
ATOM     18  C   UNL     1       5.831   3.413  12.382  0.00  0.00    +0.000 A 
ATOM     19  C   UNL     1       6.870   4.120  11.799  0.00  0.00    +0.000 A 
ATOM     20  N   UNL     1       7.706   4.926  12.489  0.00  0.00    +0.000 NA
ATOM     21  C   UNL     1       7.489   5.040  13.822  0.00  0.00    +0.000 A 
ENDBRANCH   6  16
TORSDOF 2
ENDMDL
MODEL 4
REMARK VINA RESULT:      -7.4      2.366      6.438
REMARK  Name = 
REMARK  2 active torsions:
REMARK  status: ('A' for Active; 'I' for Inactive)
REMARK    1  A    between atoms: C_7  and  C_8
REMARK    2  A    between atoms: C_13  and  C_14
REMARK                            x       y       z     vdW  Elec       q    Type
REMARK                         _______ _______ _______ _____ _____    ______ ____
ROOT
ATOM      1  C   UNL     1       2.249   6.788  19.806  0.00  0.00    +0.000 A 
ATOM      2  N   UNL     1       1.830   6.007  20.801  0.00  0.00    +0.000 NA
ATOM      3  N   UNL     1       2.457   4.767  20.712  0.00  0.00    +0.000 NA
ATOM      4  C   UNL     1       3.232   4.848  19.673  0.00  0.00    +0.000 A 
ATOM      5  S   UNL     1       4.291   3.825  18.812  0.00  0.00    +0.000 S 
ATOM      6  C   UNL     1       4.558   5.204  17.712  0.00  0.00    +0.000 A 
ATOM      7  N   UNL     1       3.924   6.318  17.977  0.00  0.00    +0.000 NA
ATOM      8  N   UNL     1       3.172   6.064  19.087  0.00  0.00    +0.000 N 
ENDROOT
BRANCH   1  15
ATOM      9 CL   UNL     1       1.044   8.588  22.103  0.00  0.00    +0.000 Cl
ATOM     10  C   UNL     1       1.226   9.009  20.434  0.00  0.00    +0.000 A 
ATOM     11  C   UNL     1       0.798  10.294  20.067  0.00  0.00    +0.000 A 
ATOM     12  C   UNL     1       0.936  10.741  18.755  0.00  0.00    +0.000 A 
ATOM     13  C   UNL     1       1.498   9.904  17.799  0.00  0.00    +0.000 A 
ATOM     14  C   UNL     1       1.918   8.621  18.158  0.00  0.00    +0.000 A 
ATOM     15  C   UNL     1       1.800   8.148  19.482  0.00  0.00    +0.000 A 
ENDBRANCH   1  15
BRANCH   6  16
ATOM     16  C   UNL     1       5.477   5.065  16.574  0.00  0.00    +0.000 A 
ATOM     17  C   UNL     1       5.164   4.180  15.539  0.00  0.00    +0.000 A 
ATOM     18  C   UNL     1       6.038   4.045  14.463  0.00  0.00    +0.000 A 
ATOM     19  C   UNL     1       7.205   4.791  14.467  0.00  0.00    +0.000 A 
ATOM     20  N   UNL     1       7.546   5.641  15.460  0.00  0.00    +0.000 NA
ATOM     21  C   UNL     1       6.677   5.761  16.493  0.00  0.00    +0.000 A 
ENDBRANCH   6  16
TORSDOF 2
ENDMDL
MODEL 5
REMARK VINA RESULT:      -7.4      3.650      6.764
REMARK  Name = 
REMARK  2 active torsions:
REMARK  status: ('A' for Active; 'I' for Inactive)
REMARK    1  A    between atoms: C_7  and  C_8
REMARK    2  A    between atoms: C_13  and  C_14
REMARK                            x       y       z     vdW  Elec       q    Type
REMARK                         _______ _______ _______ _____ _____    ______ ____
ROOT
ATOM      1  C   UNL     1       4.504   4.601  18.767  0.00  0.00    +0.000 A 
ATOM      2  N   UNL     1       5.147   5.223  19.756  0.00  0.00    +0.000 NA
ATOM      3  N   UNL     1       6.333   5.765  19.269  0.00  0.00    +0.000 NA
ATOM      4  C   UNL     1       6.360   5.455  18.008  0.00  0.00    +0.000 A 
ATOM      5  S   UNL     1       7.423   5.649  16.689  0.00  0.00    +0.000 S 
ATOM      6  C   UNL     1       6.221   4.750  15.725  0.00  0.00    +0.000 A 
ATOM      7  N   UNL     1       5.131   4.358  16.335  0.00  0.00    +0.000 NA
ATOM      8  N   UNL     1       5.261   4.765  17.630  0.00  0.00    +0.000 N 
ENDROOT
BRANCH   1  15
ATOM      9 CL   UNL     1       4.455   1.914  20.424  0.00  0.00    +0.000 Cl
ATOM     10  C   UNL     1       3.144   2.620  19.541  0.00  0.00    +0.000 A 
ATOM     11  C   UNL     1       1.926   1.924  19.575  0.00  0.00    +0.000 A 
ATOM     12  C   UNL     1       0.801   2.430  18.926  0.00  0.00    +0.000 A 
ATOM     13  C   UNL     1       0.888   3.632  18.236  0.00  0.00    +0.000 A 
ATOM     14  C   UNL     1       2.101   4.324  18.193  0.00  0.00    +0.000 A 
ATOM     15  C   UNL     1       3.252   3.840  18.850  0.00  0.00    +0.000 A 
ENDBRANCH   1  15
BRANCH   6  16
ATOM     16  C   UNL     1       6.468   4.494  14.299  0.00  0.00    +0.000 A 
ATOM     17  C   UNL     1       5.672   3.572  13.616  0.00  0.00    +0.000 A 
ATOM     18  C   UNL     1       5.910   3.326  12.266  0.00  0.00    +0.000 A 
ATOM     19  C   UNL     1       6.950   4.001  11.648  0.00  0.00    +0.000 A 
ATOM     20  N   UNL     1       7.751   4.884  12.284  0.00  0.00    +0.000 NA
ATOM     21  C   UNL     1       7.495   5.112  13.596  0.00  0.00    +0.000 A 
ENDBRANCH   6  16
TORSDOF 2
ENDMDL
MODEL 6
REMARK VINA RESULT:      -7.3      3.664      6.729
REMARK  Name = 
REMARK  2 active torsions:
REMARK  status: ('A' for Active; 'I' for Inactive)
REMARK    1  A    between atoms: C_7  and  C_8
REMARK    2  A    between atoms: C_13  and  C_14
REMARK                            x       y       z     vdW  Elec       q    Type
REMARK                         _______ _______ _______ _____ _____    ______ ____
ROOT
ATOM      1  C   UNL     1       4.606   4.260  18.995  0.00  0.00    +0.000 A 
ATOM      2  N   UNL     1       5.331   4.686  20.029  0.00  0.00    +0.000 NA
ATOM      3  N   UNL     1       6.575   5.117  19.577  0.00  0.00    +0.000 NA
ATOM      4  C   UNL     1       6.553   4.940  18.291  0.00  0.00    +0.000 A 
ATOM      5  S   UNL     1       7.625   5.130  16.978  0.00  0.00    +0.000 S 
ATOM      6  C   UNL     1       6.308   4.500  15.951  0.00  0.00    +0.000 A 
ATOM      7  N   UNL     1       5.180   4.193  16.538  0.00  0.00    +0.000 NA
ATOM      8  N   UNL     1       5.370   4.442  17.866  0.00  0.00    +0.000 N 
ENDROOT
BRANCH   1  15
ATOM      9 CL   UNL     1       2.190   5.979  20.080  0.00  0.00    +0.000 Cl
ATOM     10  C   UNL     1       2.137   4.344  19.515  0.00  0.00    +0.000 A 
ATOM     11  C   UNL     1       0.880   3.720  19.536  0.00  0.00    +0.000 A 
ATOM     12  C   UNL     1       0.727   2.416  19.067  0.00  0.00    +0.000 A 
ATOM     13  C   UNL     1       1.830   1.727  18.581  0.00  0.00    +0.000 A 
ATOM     14  C   UNL     1       3.084   2.341  18.566  0.00  0.00    +0.000 A 
ATOM     15  C   UNL     1       3.265   3.664  19.024  0.00  0.00    +0.000 A 
ENDBRANCH   1  15
BRANCH   6  16
ATOM     16  C   UNL     1       6.511   4.365  14.501  0.00  0.00    +0.000 A 
ATOM     17  C   UNL     1       7.482   5.142  13.866  0.00  0.00    +0.000 A 
ATOM     18  C   UNL     1       7.671   5.017  12.492  0.00  0.00    +0.000 A 
ATOM     19  C   UNL     1       6.869   4.127  11.796  0.00  0.00    +0.000 A 
ATOM     20  N   UNL     1       5.909   3.375  12.377  0.00  0.00    +0.000 NA
ATOM     21  C   UNL     1       5.749   3.509  13.716  0.00  0.00    +0.000 A 
ENDBRANCH   6  16
TORSDOF 2
ENDMDL
MODEL 7
REMARK VINA RESULT:      -7.2      3.283      4.573
REMARK  Name = 
REMARK  2 active torsions:
REMARK  status: ('A' for Active; 'I' for Inactive)
REMARK    1  A    between atoms: C_7  and  C_8
REMARK    2  A    between atoms: C_13  and  C_14
REMARK                            x       y       z     vdW  Elec       q    Type
REMARK                         _______ _______ _______ _____ _____    ______ ____
ROOT
ATOM      1  C   UNL     1       2.701   6.146  18.988  0.00  0.00    +0.000 A 
ATOM      2  N   UNL     1       3.273   6.347  17.801  0.00  0.00    +0.000 NA
ATOM      3  N   UNL     1       3.069   7.667  17.406  0.00  0.00    +0.000 NA
ATOM      4  C   UNL     1       2.387   8.211  18.369  0.00  0.00    +0.000 A 
ATOM      5  S   UNL     1       1.671   9.723  18.702  0.00  0.00    +0.000 S 
ATOM      6  C   UNL     1       1.111   9.000  20.233  0.00  0.00    +0.000 A 
ATOM      7  N   UNL     1       1.441   7.755  20.469  0.00  0.00    +0.000 NA
ATOM      8  N   UNL     1       2.150   7.344  19.378  0.00  0.00    +0.000 N 
ENDROOT
BRANCH   1  15
ATOM      9 CL   UNL     1       5.252   4.293  19.162  0.00  0.00    +0.000 Cl
ATOM     10  C   UNL     1       3.692   3.990  19.850  0.00  0.00    +0.000 A 
ATOM     11  C   UNL     1       3.553   2.793  20.569  0.00  0.00    +0.000 A 
ATOM     12  C   UNL     1       2.347   2.475  21.192  0.00  0.00    +0.000 A 
ATOM     13  C   UNL     1       1.272   3.350  21.095  0.00  0.00    +0.000 A 
ATOM     14  C   UNL     1       1.405   4.538  20.372  0.00  0.00    +0.000 A 
ATOM     15  C   UNL     1       2.617   4.889  19.742  0.00  0.00    +0.000 A 
ENDBRANCH   1  15
BRANCH   6  16
ATOM     16  C   UNL     1       0.327   9.806  21.181  0.00  0.00    +0.000 A 
ATOM     17  C   UNL     1      -0.444  10.869  20.707  0.00  0.00    +0.000 A 
ATOM     18  C   UNL     1      -1.183  11.635  21.605  0.00  0.00    +0.000 A 
ATOM     19  C   UNL     1      -1.111  11.321  22.952  0.00  0.00    +0.000 A 
ATOM     20  N   UNL     1      -0.360  10.312  23.445  0.00  0.00    +0.000 NA
ATOM     21  C   UNL     1       0.344   9.576  22.551  0.00  0.00    +0.000 A 
ENDBRANCH   6  16
TORSDOF 2
ENDMDL
MODEL 8
REMARK VINA RESULT:      -7.1      3.600      6.803
REMARK  Name = 
REMARK  2 active torsions:
REMARK  status: ('A' for Active; 'I' for Inactive)
REMARK    1  A    between atoms: C_7  and  C_8
REMARK    2  A    between atoms: C_13  and  C_14
REMARK                            x       y       z     vdW  Elec       q    Type
REMARK                         _______ _______ _______ _____ _____    ______ ____
ROOT
ATOM      1  C   UNL     1       4.698   4.274  19.014  0.00  0.00    +0.000 A 
ATOM      2  N   UNL     1       5.590   4.671  19.921  0.00  0.00    +0.000 NA
ATOM      3  N   UNL     1       6.794   4.969  19.288  0.00  0.00    +0.000 NA
ATOM      4  C   UNL     1       6.582   4.747  18.026  0.00  0.00    +0.000 A 
ATOM      5  S   UNL     1       7.477   4.790  16.575  0.00  0.00    +0.000 S 
ATOM      6  C   UNL     1       5.985   4.245  15.763  0.00  0.00    +0.000 A 
ATOM      7  N   UNL     1       4.925   4.063  16.509  0.00  0.00    +0.000 NA
ATOM      8  N   UNL     1       5.314   4.344  17.786  0.00  0.00    +0.000 N 
ENDROOT
BRANCH   1  15
ATOM      9 CL   UNL     1       3.968   1.281  18.323  0.00  0.00    +0.000 Cl
ATOM     10  C   UNL     1       2.906   2.497  18.946  0.00  0.00    +0.000 A 
ATOM     11  C   UNL     1       1.578   2.104  19.176  0.00  0.00    +0.000 A 
ATOM     12  C   UNL     1       0.655   3.001  19.711  0.00  0.00    +0.000 A 
ATOM     13  C   UNL     1       1.052   4.297  20.014  0.00  0.00    +0.000 A 
ATOM     14  C   UNL     1       2.370   4.694  19.779  0.00  0.00    +0.000 A 
ATOM     15  C   UNL     1       3.328   3.804  19.249  0.00  0.00    +0.000 A 
ENDBRANCH   1  15
BRANCH   6  16
ATOM     16  C   UNL     1       5.976   4.038  14.308  0.00  0.00    +0.000 A 
ATOM     17  C   UNL     1       7.112   4.355  13.560  0.00  0.00    +0.000 A 
ATOM     18  C   UNL     1       7.102   4.163  12.181  0.00  0.00    +0.000 A 
ATOM     19  C   UNL     1       5.947   3.674  11.593  0.00  0.00    +0.000 A 
ATOM     20  N   UNL     1       4.826   3.374  12.285  0.00  0.00    +0.000 NA
ATOM     21  C   UNL     1       4.862   3.563  13.627  0.00  0.00    +0.000 A 
ENDBRANCH   6  16
TORSDOF 2
ENDMDL
MODEL 9
REMARK VINA RESULT:      -7.1      3.679      6.748
REMARK  Name = 
REMARK  2 active torsions:
REMARK  status: ('A' for Active; 'I' for Inactive)
REMARK    1  A    between atoms: C_7  and  C_8
REMARK    2  A    between atoms: C_13  and  C_14
REMARK                            x       y       z     vdW  Elec       q    Type
REMARK                         _______ _______ _______ _____ _____    ______ ____
ROOT
ATOM      1  C   UNL     1       4.536   4.556  18.742  0.00  0.00    +0.000 A 
ATOM      2  N   UNL     1       5.171   5.166  19.742  0.00  0.00    +0.000 NA
ATOM      3  N   UNL     1       6.362   5.713  19.271  0.00  0.00    +0.000 NA
ATOM      4  C   UNL     1       6.398   5.417  18.007  0.00  0.00    +0.000 A 
ATOM      5  S   UNL     1       7.472   5.625  16.698  0.00  0.00    +0.000 S 
ATOM      6  C   UNL     1       6.276   4.737  15.715  0.00  0.00    +0.000 A 
ATOM      7  N   UNL     1       5.181   4.340  16.311  0.00  0.00    +0.000 NA
ATOM      8  N   UNL     1       5.301   4.733  17.612  0.00  0.00    +0.000 N 
ENDROOT
BRANCH   1  15
ATOM      9 CL   UNL     1       4.469   1.856  20.377  0.00  0.00    +0.000 Cl
ATOM     10  C   UNL     1       3.167   2.570  19.487  0.00  0.00    +0.000 A 
ATOM     11  C   UNL     1       1.948   1.875  19.503  0.00  0.00    +0.000 A 
ATOM     12  C   UNL     1       0.830   2.386  18.847  0.00  0.00    +0.000 A 
ATOM     13  C   UNL     1       0.925   3.594  18.167  0.00  0.00    +0.000 A 
ATOM     14  C   UNL     1       2.139   4.285  18.142  0.00  0.00    +0.000 A 
ATOM     15  C   UNL     1       3.283   3.795  18.806  0.00  0.00    +0.000 A 
ENDBRANCH   1  15
BRANCH   6  16
ATOM     16  C   UNL     1       6.535   4.497  14.288  0.00  0.00    +0.000 A 
ATOM     17  C   UNL     1       7.528   5.231  13.635  0.00  0.00    +0.000 A 
ATOM     18  C   UNL     1       7.769   5.007  12.282  0.00  0.00    +0.000 A 
ATOM     19  C   UNL     1       6.996   4.064  11.623  0.00  0.00    +0.000 A 
ATOM     20  N   UNL     1       6.016   3.352  12.221  0.00  0.00    +0.000 NA
ATOM     21  C   UNL     1       5.805   3.583  13.540  0.00  0.00    +0.000 A 
ENDBRANCH   6  16
TORSDOF 2
ENDMDL
