MODEL 1
REMARK VINA RESULT:      -6.9      0.000      0.000
REMARK  Name = 
REMARK  18 active torsions:
REMARK  status: ('A' for Active; 'I' for Inactive)
REMARK    1  A    between atoms: C_1  and  C_2
REMARK    2  A    between atoms: C_3  and  C_4
REMARK    3  A    between atoms: C_6  and  O_7
REMARK    4  A    between atoms: O_7  and  C_8
REMARK    5  A    between atoms: C_9  and  O_10
REMARK    6  A    between atoms: O_10  and  C_11
REMARK    7  A    between atoms: C_11  and  C_12
REMARK    8  A    between atoms: C_11  and  C_14
REMARK    9  A    between atoms: C_12  and  O_13
REMARK   10  A    between atoms: C_14  and  C_15
REMARK   11  A    between atoms: C_17  and  O_18
REMARK   12  A    between atoms: O_18  and  C_19
REMARK   13  A    between atoms: C_20  and  O_21
REMARK   14  A    between atoms: O_21  and  C_22
REMARK   15  A    between atoms: C_23  and  O_24
REMARK   16  A    between atoms: O_24  and  C_25
REMARK   17  A    between atoms: C_27  and  O_28
REMARK   18  A    between atoms: O_28  and  C_29
REMARK                            x       y       z     vdW  Elec       q    Type
REMARK                         _______ _______ _______ _____ _____    ______ ____
ROOT
ATOM      1  C   UNL     1       2.486   7.279  18.720  0.00  0.00    +0.000 C 
ENDROOT
BRANCH   1   2
ATOM      2  O   UNL     1       3.776   6.657  18.844  0.00  0.00    +0.000 OA
BRANCH   2   6
ATOM      3  C   UNL     1       5.500   4.465  15.668  0.00  0.00    +0.000 A 
ATOM      4  C   UNL     1       6.024   5.703  16.030  0.00  0.00    +0.000 A 
ATOM      5  C   UNL     1       5.490   6.469  17.058  0.00  0.00    +0.000 A 
ATOM      6  C   UNL     1       4.358   6.009  17.779  0.00  0.00    +0.000 A 
ATOM      7  C   UNL     1       3.780   4.789  17.372  0.00  0.00    +0.000 A 
ATOM      8  C   UNL     1       4.356   4.024  16.334  0.00  0.00    +0.000 A 
BRANCH   3  11
ATOM      9  C   UNL     1       6.242   3.119  12.116  0.00  0.00    +0.000 C 
ATOM     10  C   UNL     1       5.769   3.929  13.276  0.00  0.00    +0.000 C 
ATOM     11  C   UNL     1       6.121   3.717  14.561  0.00  0.00    +0.000 C 
ENDBRANCH   3  11
BRANCH   5  12
ATOM     12  O   UNL     1       6.094   7.650  17.402  0.00  0.00    +0.000 OA
ATOM     13  C   UNL     1       7.508   7.667  17.518  0.00  0.00    +0.000 C 
ENDBRANCH   5  12
BRANCH   7  14
ATOM     14  O   UNL     1       2.675   4.175  17.923  0.00  0.00    +0.000 OA
ATOM     15  C   UNL     1       2.452   2.811  17.589  0.00  0.00    +0.000 C 
ENDBRANCH   7  14
ENDBRANCH   2   6
ENDBRANCH   1   2
BRANCH   1  16
ATOM     16  C   UNL     1       1.938   7.582  20.120  0.00  0.00    +0.000 C 
BRANCH  16  17
ATOM     17  O   UNL     1       1.999   6.428  20.960  0.00  0.00    +0.000 OA
ATOM     18  H   UNL     1       1.191   5.918  20.769  0.00  0.00    +0.000 HD
ENDBRANCH  16  17
ENDBRANCH   1  16
BRANCH   1  19
ATOM     19  C   UNL     1       2.607   8.571  17.898  0.00  0.00    +0.000 C 
BRANCH  19  20
ATOM     20  C   UNL     1       1.472   9.540  18.135  0.00  0.00    +0.000 A 
ATOM     21  C   UNL     1       1.708  10.792  18.702  0.00  0.00    +0.000 A 
ATOM     22  C   UNL     1       0.687  11.736  18.833  0.00  0.00    +0.000 A 
ATOM     23  C   UNL     1      -0.625  11.408  18.430  0.00  0.00    +0.000 A 
ATOM     24  C   UNL     1      -0.885  10.125  17.898  0.00  0.00    +0.000 A 
ATOM     25  C   UNL     1       0.173   9.217  17.744  0.00  0.00    +0.000 A 
BRANCH  22  26
ATOM     26  O   UNL     1       0.929  12.992  19.347  0.00  0.00    +0.000 OA
ATOM     27  C   UNL     1       1.301  13.019  20.726  0.00  0.00    +0.000 C 
ENDBRANCH  22  26
BRANCH  23  28
ATOM     28  O   UNL     1      -1.572  12.387  18.639  0.00  0.00    +0.000 OA
ATOM     29  C   UNL     1      -2.355  12.288  19.823  0.00  0.00    +0.000 C 
ENDBRANCH  23  28
BRANCH  24  30
ATOM     30  O   UNL     1      -2.175   9.801  17.564  0.00  0.00    +0.000 OA
ATOM     31  C   UNL     1      -2.604  10.051  16.230  0.00  0.00    +0.000 C 
ENDBRANCH  24  30
ENDBRANCH  19  20
ENDBRANCH   1  19
TORSDOF 12
ENDMDL
MODEL 2
REMARK VINA RESULT:      -6.8      2.109      4.046
REMARK  Name = 
REMARK  18 active torsions:
REMARK  status: ('A' for Active; 'I' for Inactive)
REMARK    1  A    between atoms: C_1  and  C_2
REMARK    2  A    between atoms: C_3  and  C_4
REMARK    3  A    between atoms: C_6  and  O_7
REMARK    4  A    between atoms: O_7  and  C_8
REMARK    5  A    between atoms: C_9  and  O_10
REMARK    6  A    between atoms: O_10  and  C_11
REMARK    7  A    between atoms: C_11  and  C_12
REMARK    8  A    between atoms: C_11  and  C_14
REMARK    9  A    between atoms: C_12  and  O_13
REMARK   10  A    between atoms: C_14  and  C_15
REMARK   11  A    between atoms: C_17  and  O_18
REMARK   12  A    between atoms: O_18  and  C_19
REMARK   13  A    between atoms: C_20  and  O_21
REMARK   14  A    between atoms: O_21  and  C_22
REMARK   15  A    between atoms: C_23  and  O_24
REMARK   16  A    between atoms: O_24  and  C_25
REMARK   17  A    between atoms: C_27  and  O_28
REMARK   18  A    between atoms: O_28  and  C_29
REMARK                            x       y       z     vdW  Elec       q    Type
REMARK                         _______ _______ _______ _____ _____    ______ ____
ROOT
ATOM      1  C   UNL     1       2.418   4.406  20.272  0.00  0.00    +0.000 C 
ENDROOT
BRANCH   1   2
ATOM      2  O   UNL     1       3.817   4.149  20.069  0.00  0.00    +0.000 OA
BRANCH   2   6
ATOM      3  C   UNL     1       5.674   4.623  16.303  0.00  0.00    +0.000 A 
ATOM      4  C   UNL     1       4.421   4.022  16.395  0.00  0.00    +0.000 A 
ATOM      5  C   UNL     1       3.771   3.833  17.608  0.00  0.00    +0.000 A 
ATOM      6  C   UNL     1       4.384   4.242  18.820  0.00  0.00    +0.000 A 
ATOM      7  C   UNL     1       5.683   4.786  18.739  0.00  0.00    +0.000 A 
ATOM      8  C   UNL     1       6.311   4.982  17.490  0.00  0.00    +0.000 A 
BRANCH   3  11
ATOM      9  C   UNL     1       6.662   3.980  12.616  0.00  0.00    +0.000 C 
ATOM     10  C   UNL     1       5.976   3.980  13.941  0.00  0.00    +0.000 C 
ATOM     11  C   UNL     1       6.298   4.780  14.978  0.00  0.00    +0.000 C 
ENDBRANCH   3  11
BRANCH   5  12
ATOM     12  O   UNL     1       2.512   3.292  17.620  0.00  0.00    +0.000 OA
ATOM     13  C   UNL     1       2.392   1.879  17.635  0.00  0.00    +0.000 C 
ENDBRANCH   5  12
BRANCH   7  14
ATOM     14  O   UNL     1       6.458   5.228  19.790  0.00  0.00    +0.000 OA
ATOM     15  C   UNL     1       7.759   5.713  19.482  0.00  0.00    +0.000 C 
ENDBRANCH   7  14
ENDBRANCH   2   6
ENDBRANCH   1   2
BRANCH   1  16
ATOM     16  C   UNL     1       1.746   3.134  20.804  0.00  0.00    +0.000 C 
BRANCH  16  17
ATOM     17  O   UNL     1       0.450   2.956  20.232  0.00  0.00    +0.000 OA
ATOM     18  H   UNL     1       0.339   1.994  20.120  0.00  0.00    +0.000 HD
ENDBRANCH  16  17
ENDBRANCH   1  16
BRANCH   1  19
ATOM     19  C   UNL     1       2.239   5.565  21.264  0.00  0.00    +0.000 C 
BRANCH  19  20
ATOM     20  C   UNL     1       1.910   6.880  20.596  0.00  0.00    +0.000 A 
ATOM     21  C   UNL     1       2.413   7.183  19.332  0.00  0.00    +0.000 A 
ATOM     22  C   UNL     1       2.037   8.348  18.659  0.00  0.00    +0.000 A 
ATOM     23  C   UNL     1       1.167   9.267  19.284  0.00  0.00    +0.000 A 
ATOM     24  C   UNL     1       0.688   8.992  20.585  0.00  0.00    +0.000 A 
ATOM     25  C   UNL     1       1.057   7.793  21.214  0.00  0.00    +0.000 A 
BRANCH  22  26
ATOM     26  O   UNL     1       2.493   8.626  17.388  0.00  0.00    +0.000 OA
ATOM     27  C   UNL     1       3.568   7.798  16.939  0.00  0.00    +0.000 C 
ENDBRANCH  22  26
BRANCH  23  28
ATOM     28  O   UNL     1       0.888  10.407  18.560  0.00  0.00    +0.000 OA
ATOM     29  C   UNL     1      -0.440  10.553  18.071  0.00  0.00    +0.000 C 
ENDBRANCH  23  28
BRANCH  24  30
ATOM     30  O   UNL     1      -0.110   9.921  21.202  0.00  0.00    +0.000 OA
ATOM     31  C   UNL     1      -0.103   9.971  22.624  0.00  0.00    +0.000 C 
ENDBRANCH  24  30
ENDBRANCH  19  20
ENDBRANCH   1  19
TORSDOF 12
ENDMDL
MODEL 3
REMARK VINA RESULT:      -6.8      0.547      2.285
REMARK  Name = 
REMARK  18 active torsions:
REMARK  status: ('A' for Active; 'I' for Inactive)
REMARK    1  A    between atoms: C_1  and  C_2
REMARK    2  A    between atoms: C_3  and  C_4
REMARK    3  A    between atoms: C_6  and  O_7
REMARK    4  A    between atoms: O_7  and  C_8
REMARK    5  A    between atoms: C_9  and  O_10
REMARK    6  A    between atoms: O_10  and  C_11
REMARK    7  A    between atoms: C_11  and  C_12
REMARK    8  A    between atoms: C_11  and  C_14
REMARK    9  A    between atoms: C_12  and  O_13
REMARK   10  A    between atoms: C_14  and  C_15
REMARK   11  A    between atoms: C_17  and  O_18
REMARK   12  A    between atoms: O_18  and  C_19
REMARK   13  A    between atoms: C_20  and  O_21
REMARK   14  A    between atoms: O_21  and  C_22
REMARK   15  A    between atoms: C_23  and  O_24
REMARK   16  A    between atoms: O_24  and  C_25
REMARK   17  A    between atoms: C_27  and  O_28
REMARK   18  A    between atoms: O_28  and  C_29
REMARK                            x       y       z     vdW  Elec       q    Type
REMARK                         _______ _______ _______ _____ _____    ______ ____
ROOT
ATOM      1  C   UNL     1       2.456   7.290  18.715  0.00  0.00    +0.000 C 
ENDROOT
BRANCH   1   2
ATOM      2  O   UNL     1       3.716   6.616  18.866  0.00  0.00    +0.000 OA
BRANCH   2   6
ATOM      3  C   UNL     1       5.473   4.444  15.695  0.00  0.00    +0.000 A 
ATOM      4  C   UNL     1       6.018   5.660  16.097  0.00  0.00    +0.000 A 
ATOM      5  C   UNL     1       5.475   6.419  17.125  0.00  0.00    +0.000 A 
ATOM      6  C   UNL     1       4.312   5.974  17.805  0.00  0.00    +0.000 A 
ATOM      7  C   UNL     1       3.714   4.778  17.356  0.00  0.00    +0.000 A 
ATOM      8  C   UNL     1       4.300   4.020  16.319  0.00  0.00    +0.000 A 
BRANCH   3  11
ATOM      9  C   UNL     1       6.246   3.110  12.145  0.00  0.00    +0.000 C 
ATOM     10  C   UNL     1       5.761   3.914  13.304  0.00  0.00    +0.000 C 
ATOM     11  C   UNL     1       6.106   3.703  14.590  0.00  0.00    +0.000 C 
ENDBRANCH   3  11
BRANCH   5  12
ATOM     12  O   UNL     1       6.099   7.577  17.510  0.00  0.00    +0.000 OA
ATOM     13  C   UNL     1       7.516   7.619  17.462  0.00  0.00    +0.000 C 
ENDBRANCH   5  12
BRANCH   7  14
ATOM     14  O   UNL     1       2.578   4.184  17.864  0.00  0.00    +0.000 OA
ATOM     15  C   UNL     1       2.758   3.099  18.765  0.00  0.00    +0.000 C 
ENDBRANCH   7  14
ENDBRANCH   2   6
ENDBRANCH   1   2
BRANCH   1  16
ATOM     16  C   UNL     1       1.939   7.706  20.098  0.00  0.00    +0.000 C 
BRANCH  16  17
ATOM     17  O   UNL     1       1.928   6.598  21.000  0.00  0.00    +0.000 OA
ATOM     18  H   UNL     1       2.708   6.713  21.572  0.00  0.00    +0.000 HD
ENDBRANCH  16  17
ENDBRANCH   1  16
BRANCH   1  19
ATOM     19  C   UNL     1       2.627   8.521  17.812  0.00  0.00    +0.000 C 
BRANCH  19  20
ATOM     20  C   UNL     1       1.562   9.571  18.022  0.00  0.00    +0.000 A 
ATOM     21  C   UNL     1       0.219   9.285  17.781  0.00  0.00    +0.000 A 
ATOM     22  C   UNL     1      -0.786  10.211  18.067  0.00  0.00    +0.000 A 
ATOM     23  C   UNL     1      -0.442  11.485  18.568  0.00  0.00    +0.000 A 
ATOM     24  C   UNL     1       0.920  11.803  18.772  0.00  0.00    +0.000 A 
ATOM     25  C   UNL     1       1.899  10.833  18.510  0.00  0.00    +0.000 A 
BRANCH  22  26
ATOM     26  O   UNL     1      -2.118   9.912  17.877  0.00  0.00    +0.000 OA
ATOM     27  C   UNL     1      -2.538   9.870  16.511  0.00  0.00    +0.000 C 
ENDBRANCH  22  26
BRANCH  23  28
ATOM     28  O   UNL     1      -1.498  12.345  18.779  0.00  0.00    +0.000 OA
ATOM     29  C   UNL     1      -1.997  12.442  20.107  0.00  0.00    +0.000 C 
ENDBRANCH  23  28
BRANCH  24  30
ATOM     30  O   UNL     1       1.243  13.064  19.205  0.00  0.00    +0.000 OA
ATOM     31  C   UNL     1       2.272  13.765  18.516  0.00  0.00    +0.000 C 
ENDBRANCH  24  30
ENDBRANCH  19  20
ENDBRANCH   1  19
TORSDOF 12
ENDMDL
MODEL 4
REMARK VINA RESULT:      -6.8      0.351      3.280
REMARK  Name = 
REMARK  18 active torsions:
REMARK  status: ('A' for Active; 'I' for Inactive)
REMARK    1  A    between atoms: C_1  and  C_2
REMARK    2  A    between atoms: C_3  and  C_4
REMARK    3  A    between atoms: C_6  and  O_7
REMARK    4  A    between atoms: O_7  and  C_8
REMARK    5  A    between atoms: C_9  and  O_10
REMARK    6  A    between atoms: O_10  and  C_11
REMARK    7  A    between atoms: C_11  and  C_12
REMARK    8  A    between atoms: C_11  and  C_14
REMARK    9  A    between atoms: C_12  and  O_13
REMARK   10  A    between atoms: C_14  and  C_15
REMARK   11  A    between atoms: C_17  and  O_18
REMARK   12  A    between atoms: O_18  and  C_19
REMARK   13  A    between atoms: C_20  and  O_21
REMARK   14  A    between atoms: O_21  and  C_22
REMARK   15  A    between atoms: C_23  and  O_24
REMARK   16  A    between atoms: O_24  and  C_25
REMARK   17  A    between atoms: C_27  and  O_28
REMARK   18  A    between atoms: O_28  and  C_29
REMARK                            x       y       z     vdW  Elec       q    Type
REMARK                         _______ _______ _______ _____ _____    ______ ____
ROOT
ATOM      1  C   UNL     1       2.444   7.379  18.715  0.00  0.00    +0.000 C 
ENDROOT
BRANCH   1   2
ATOM      2  O   UNL     1       3.715   6.727  18.873  0.00  0.00    +0.000 OA
BRANCH   2   6
ATOM      3  C   UNL     1       5.353   4.426  15.731  0.00  0.00    +0.000 A 
ATOM      4  C   UNL     1       4.273   3.941  16.464  0.00  0.00    +0.000 A 
ATOM      5  C   UNL     1       3.704   4.651  17.512  0.00  0.00    +0.000 A 
ATOM      6  C   UNL     1       4.226   5.916  17.887  0.00  0.00    +0.000 A 
ATOM      7  C   UNL     1       5.363   6.380  17.194  0.00  0.00    +0.000 A 
ATOM      8  C   UNL     1       5.910   5.643  16.121  0.00  0.00    +0.000 A 
BRANCH   3  11
ATOM      9  C   UNL     1       6.356   3.241  12.184  0.00  0.00    +0.000 C 
ATOM     10  C   UNL     1       5.950   4.057  13.366  0.00  0.00    +0.000 C 
ATOM     11  C   UNL     1       5.904   3.607  14.637  0.00  0.00    +0.000 C 
ENDBRANCH   3  11
BRANCH   5  12
ATOM     12  O   UNL     1       2.603   4.142  18.150  0.00  0.00    +0.000 OA
ATOM     13  C   UNL     1       2.808   3.178  19.170  0.00  0.00    +0.000 C 
ENDBRANCH   5  12
BRANCH   7  14
ATOM     14  O   UNL     1       6.032   7.566  17.410  0.00  0.00    +0.000 OA
ATOM     15  C   UNL     1       7.449   7.504  17.519  0.00  0.00    +0.000 C 
ENDBRANCH   7  14
ENDBRANCH   2   6
ENDBRANCH   1   2
BRANCH   1  16
ATOM     16  C   UNL     1       1.887   7.735  20.100  0.00  0.00    +0.000 C 
BRANCH  16  17
ATOM     17  O   UNL     1       1.936   6.612  20.980  0.00  0.00    +0.000 OA
ATOM     18  H   UNL     1       1.147   6.078  20.774  0.00  0.00    +0.000 HD
ENDBRANCH  16  17
ENDBRANCH   1  16
BRANCH   1  19
ATOM     19  C   UNL     1       2.610   8.645  17.860  0.00  0.00    +0.000 C 
BRANCH  19  20
ATOM     20  C   UNL     1       1.500   9.650  18.057  0.00  0.00    +0.000 A 
ATOM     21  C   UNL     1       0.180   9.328  17.742  0.00  0.00    +0.000 A 
ATOM     22  C   UNL     1      -0.869  10.209  18.014  0.00  0.00    +0.000 A 
ATOM     23  C   UNL     1      -0.593  11.475  18.574  0.00  0.00    +0.000 A 
ATOM     24  C   UNL     1       0.746  11.831  18.853  0.00  0.00    +0.000 A 
ATOM     25  C   UNL     1       1.769  10.904  18.604  0.00  0.00    +0.000 A 
BRANCH  22  26
ATOM     26  O   UNL     1      -2.180   9.872  17.750  0.00  0.00    +0.000 OA
ATOM     27  C   UNL     1      -2.549   9.920  16.370  0.00  0.00    +0.000 C 
ENDBRANCH  22  26
BRANCH  23  28
ATOM     28  O   UNL     1      -1.688  12.291  18.765  0.00  0.00    +0.000 OA
ATOM     29  C   UNL     1      -2.222  12.357  20.081  0.00  0.00    +0.000 C 
ENDBRANCH  23  28
BRANCH  24  30
ATOM     30  O   UNL     1       1.003  13.085  19.345  0.00  0.00    +0.000 OA
ATOM     31  C   UNL     1       1.444  13.198  20.693  0.00  0.00    +0.000 C 
ENDBRANCH  24  30
ENDBRANCH  19  20
ENDBRANCH   1  19
TORSDOF 12
ENDMDL
MODEL 5
REMARK VINA RESULT:      -6.7      2.176      4.087
REMARK  Name = 
REMARK  18 active torsions:
REMARK  status: ('A' for Active; 'I' for Inactive)
REMARK    1  A    between atoms: C_1  and  C_2
REMARK    2  A    between atoms: C_3  and  C_4
REMARK    3  A    between atoms: C_6  and  O_7
REMARK    4  A    between atoms: O_7  and  C_8
REMARK    5  A    between atoms: C_9  and  O_10
REMARK    6  A    between atoms: O_10  and  C_11
REMARK    7  A    between atoms: C_11  and  C_12
REMARK    8  A    between atoms: C_11  and  C_14
REMARK    9  A    between atoms: C_12  and  O_13
REMARK   10  A    between atoms: C_14  and  C_15
REMARK   11  A    between atoms: C_17  and  O_18
REMARK   12  A    between atoms: O_18  and  C_19
REMARK   13  A    between atoms: C_20  and  O_21
REMARK   14  A    between atoms: O_21  and  C_22
REMARK   15  A    between atoms: C_23  and  O_24
REMARK   16  A    between atoms: O_24  and  C_25
REMARK   17  A    between atoms: C_27  and  O_28
REMARK   18  A    between atoms: O_28  and  C_29
REMARK                            x       y       z     vdW  Elec       q    Type
REMARK                         _______ _______ _______ _____ _____    ______ ____
ROOT
ATOM      1  C   UNL     1       2.664   3.924  20.334  0.00  0.00    +0.000 C 
ENDROOT
BRANCH   1   2
ATOM      2  O   UNL     1       4.080   4.067  20.131  0.00  0.00    +0.000 OA
BRANCH   2   6
ATOM      3  C   UNL     1       5.857   4.284  16.303  0.00  0.00    +0.000 A 
ATOM      4  C   UNL     1       4.596   3.714  16.458  0.00  0.00    +0.000 A 
ATOM      5  C   UNL     1       3.971   3.609  17.693  0.00  0.00    +0.000 A 
ATOM      6  C   UNL     1       4.619   4.076  18.866  0.00  0.00    +0.000 A 
ATOM      7  C   UNL     1       5.925   4.589  18.725  0.00  0.00    +0.000 A 
ATOM      8  C   UNL     1       6.528   4.699  17.453  0.00  0.00    +0.000 A 
BRANCH   3  11
ATOM      9  C   UNL     1       6.428   3.738  12.514  0.00  0.00    +0.000 C 
ATOM     10  C   UNL     1       5.831   3.838  13.878  0.00  0.00    +0.000 C 
ATOM     11  C   UNL     1       6.454   4.352  14.958  0.00  0.00    +0.000 C 
ENDBRANCH   3  11
BRANCH   5  12
ATOM     12  O   UNL     1       2.703   3.094  17.764  0.00  0.00    +0.000 OA
ATOM     13  C   UNL     1       1.628   3.904  17.316  0.00  0.00    +0.000 C 
ENDBRANCH   5  12
BRANCH   7  14
ATOM     14  O   UNL     1       6.732   5.076  19.731  0.00  0.00    +0.000 OA
ATOM     15  C   UNL     1       7.865   5.844  19.344  0.00  0.00    +0.000 C 
ENDBRANCH   7  14
ENDBRANCH   2   6
ENDBRANCH   1   2
BRANCH   1  16
ATOM     16  C   UNL     1       2.376   2.527  20.898  0.00  0.00    +0.000 C 
BRANCH  16  17
ATOM     17  O   UNL     1       1.635   2.605  22.116  0.00  0.00    +0.000 OA
ATOM     18  H   UNL     1       1.261   3.504  22.143  0.00  0.00    +0.000 HD
ENDBRANCH  16  17
ENDBRANCH   1  16
BRANCH   1  19
ATOM     19  C   UNL     1       2.164   5.009  21.301  0.00  0.00    +0.000 C 
BRANCH  19  20
ATOM     20  C   UNL     1       1.896   6.334  20.627  0.00  0.00    +0.000 A 
ATOM     21  C   UNL     1       1.108   7.304  21.246  0.00  0.00    +0.000 A 
ATOM     22  C   UNL     1       0.935   8.570  20.682  0.00  0.00    +0.000 A 
ATOM     23  C   UNL     1       1.528   8.868  19.437  0.00  0.00    +0.000 A 
ATOM     24  C   UNL     1       2.289   7.877  18.777  0.00  0.00    +0.000 A 
ATOM     25  C   UNL     1       2.474   6.630  19.393  0.00  0.00    +0.000 A 
BRANCH  22  26
ATOM     26  O   UNL     1       0.198   9.547  21.317  0.00  0.00    +0.000 OA
ATOM     27  C   UNL     1       0.027   9.356  22.723  0.00  0.00    +0.000 C 
ENDBRANCH  22  26
BRANCH  23  28
ATOM     28  O   UNL     1       1.265  10.127  18.940  0.00  0.00    +0.000 OA
ATOM     29  C   UNL     1       0.080  10.283  18.168  0.00  0.00    +0.000 C 
ENDBRANCH  23  28
BRANCH  24  30
ATOM     30  O   UNL     1       2.811   8.162  17.542  0.00  0.00    +0.000 OA
ATOM     31  C   UNL     1       3.957   7.435  17.115  0.00  0.00    +0.000 C 
ENDBRANCH  24  30
ENDBRANCH  19  20
ENDBRANCH   1  19
TORSDOF 12
ENDMDL
MODEL 6
REMARK VINA RESULT:      -6.7      2.343      3.555
REMARK  Name = 
REMARK  18 active torsions:
REMARK  status: ('A' for Active; 'I' for Inactive)
REMARK    1  A    between atoms: C_1  and  C_2
REMARK    2  A    between atoms: C_3  and  C_4
REMARK    3  A    between atoms: C_6  and  O_7
REMARK    4  A    between atoms: O_7  and  C_8
REMARK    5  A    between atoms: C_9  and  O_10
REMARK    6  A    between atoms: O_10  and  C_11
REMARK    7  A    between atoms: C_11  and  C_12
REMARK    8  A    between atoms: C_11  and  C_14
REMARK    9  A    between atoms: C_12  and  O_13
REMARK   10  A    between atoms: C_14  and  C_15
REMARK   11  A    between atoms: C_17  and  O_18
REMARK   12  A    between atoms: O_18  and  C_19
REMARK   13  A    between atoms: C_20  and  O_21
REMARK   14  A    between atoms: O_21  and  C_22
REMARK   15  A    between atoms: C_23  and  O_24
REMARK   16  A    between atoms: O_24  and  C_25
REMARK   17  A    between atoms: C_27  and  O_28
REMARK   18  A    between atoms: O_28  and  C_29
REMARK                            x       y       z     vdW  Elec       q    Type
REMARK                         _______ _______ _______ _____ _____    ______ ____
ROOT
ATOM      1  C   UNL     1       2.523   4.179  20.225  0.00  0.00    +0.000 C 
ENDROOT
BRANCH   1   2
ATOM      2  O   UNL     1       3.906   3.832  20.043  0.00  0.00    +0.000 OA
BRANCH   2   6
ATOM      3  C   UNL     1       5.735   4.231  16.254  0.00  0.00    +0.000 A 
ATOM      4  C   UNL     1       6.364   4.730  17.392  0.00  0.00    +0.000 A 
ATOM      5  C   UNL     1       5.803   4.634  18.658  0.00  0.00    +0.000 A 
ATOM      6  C   UNL     1       4.535   4.024  18.835  0.00  0.00    +0.000 A 
ATOM      7  C   UNL     1       3.861   3.580  17.679  0.00  0.00    +0.000 A 
ATOM      8  C   UNL     1       4.465   3.676  16.406  0.00  0.00    +0.000 A 
BRANCH   3  11
ATOM      9  C   UNL     1       6.561   3.805  12.497  0.00  0.00    +0.000 C 
ATOM     10  C   UNL     1       5.884   3.825  13.827  0.00  0.00    +0.000 C 
ATOM     11  C   UNL     1       6.395   4.378  14.945  0.00  0.00    +0.000 C 
ENDBRANCH   3  11
BRANCH   5  12
ATOM     12  O   UNL     1       6.507   5.091  19.742  0.00  0.00    +0.000 OA
ATOM     13  C   UNL     1       7.796   5.639  19.519  0.00  0.00    +0.000 C 
ENDBRANCH   5  12
BRANCH   7  14
ATOM     14  O   UNL     1       2.621   2.979  17.627  0.00  0.00    +0.000 OA
ATOM     15  C   UNL     1       1.509   3.807  17.310  0.00  0.00    +0.000 C 
ENDBRANCH   7  14
ENDBRANCH   2   6
ENDBRANCH   1   2
BRANCH   1  16
ATOM     16  C   UNL     1       1.783   2.985  20.841  0.00  0.00    +0.000 C 
BRANCH  16  17
ATOM     17  O   UNL     1       1.834   3.025  22.267  0.00  0.00    +0.000 OA
ATOM     18  H   UNL     1       2.376   3.803  22.492  0.00  0.00    +0.000 HD
ENDBRANCH  16  17
ENDBRANCH   1  16
BRANCH   1  19
ATOM     19  C   UNL     1       2.410   5.411  21.136  0.00  0.00    +0.000 C 
BRANCH  19  20
ATOM     20  C   UNL     1       2.145   6.692  20.381  0.00  0.00    +0.000 A 
ATOM     21  C   UNL     1       2.656   6.883  19.098  0.00  0.00    +0.000 A 
ATOM     22  C   UNL     1       2.335   8.018  18.349  0.00  0.00    +0.000 A 
ATOM     23  C   UNL     1       1.515   9.019  18.912  0.00  0.00    +0.000 A 
ATOM     24  C   UNL     1       1.030   8.858  20.229  0.00  0.00    +0.000 A 
ATOM     25  C   UNL     1       1.341   7.687  20.937  0.00  0.00    +0.000 A 
BRANCH  22  26
ATOM     26  O   UNL     1       2.799   8.185  17.061  0.00  0.00    +0.000 OA
ATOM     27  C   UNL     1       3.994   7.466  16.752  0.00  0.00    +0.000 C 
ENDBRANCH  22  26
BRANCH  23  28
ATOM     28  O   UNL     1       1.290  10.120  18.113  0.00  0.00    +0.000 OA
ATOM     29  C   UNL     1       2.106  11.263  18.343  0.00  0.00    +0.000 C 
ENDBRANCH  23  28
BRANCH  24  30
ATOM     30  O   UNL     1       0.282   9.865  20.782  0.00  0.00    +0.000 OA
ATOM     31  C   UNL     1      -0.272   9.653  22.076  0.00  0.00    +0.000 C 
ENDBRANCH  24  30
ENDBRANCH  19  20
ENDBRANCH   1  19
TORSDOF 12
ENDMDL
MODEL 7
REMARK VINA RESULT:      -6.7      1.362      2.701
REMARK  Name = 
REMARK  18 active torsions:
REMARK  status: ('A' for Active; 'I' for Inactive)
REMARK    1  A    between atoms: C_1  and  C_2
REMARK    2  A    between atoms: C_3  and  C_4
REMARK    3  A    between atoms: C_6  and  O_7
REMARK    4  A    between atoms: O_7  and  C_8
REMARK    5  A    between atoms: C_9  and  O_10
REMARK    6  A    between atoms: O_10  and  C_11
REMARK    7  A    between atoms: C_11  and  C_12
REMARK    8  A    between atoms: C_11  and  C_14
REMARK    9  A    between atoms: C_12  and  O_13
REMARK   10  A    between atoms: C_14  and  C_15
REMARK   11  A    between atoms: C_17  and  O_18
REMARK   12  A    between atoms: O_18  and  C_19
REMARK   13  A    between atoms: C_20  and  O_21
REMARK   14  A    between atoms: O_21  and  C_22
REMARK   15  A    between atoms: C_23  and  O_24
REMARK   16  A    between atoms: O_24  and  C_25
REMARK   17  A    between atoms: C_27  and  O_28
REMARK   18  A    between atoms: O_28  and  C_29
REMARK                            x       y       z     vdW  Elec       q    Type
REMARK                         _______ _______ _______ _____ _____    ______ ____
ROOT
ATOM      1  C   UNL     1       2.558   6.959  18.744  0.00  0.00    +0.000 C 
ENDROOT
BRANCH   1   2
ATOM      2  O   UNL     1       3.919   6.498  18.780  0.00  0.00    +0.000 OA
BRANCH   2   6
ATOM      3  C   UNL     1       5.637   4.534  15.456  0.00  0.00    +0.000 A 
ATOM      4  C   UNL     1       4.600   3.933  16.166  0.00  0.00    +0.000 A 
ATOM      5  C   UNL     1       4.007   4.529  17.271  0.00  0.00    +0.000 A 
ATOM      6  C   UNL     1       4.460   5.793  17.731  0.00  0.00    +0.000 A 
ATOM      7  C   UNL     1       5.556   6.374  17.060  0.00  0.00    +0.000 A 
ATOM      8  C   UNL     1       6.127   5.751  15.928  0.00  0.00    +0.000 A 
BRANCH   3  11
ATOM      9  C   UNL     1       5.992   2.872  11.979  0.00  0.00    +0.000 C 
ATOM     10  C   UNL     1       5.538   3.689  13.142  0.00  0.00    +0.000 C 
ATOM     11  C   UNL     1       6.216   3.831  14.298  0.00  0.00    +0.000 C 
ENDBRANCH   3  11
BRANCH   5  12
ATOM     12  O   UNL     1       2.950   3.910  17.884  0.00  0.00    +0.000 OA
ATOM     13  C   UNL     1       3.216   2.769  18.683  0.00  0.00    +0.000 C 
ENDBRANCH   5  12
BRANCH   7  14
ATOM     14  O   UNL     1       6.158   7.579  17.354  0.00  0.00    +0.000 OA
ATOM     15  C   UNL     1       7.570   7.580  17.513  0.00  0.00    +0.000 C 
ENDBRANCH   7  14
ENDBRANCH   2   6
ENDBRANCH   1   2
BRANCH   1  16
ATOM     16  C   UNL     1       1.942   6.815  20.141  0.00  0.00    +0.000 C 
BRANCH  16  17
ATOM     17  O   UNL     1       2.247   5.542  20.712  0.00  0.00    +0.000 OA
ATOM     18  H   UNL     1       3.045   5.227  20.248  0.00  0.00    +0.000 HD
ENDBRANCH  16  17
ENDBRANCH   1  16
BRANCH   1  19
ATOM     19  C   UNL     1       2.516   8.424  18.285  0.00  0.00    +0.000 C 
BRANCH  19  20
ATOM     20  C   UNL     1       1.367   9.205  18.880  0.00  0.00    +0.000 A 
ATOM     21  C   UNL     1       1.358   9.544  20.232  0.00  0.00    +0.000 A 
ATOM     22  C   UNL     1       0.355  10.351  20.773  0.00  0.00    +0.000 A 
ATOM     23  C   UNL     1      -0.703  10.798  19.953  0.00  0.00    +0.000 A 
ATOM     24  C   UNL     1      -0.729  10.421  18.591  0.00  0.00    +0.000 A 
ATOM     25  C   UNL     1       0.317   9.642  18.073  0.00  0.00    +0.000 A 
BRANCH  22  26
ATOM     26  O   UNL     1       0.372  10.730  22.099  0.00  0.00    +0.000 OA
ATOM     27  C   UNL     1       0.043   9.693  23.026  0.00  0.00    +0.000 C 
ENDBRANCH  22  26
BRANCH  23  28
ATOM     28  O   UNL     1      -1.667  11.552  20.586  0.00  0.00    +0.000 OA
ATOM     29  C   UNL     1      -1.615  12.961  20.396  0.00  0.00    +0.000 C 
ENDBRANCH  23  28
BRANCH  24  30
ATOM     30  O   UNL     1      -1.792  10.816  17.820  0.00  0.00    +0.000 OA
ATOM     31  C   UNL     1      -2.169   9.988  16.726  0.00  0.00    +0.000 C 
ENDBRANCH  24  30
ENDBRANCH  19  20
ENDBRANCH   1  19
TORSDOF 12
ENDMDL
MODEL 8
REMARK VINA RESULT:      -6.6      2.100      2.758
REMARK  Name = 
REMARK  18 active torsions:
REMARK  status: ('A' for Active; 'I' for Inactive)
REMARK    1  A    between atoms: C_1  and  C_2
REMARK    2  A    between atoms: C_3  and  C_4
REMARK    3  A    between atoms: C_6  and  O_7
REMARK    4  A    between atoms: O_7  and  C_8
REMARK    5  A    between atoms: C_9  and  O_10
REMARK    6  A    between atoms: O_10  and  C_11
REMARK    7  A    between atoms: C_11  and  C_12
REMARK    8  A    between atoms: C_11  and  C_14
REMARK    9  A    between atoms: C_12  and  O_13
REMARK   10  A    between atoms: C_14  and  C_15
REMARK   11  A    between atoms: C_17  and  O_18
REMARK   12  A    between atoms: O_18  and  C_19
REMARK   13  A    between atoms: C_20  and  O_21
REMARK   14  A    between atoms: O_21  and  C_22
REMARK   15  A    between atoms: C_23  and  O_24
REMARK   16  A    between atoms: O_24  and  C_25
REMARK   17  A    between atoms: C_27  and  O_28
REMARK   18  A    between atoms: O_28  and  C_29
REMARK                            x       y       z     vdW  Elec       q    Type
REMARK                         _______ _______ _______ _____ _____    ______ ____
ROOT
ATOM      1  C   UNL     1       2.391   5.099  19.885  0.00  0.00    +0.000 C 
ENDROOT
BRANCH   1   2
ATOM      2  O   UNL     1       3.568   4.289  19.732  0.00  0.00    +0.000 OA
BRANCH   2   6
ATOM      3  C   UNL     1       5.772   4.253  16.127  0.00  0.00    +0.000 A 
ATOM      4  C   UNL     1       6.337   4.775  17.287  0.00  0.00    +0.000 A 
ATOM      5  C   UNL     1       5.654   4.821  18.496  0.00  0.00    +0.000 A 
ATOM      6  C   UNL     1       4.322   4.338  18.583  0.00  0.00    +0.000 A 
ATOM      7  C   UNL     1       3.720   3.873  17.396  0.00  0.00    +0.000 A 
ATOM      8  C   UNL     1       4.447   3.824  16.185  0.00  0.00    +0.000 A 
BRANCH   3  11
ATOM      9  C   UNL     1       6.775   3.742  12.423  0.00  0.00    +0.000 C 
ATOM     10  C   UNL     1       6.016   3.912  13.697  0.00  0.00    +0.000 C 
ATOM     11  C   UNL     1       6.562   4.247  14.883  0.00  0.00    +0.000 C 
ENDBRANCH   3  11
BRANCH   5  12
ATOM     12  O   UNL     1       6.293   5.290  19.613  0.00  0.00    +0.000 OA
ATOM     13  C   UNL     1       7.637   5.723  19.481  0.00  0.00    +0.000 C 
ENDBRANCH   5  12
BRANCH   7  14
ATOM     14  O   UNL     1       2.439   3.382  17.259  0.00  0.00    +0.000 OA
ATOM     15  C   UNL     1       2.199   2.055  17.711  0.00  0.00    +0.000 C 
ENDBRANCH   7  14
ENDBRANCH   2   6
ENDBRANCH   1   2
BRANCH   1  16
ATOM     16  C   UNL     1       1.288   4.264  20.547  0.00  0.00    +0.000 C 
BRANCH  16  17
ATOM     17  O   UNL     1       1.785   3.568  21.691  0.00  0.00    +0.000 OA
ATOM     18  H   UNL     1       2.233   4.239  22.237  0.00  0.00    +0.000 HD
ENDBRANCH  16  17
ENDBRANCH   1  16
BRANCH   1  19
ATOM     19  C   UNL     1       2.716   6.336  20.737  0.00  0.00    +0.000 C 
BRANCH  19  20
ATOM     20  C   UNL     1       1.811   7.512  20.455  0.00  0.00    +0.000 A 
ATOM     21  C   UNL     1       0.799   7.864  21.347  0.00  0.00    +0.000 A 
ATOM     22  C   UNL     1       0.022   9.008  21.151  0.00  0.00    +0.000 A 
ATOM     23  C   UNL     1       0.225   9.804  20.004  0.00  0.00    +0.000 A 
ATOM     24  C   UNL     1       1.216   9.431  19.069  0.00  0.00    +0.000 A 
ATOM     25  C   UNL     1       2.005   8.297  19.320  0.00  0.00    +0.000 A 
BRANCH  22  26
ATOM     26  O   UNL     1      -0.946   9.385  22.058  0.00  0.00    +0.000 OA
ATOM     27  C   UNL     1      -0.471  10.166  23.157  0.00  0.00    +0.000 C 
ENDBRANCH  22  26
BRANCH  23  28
ATOM     28  O   UNL     1      -0.619  10.887  19.876  0.00  0.00    +0.000 OA
ATOM     29  C   UNL     1      -1.627  10.805  18.875  0.00  0.00    +0.000 C 
ENDBRANCH  23  28
BRANCH  24  30
ATOM     30  O   UNL     1       1.364  10.182  17.932  0.00  0.00    +0.000 OA
ATOM     31  C   UNL     1       2.316  11.240  17.948  0.00  0.00    +0.000 C 
ENDBRANCH  24  30
ENDBRANCH  19  20
ENDBRANCH   1  19
TORSDOF 12
ENDMDL
MODEL 9
REMARK VINA RESULT:      -6.6      2.146      3.339
REMARK  Name = 
REMARK  18 active torsions:
REMARK  status: ('A' for Active; 'I' for Inactive)
REMARK    1  A    between atoms: C_1  and  C_2
REMARK    2  A    between atoms: C_3  and  C_4
REMARK    3  A    between atoms: C_6  and  O_7
REMARK    4  A    between atoms: O_7  and  C_8
REMARK    5  A    between atoms: C_9  and  O_10
REMARK    6  A    between atoms: O_10  and  C_11
REMARK    7  A    between atoms: C_11  and  C_12
REMARK    8  A    between atoms: C_11  and  C_14
REMARK    9  A    between atoms: C_12  and  O_13
REMARK   10  A    between atoms: C_14  and  C_15
REMARK   11  A    between atoms: C_17  and  O_18
REMARK   12  A    between atoms: O_18  and  C_19
REMARK   13  A    between atoms: C_20  and  O_21
REMARK   14  A    between atoms: O_21  and  C_22
REMARK   15  A    between atoms: C_23  and  O_24
REMARK   16  A    between atoms: O_24  and  C_25
REMARK   17  A    between atoms: C_27  and  O_28
REMARK   18  A    between atoms: O_28  and  C_29
REMARK                            x       y       z     vdW  Elec       q    Type
REMARK                         _______ _______ _______ _____ _____    ______ ____
ROOT
ATOM      1  C   UNL     1       2.451   4.103  20.299  0.00  0.00    +0.000 C 
ENDROOT
BRANCH   1   2
ATOM      2  O   UNL     1       3.824   3.763  20.045  0.00  0.00    +0.000 OA
BRANCH   2   6
ATOM      3  C   UNL     1       5.523   4.438  16.235  0.00  0.00    +0.000 A 
ATOM      4  C   UNL     1       6.215   4.807  17.386  0.00  0.00    +0.000 A 
ATOM      5  C   UNL     1       5.699   4.617  18.661  0.00  0.00    +0.000 A 
ATOM      6  C   UNL     1       4.414   4.041  18.834  0.00  0.00    +0.000 A 
ATOM      7  C   UNL     1       3.680   3.730  17.672  0.00  0.00    +0.000 A 
ATOM      8  C   UNL     1       4.238   3.918  16.388  0.00  0.00    +0.000 A 
BRANCH   3  11
ATOM      9  C   UNL     1       6.670   3.921  12.575  0.00  0.00    +0.000 C 
ATOM     10  C   UNL     1       5.969   3.825  13.888  0.00  0.00    +0.000 C 
ATOM     11  C   UNL     1       6.139   4.679  14.919  0.00  0.00    +0.000 C 
ENDBRANCH   3  11
BRANCH   5  12
ATOM     12  O   UNL     1       6.461   4.947  19.751  0.00  0.00    +0.000 OA
ATOM     13  C   UNL     1       7.643   5.701  19.537  0.00  0.00    +0.000 C 
ENDBRANCH   5  12
BRANCH   7  14
ATOM     14  O   UNL     1       2.415   3.183  17.617  0.00  0.00    +0.000 OA
ATOM     15  C   UNL     1       1.335   4.065  17.344  0.00  0.00    +0.000 C 
ENDBRANCH   7  14
ENDBRANCH   2   6
ENDBRANCH   1   2
BRANCH   1  16
ATOM     16  C   UNL     1       1.736   2.889  20.904  0.00  0.00    +0.000 C 
BRANCH  16  17
ATOM     17  O   UNL     1       0.480   2.658  20.265  0.00  0.00    +0.000 OA
ATOM     18  H   UNL     1       0.633   2.809  19.315  0.00  0.00    +0.000 HD
ENDBRANCH  16  17
ENDBRANCH   1  16
BRANCH   1  19
ATOM     19  C   UNL     1       2.380   5.303  21.257  0.00  0.00    +0.000 C 
BRANCH  19  20
ATOM     20  C   UNL     1       1.977   6.589  20.576  0.00  0.00    +0.000 A 
ATOM     21  C   UNL     1       1.123   7.494  21.206  0.00  0.00    +0.000 A 
ATOM     22  C   UNL     1       0.824   8.732  20.633  0.00  0.00    +0.000 A 
ATOM     23  C   UNL     1       1.352   9.064  19.367  0.00  0.00    +0.000 A 
ATOM     24  C   UNL     1       2.180   8.135  18.698  0.00  0.00    +0.000 A 
ATOM     25  C   UNL     1       2.492   6.918  19.322  0.00  0.00    +0.000 A 
BRANCH  22  26
ATOM     26  O   UNL     1       0.020   9.649  21.278  0.00  0.00    +0.000 OA
ATOM     27  C   UNL     1       0.139   9.659  22.702  0.00  0.00    +0.000 C 
ENDBRANCH  22  26
BRANCH  23  28
ATOM     28  O   UNL     1       0.965  10.288  18.865  0.00  0.00    +0.000 OA
ATOM     29  C   UNL     1      -0.247  10.327  18.120  0.00  0.00    +0.000 C 
ENDBRANCH  23  28
BRANCH  24  30
ATOM     30  O   UNL     1       2.640   8.448  17.445  0.00  0.00    +0.000 OA
ATOM     31  C   UNL     1       3.725   7.690  16.921  0.00  0.00    +0.000 C 
ENDBRANCH  24  30
ENDBRANCH  19  20
ENDBRANCH   1  19
TORSDOF 12
ENDMDL
