MODEL 1
REMARK VINA RESULT:      -7.2      0.000      0.000
REMARK  Name = 
REMARK  5 active torsions:
REMARK  status: ('A' for Active; 'I' for Inactive)
REMARK    1  A    between atoms: C_1  and  C_2
REMARK    2  A    between atoms: C_2  and  C_3
REMARK    3  A    between atoms: C_3  and  O_4
REMARK    4  A    between atoms: C_16  and  C_17
REMARK    5  A    between atoms: C_17  and  O_18
REMARK                            x       y       z     vdW  Elec       q    Type
REMARK                         _______ _______ _______ _____ _____    ______ ____
ROOT
ATOM      1  C   UNL     1      -0.656  13.868  20.382  0.00  0.00    +0.000 C 
ATOM      2  C   UNL     1      -2.029  14.237  21.021  0.00  0.00    +0.000 C 
ATOM      3  O   UNL     1      -2.184  15.158  21.814  0.00  0.00    +0.000 OA
ATOM      4  O   UNL     1      -3.096  13.540  20.529  0.00  0.00    +0.000 OA
ATOM      5  C   UNL     1      -2.947  12.213  19.946  0.00  0.00    +0.000 C 
ATOM      6  C   UNL     1      -1.547  11.720  19.865  0.00  0.00    +0.000 A 
ATOM      7  C   UNL     1      -0.540  12.322  20.537  0.00  0.00    +0.000 A 
ATOM      8  C   UNL     1       0.438  11.276  20.994  0.00  0.00    +0.000 A 
ATOM      9  C   UNL     1       0.683  10.249  20.130  0.00  0.00    +0.000 A 
ATOM     10  N   UNL     1       0.274  10.561  18.841  0.00  0.00    +0.000 N 
ATOM     11  C   UNL     1      -0.950  11.155  18.599  0.00  0.00    +0.000 A 
ATOM     12  O   UNL     1      -1.482  11.252  17.501  0.00  0.00    +0.000 OA
ATOM     13  C   UNL     1       1.262  10.057  17.891  0.00  0.00    +0.000 C 
ATOM     14  C   UNL     1       1.704   8.829  18.600  0.00  0.00    +0.000 A 
ATOM     15  C   UNL     1       2.338   7.746  18.043  0.00  0.00    +0.000 A 
ATOM     16  C   UNL     1       2.512   6.626  18.832  0.00  0.00    +0.000 A 
ATOM     17  C   UNL     1       3.182   5.534  18.247  0.00  0.00    +0.000 A 
ATOM     18  C   UNL     1       3.270   4.330  18.919  0.00  0.00    +0.000 A 
ATOM     19  C   UNL     1       2.649   4.221  20.155  0.00  0.00    +0.000 A 
ATOM     20  C   UNL     1       2.023   5.348  20.750  0.00  0.00    +0.000 A 
ATOM     21  C   UNL     1       1.969   6.621  20.145  0.00  0.00    +0.000 A 
ATOM     22  N   UNL     1       1.428   7.780  20.730  0.00  0.00    +0.000 NA
ATOM     23  C   UNL     1       1.365   8.891  19.956  0.00  0.00    +0.000 A 
ENDROOT
BRANCH   1  25
ATOM     24  C   UNL     1       1.777  14.803  20.133  0.00  0.00    +0.000 C 
ATOM     25  C   UNL     1       0.376  14.974  20.704  0.00  0.00    +0.000 C 
ENDBRANCH   1  25
BRANCH   1  26
ATOM     26  O   UNL     1      -0.874  14.106  18.933  0.00  0.00    +0.000 OA
ATOM     27  H   UNL     1      -0.036  13.914  18.464  0.00  0.00    +0.000 HD
ENDBRANCH   1  26
BRANCH  13  28
ATOM     28  C   UNL     1       2.521  10.966  17.841  0.00  0.00    +0.000 C 
BRANCH  28  29
ATOM     29  O   UNL     1       2.253  12.302  17.450  0.00  0.00    +0.000 OA
ATOM     30  H   UNL     1       3.091  12.800  17.471  0.00  0.00    +0.000 HD
ENDBRANCH  28  29
ENDBRANCH  13  28
TORSDOF 4
ENDMDL
MODEL 2
REMARK VINA RESULT:      -7.0      1.064      1.212
REMARK  Name = 
REMARK  5 active torsions:
REMARK  status: ('A' for Active; 'I' for Inactive)
REMARK    1  A    between atoms: C_1  and  C_2
REMARK    2  A    between atoms: C_2  and  C_3
REMARK    3  A    between atoms: C_3  and  O_4
REMARK    4  A    between atoms: C_16  and  C_17
REMARK    5  A    between atoms: C_17  and  O_18
REMARK                            x       y       z     vdW  Elec       q    Type
REMARK                         _______ _______ _______ _____ _____    ______ ____
ROOT
ATOM      1  C   UNL     1      -1.505  14.369  21.358  0.00  0.00    +0.000 C 
ATOM      2  C   UNL     1      -2.917  14.533  21.998  0.00  0.00    +0.000 C 
ATOM      3  O   UNL     1      -3.163  15.313  22.911  0.00  0.00    +0.000 OA
ATOM      4  O   UNL     1      -3.914  13.837  21.376  0.00  0.00    +0.000 OA
ATOM      5  C   UNL     1      -3.646  12.626  20.611  0.00  0.00    +0.000 C 
ATOM      6  C   UNL     1      -2.210  12.258  20.506  0.00  0.00    +0.000 A 
ATOM      7  C   UNL     1      -1.268  12.831  21.290  0.00  0.00    +0.000 A 
ATOM      8  C   UNL     1      -0.219  11.806  21.622  0.00  0.00    +0.000 A 
ATOM      9  C   UNL     1       0.126  10.940  20.627  0.00  0.00    +0.000 A 
ATOM     10  N   UNL     1      -0.280  11.407  19.384  0.00  0.00    +0.000 N 
ATOM     11  C   UNL     1      -1.542  11.934  19.191  0.00  0.00    +0.000 A 
ATOM     12  O   UNL     1      -2.057  12.151  18.102  0.00  0.00    +0.000 OA
ATOM     13  C   UNL     1       0.766  11.125  18.405  0.00  0.00    +0.000 C 
ATOM     14  C   UNL     1       1.291   9.844  18.941  0.00  0.00    +0.000 A 
ATOM     15  C   UNL     1       2.021   8.907  18.254  0.00  0.00    +0.000 A 
ATOM     16  C   UNL     1       2.269   7.700  18.878  0.00  0.00    +0.000 A 
ATOM     17  C   UNL     1       3.037   6.760  18.162  0.00  0.00    +0.000 A 
ATOM     18  C   UNL     1       3.208   5.481  18.655  0.00  0.00    +0.000 A 
ATOM     19  C   UNL     1       2.572   5.143  19.840  0.00  0.00    +0.000 A 
ATOM     20  C   UNL     1       1.844   6.119  20.572  0.00  0.00    +0.000 A 
ATOM     21  C   UNL     1       1.700   7.459  20.157  0.00  0.00    +0.000 A 
ATOM     22  N   UNL     1       1.055   8.474  20.886  0.00  0.00    +0.000 NA
ATOM     23  C   UNL     1       0.919   9.679  20.280  0.00  0.00    +0.000 A 
ENDROOT
BRANCH   1  25
ATOM     24  C   UNL     1       0.377  16.118  20.861  0.00  0.00    +0.000 C 
ATOM     25  C   UNL     1      -0.574  15.491  21.872  0.00  0.00    +0.000 C 
ENDBRANCH   1  25
BRANCH   1  26
ATOM     26  O   UNL     1      -1.712  14.800  19.952  0.00  0.00    +0.000 OA
ATOM     27  H   UNL     1      -2.635  15.112  19.863  0.00  0.00    +0.000 HD
ENDBRANCH   1  26
BRANCH  13  28
ATOM     28  C   UNL     1       1.948  12.126  18.528  0.00  0.00    +0.000 C 
BRANCH  28  29
ATOM     29  O   UNL     1       2.653  12.339  17.317  0.00  0.00    +0.000 OA
ATOM     30  H   UNL     1       2.372  11.660  16.676  0.00  0.00    +0.000 HD
ENDBRANCH  28  29
ENDBRANCH  13  28
TORSDOF 4
ENDMDL
MODEL 3
REMARK VINA RESULT:      -6.8      1.882      3.014
REMARK  Name = 
REMARK  5 active torsions:
REMARK  status: ('A' for Active; 'I' for Inactive)
REMARK    1  A    between atoms: C_1  and  C_2
REMARK    2  A    between atoms: C_2  and  C_3
REMARK    3  A    between atoms: C_3  and  O_4
REMARK    4  A    between atoms: C_16  and  C_17
REMARK    5  A    between atoms: C_17  and  O_18
REMARK                            x       y       z     vdW  Elec       q    Type
REMARK                         _______ _______ _______ _____ _____    ______ ____
ROOT
ATOM      1  C   UNL     1      -2.590  14.926  22.726  0.00  0.00    +0.000 C 
ATOM      2  C   UNL     1      -3.713  14.824  23.803  0.00  0.00    +0.000 C 
ATOM      3  O   UNL     1      -3.790  15.561  24.779  0.00  0.00    +0.000 OA
ATOM      4  O   UNL     1      -4.704  13.928  23.514  0.00  0.00    +0.000 OA
ATOM      5  C   UNL     1      -4.475  12.776  22.654  0.00  0.00    +0.000 C 
ATOM      6  C   UNL     1      -3.112  12.697  22.065  0.00  0.00    +0.000 A 
ATOM      7  C   UNL     1      -2.094  13.464  22.519  0.00  0.00    +0.000 A 
ATOM      8  C   UNL     1      -0.816  12.676  22.442  0.00  0.00    +0.000 A 
ATOM      9  C   UNL     1      -0.659  11.871  21.353  0.00  0.00    +0.000 A 
ATOM     10  N   UNL     1      -1.536  12.217  20.334  0.00  0.00    +0.000 N 
ATOM     11  C   UNL     1      -2.868  12.479  20.591  0.00  0.00    +0.000 A 
ATOM     12  O   UNL     1      -3.747  12.563  19.743  0.00  0.00    +0.000 OA
ATOM     13  C   UNL     1      -0.841  12.124  19.054  0.00  0.00    +0.000 C 
ATOM     14  C   UNL     1       0.071  10.985  19.332  0.00  0.00    +0.000 A 
ATOM     15  C   UNL     1       0.700  10.194  18.403  0.00  0.00    +0.000 A 
ATOM     16  C   UNL     1       1.370   9.076  18.858  0.00  0.00    +0.000 A 
ATOM     17  C   UNL     1       2.025   8.289  17.890  0.00  0.00    +0.000 A 
ATOM     18  C   UNL     1       2.595   7.082  18.243  0.00  0.00    +0.000 A 
ATOM     19  C   UNL     1       2.466   6.654  19.557  0.00  0.00    +0.000 A 
ATOM     20  C   UNL     1       1.847   7.485  20.528  0.00  0.00    +0.000 A 
ATOM     21  C   UNL     1       1.316   8.759  20.242  0.00  0.00    +0.000 A 
ATOM     22  N   UNL     1       0.764   9.644  21.185  0.00  0.00    +0.000 NA
ATOM     23  C   UNL     1       0.204  10.783  20.710  0.00  0.00    +0.000 A 
ENDROOT
BRANCH   1  25
ATOM     24  C   UNL     1      -0.942  16.728  21.785  0.00  0.00    +0.000 C 
ATOM     25  C   UNL     1      -1.778  16.222  22.952  0.00  0.00    +0.000 C 
ENDBRANCH   1  25
BRANCH   1  26
ATOM     26  O   UNL     1      -3.330  15.273  21.487  0.00  0.00    +0.000 OA
ATOM     27  H   UNL     1      -2.814  15.952  21.006  0.00  0.00    +0.000 HD
ENDBRANCH   1  26
BRANCH  13  28
ATOM     28  C   UNL     1       0.097  13.341  18.823  0.00  0.00    +0.000 C 
BRANCH  28  29
ATOM     29  O   UNL     1      -0.587  14.556  18.569  0.00  0.00    +0.000 OA
ATOM     30  H   UNL     1      -0.909  14.909  19.419  0.00  0.00    +0.000 HD
ENDBRANCH  28  29
ENDBRANCH  13  28
TORSDOF 4
ENDMDL
MODEL 4
REMARK VINA RESULT:      -6.6      8.242      9.689
REMARK  Name = 
REMARK  5 active torsions:
REMARK  status: ('A' for Active; 'I' for Inactive)
REMARK    1  A    between atoms: C_1  and  C_2
REMARK    2  A    between atoms: C_2  and  C_3
REMARK    3  A    between atoms: C_3  and  O_4
REMARK    4  A    between atoms: C_16  and  C_17
REMARK    5  A    between atoms: C_17  and  O_18
REMARK                            x       y       z     vdW  Elec       q    Type
REMARK                         _______ _______ _______ _____ _____    ______ ____
ROOT
ATOM      1  C   UNL     1       9.884  15.067  18.416  0.00  0.00    +0.000 C 
ATOM      2  C   UNL     1      10.473  15.931  17.259  0.00  0.00    +0.000 C 
ATOM      3  O   UNL     1      10.120  17.080  17.021  0.00  0.00    +0.000 OA
ATOM      4  O   UNL     1      11.523  15.362  16.597  0.00  0.00    +0.000 OA
ATOM      5  C   UNL     1      11.703  13.918  16.531  0.00  0.00    +0.000 C 
ATOM      6  C   UNL     1      10.703  13.129  17.297  0.00  0.00    +0.000 A 
ATOM      7  C   UNL     1       9.564  13.687  17.769  0.00  0.00    +0.000 A 
ATOM      8  C   UNL     1       8.455  12.675  17.691  0.00  0.00    +0.000 A 
ATOM      9  C   UNL     1       8.782  11.386  17.990  0.00  0.00    +0.000 A 
ATOM     10  N   UNL     1       9.988  11.313  18.675  0.00  0.00    +0.000 N 
ATOM     11  C   UNL     1      11.089  12.042  18.271  0.00  0.00    +0.000 A 
ATOM     12  O   UNL     1      12.234  11.868  18.667  0.00  0.00    +0.000 OA
ATOM     13  C   UNL     1       9.879  10.304  19.726  0.00  0.00    +0.000 C 
ATOM     14  C   UNL     1       8.970   9.333  19.064  0.00  0.00    +0.000 A 
ATOM     15  C   UNL     1       8.802   8.012  19.397  0.00  0.00    +0.000 A 
ATOM     16  C   UNL     1       8.041   7.228  18.553  0.00  0.00    +0.000 A 
ATOM     17  C   UNL     1       7.864   5.880  18.924  0.00  0.00    +0.000 A 
ATOM     18  C   UNL     1       7.239   4.998  18.065  0.00  0.00    +0.000 A 
ATOM     19  C   UNL     1       6.834   5.466  16.824  0.00  0.00    +0.000 A 
ATOM     20  C   UNL     1       6.975   6.838  16.489  0.00  0.00    +0.000 A 
ATOM     21  C   UNL     1       7.535   7.800  17.355  0.00  0.00    +0.000 A 
ATOM     22  N   UNL     1       7.625   9.179  17.095  0.00  0.00    +0.000 NA
ATOM     23  C   UNL     1       8.293   9.936  17.998  0.00  0.00    +0.000 A 
ENDROOT
BRANCH   1  25
ATOM     24  C   UNL     1       7.508  15.943  19.078  0.00  0.00    +0.000 C 
ATOM     25  C   UNL     1       9.010  15.958  19.329  0.00  0.00    +0.000 C 
ENDBRANCH   1  25
BRANCH   1  26
ATOM     26  O   UNL     1      11.054  14.829  19.299  0.00  0.00    +0.000 OA
ATOM     27  H   UNL     1      11.027  15.487  20.022  0.00  0.00    +0.000 HD
ENDBRANCH   1  26
BRANCH  13  28
ATOM     28  C   UNL     1       9.078  10.835  20.946  0.00  0.00    +0.000 C 
BRANCH  28  29
ATOM     29  O   UNL     1       9.765  11.815  21.705  0.00  0.00    +0.000 OA
ATOM     30  H   UNL     1       9.674  11.591  22.649  0.00  0.00    +0.000 HD
ENDBRANCH  28  29
ENDBRANCH  13  28
TORSDOF 4
ENDMDL
MODEL 5
REMARK VINA RESULT:      -6.4      8.354      9.901
REMARK  Name = 
REMARK  5 active torsions:
REMARK  status: ('A' for Active; 'I' for Inactive)
REMARK    1  A    between atoms: C_1  and  C_2
REMARK    2  A    between atoms: C_2  and  C_3
REMARK    3  A    between atoms: C_3  and  O_4
REMARK    4  A    between atoms: C_16  and  C_17
REMARK    5  A    between atoms: C_17  and  O_18
REMARK                            x       y       z     vdW  Elec       q    Type
REMARK                         _______ _______ _______ _____ _____    ______ ____
ROOT
ATOM      1  C   UNL     1       6.969  12.571  26.700  0.00  0.00    +0.000 C 
ATOM      2  C   UNL     1       6.284  11.333  27.357  0.00  0.00    +0.000 C 
ATOM      3  O   UNL     1       6.486  10.977  28.512  0.00  0.00    +0.000 OA
ATOM      4  O   UNL     1       5.322  10.737  26.591  0.00  0.00    +0.000 OA
ATOM      5  C   UNL     1       5.332  10.822  25.137  0.00  0.00    +0.000 C 
ATOM      6  C   UNL     1       6.419  11.661  24.568  0.00  0.00    +0.000 A 
ATOM      7  C   UNL     1       7.471  12.067  25.314  0.00  0.00    +0.000 A 
ATOM      8  C   UNL     1       8.702  12.090  24.453  0.00  0.00    +0.000 A 
ATOM      9  C   UNL     1       8.543  12.522  23.169  0.00  0.00    +0.000 A 
ATOM     10  N   UNL     1       7.351  13.216  23.011  0.00  0.00    +0.000 N 
ATOM     11  C   UNL     1       6.167  12.743  23.545  0.00  0.00    +0.000 A 
ATOM     12  O   UNL     1       5.051  13.160  23.265  0.00  0.00    +0.000 OA
ATOM     13  C   UNL     1       7.580  14.364  22.138  0.00  0.00    +0.000 C 
ATOM     14  C   UNL     1       8.612  13.802  21.231  0.00  0.00    +0.000 A 
ATOM     15  C   UNL     1       8.948  14.269  19.984  0.00  0.00    +0.000 A 
ATOM     16  C   UNL     1       9.812  13.507  19.223  0.00  0.00    +0.000 A 
ATOM     17  C   UNL     1      10.158  14.014  17.955  0.00  0.00    +0.000 A 
ATOM     18  C   UNL     1      10.901  13.249  17.078  0.00  0.00    +0.000 A 
ATOM     19  C   UNL     1      11.253  11.963  17.464  0.00  0.00    +0.000 A 
ATOM     20  C   UNL     1      10.939  11.489  18.765  0.00  0.00    +0.000 A 
ATOM     21  C   UNL     1      10.250  12.254  19.730  0.00  0.00    +0.000 A 
ATOM     22  N   UNL     1       9.985  11.854  21.051  0.00  0.00    +0.000 NA
ATOM     23  C   UNL     1       9.216  12.677  21.804  0.00  0.00    +0.000 A 
ENDROOT
BRANCH   1  25
ATOM     24  C   UNL     1       8.742  14.397  27.308  0.00  0.00    +0.000 C 
ATOM     25  C   UNL     1       7.712  13.383  27.786  0.00  0.00    +0.000 C 
ENDBRANCH   1  25
BRANCH   1  26
ATOM     26  O   UNL     1       5.831  13.478  26.404  0.00  0.00    +0.000 OA
ATOM     27  H   UNL     1       5.949  14.294  26.932  0.00  0.00    +0.000 HD
ENDBRANCH   1  26
BRANCH  13  28
ATOM     28  C   UNL     1       8.293  15.520  22.891  0.00  0.00    +0.000 C 
BRANCH  28  29
ATOM     29  O   UNL     1       7.752  15.796  24.172  0.00  0.00    +0.000 OA
ATOM     30  H   UNL     1       7.992  16.709  24.414  0.00  0.00    +0.000 HD
ENDBRANCH  28  29
ENDBRANCH  13  28
TORSDOF 4
ENDMDL
MODEL 6
REMARK VINA RESULT:      -6.3      2.360      4.213
REMARK  Name = 
REMARK  5 active torsions:
REMARK  status: ('A' for Active; 'I' for Inactive)
REMARK    1  A    between atoms: C_1  and  C_2
REMARK    2  A    between atoms: C_2  and  C_3
REMARK    3  A    between atoms: C_3  and  O_4
REMARK    4  A    between atoms: C_16  and  C_17
REMARK    5  A    between atoms: C_17  and  O_18
REMARK                            x       y       z     vdW  Elec       q    Type
REMARK                         _______ _______ _______ _____ _____    ______ ____
ROOT
ATOM      1  C   UNL     1       0.964  16.070  18.813  0.00  0.00    +0.000 C 
ATOM      2  C   UNL     1       2.048  17.063  18.293  0.00  0.00    +0.000 C 
ATOM      3  O   UNL     1       1.815  17.975  17.508  0.00  0.00    +0.000 OA
ATOM      4  O   UNL     1       3.274  16.933  18.882  0.00  0.00    +0.000 OA
ATOM      5  C   UNL     1       3.721  15.674  19.462  0.00  0.00    +0.000 C 
ATOM      6  C   UNL     1       2.718  14.577  19.424  0.00  0.00    +0.000 A 
ATOM      7  C   UNL     1       1.603  14.658  18.662  0.00  0.00    +0.000 A 
ATOM      8  C   UNL     1       1.275  13.290  18.131  0.00  0.00    +0.000 A 
ATOM      9  C   UNL     1       1.473  12.241  18.980  0.00  0.00    +0.000 A 
ATOM     10  N   UNL     1       1.581  12.666  20.297  0.00  0.00    +0.000 N 
ATOM     11  C   UNL     1       2.357  13.756  20.639  0.00  0.00    +0.000 A 
ATOM     12  O   UNL     1       2.689  14.056  21.778  0.00  0.00    +0.000 OA
ATOM     13  C   UNL     1       0.873  11.725  21.161  0.00  0.00    +0.000 C 
ATOM     14  C   UNL     1       1.121  10.458  20.428  0.00  0.00    +0.000 A 
ATOM     15  C   UNL     1       1.029   9.186  20.937  0.00  0.00    +0.000 A 
ATOM     16  C   UNL     1       1.468   8.143  20.145  0.00  0.00    +0.000 A 
ATOM     17  C   UNL     1       1.347   6.845  20.680  0.00  0.00    +0.000 A 
ATOM     18  C   UNL     1       1.890   5.764  20.013  0.00  0.00    +0.000 A 
ATOM     19  C   UNL     1       2.588   6.001  18.838  0.00  0.00    +0.000 A 
ATOM     20  C   UNL     1       2.655   7.309  18.289  0.00  0.00    +0.000 A 
ATOM     21  C   UNL     1       2.054   8.437  18.885  0.00  0.00    +0.000 A 
ATOM     22  N   UNL     1       2.031   9.733  18.340  0.00  0.00    +0.000 NA
ATOM     23  C   UNL     1       1.500  10.716  19.106  0.00  0.00    +0.000 A 
ENDROOT
BRANCH   1  25
ATOM     24  C   UNL     1      -1.207  17.407  19.405  0.00  0.00    +0.000 C 
ATOM     25  C   UNL     1      -0.437  16.572  18.392  0.00  0.00    +0.000 C 
ENDBRANCH   1  25
BRANCH   1  26
ATOM     26  O   UNL     1       0.927  16.335  20.273  0.00  0.00    +0.000 OA
ATOM     27  H   UNL     1       1.686  15.874  20.685  0.00  0.00    +0.000 HD
ENDBRANCH   1  26
BRANCH  13  28
ATOM     28  C   UNL     1      -0.664  11.933  21.093  0.00  0.00    +0.000 C 
BRANCH  28  29
ATOM     29  O   UNL     1      -1.060  13.292  21.005  0.00  0.00    +0.000 OA
ATOM     30  H   UNL     1      -1.111  13.654  21.909  0.00  0.00    +0.000 HD
ENDBRANCH  28  29
ENDBRANCH  13  28
TORSDOF 4
ENDMDL
MODEL 7
REMARK VINA RESULT:      -6.2      3.872      7.526
REMARK  Name = 
REMARK  5 active torsions:
REMARK  status: ('A' for Active; 'I' for Inactive)
REMARK    1  A    between atoms: C_1  and  C_2
REMARK    2  A    between atoms: C_2  and  C_3
REMARK    3  A    between atoms: C_3  and  O_4
REMARK    4  A    between atoms: C_16  and  C_17
REMARK    5  A    between atoms: C_17  and  O_18
REMARK                            x       y       z     vdW  Elec       q    Type
REMARK                         _______ _______ _______ _____ _____    ______ ____
ROOT
ATOM      1  C   UNL     1       1.866  14.305  19.919  0.00  0.00    +0.000 C 
ATOM      2  C   UNL     1       2.545  13.686  18.660  0.00  0.00    +0.000 C 
ATOM      3  O   UNL     1       3.223  14.329  17.867  0.00  0.00    +0.000 OA
ATOM      4  O   UNL     1       2.446  12.327  18.565  0.00  0.00    +0.000 OA
ATOM      5  C   UNL     1       1.355  11.588  19.187  0.00  0.00    +0.000 C 
ATOM      6  C   UNL     1       0.413  12.418  19.983  0.00  0.00    +0.000 A 
ATOM      7  C   UNL     1       0.404  13.768  19.897  0.00  0.00    +0.000 A 
ATOM      8  C   UNL     1      -1.011  14.258  20.034  0.00  0.00    +0.000 A 
ATOM      9  C   UNL     1      -1.798  13.606  20.937  0.00  0.00    +0.000 A 
ATOM     10  N   UNL     1      -1.039  12.860  21.829  0.00  0.00    +0.000 N 
ATOM     11  C   UNL     1       0.008  12.070  21.396  0.00  0.00    +0.000 A 
ATOM     12  O   UNL     1       0.573  11.218  22.068  0.00  0.00    +0.000 OA
ATOM     13  C   UNL     1      -1.616  12.983  23.165  0.00  0.00    +0.000 C 
ATOM     14  C   UNL     1      -3.057  13.086  22.820  0.00  0.00    +0.000 A 
ATOM     15  C   UNL     1      -4.117  12.845  23.658  0.00  0.00    +0.000 A 
ATOM     16  C   UNL     1      -5.383  12.825  23.104  0.00  0.00    +0.000 A 
ATOM     17  C   UNL     1      -6.458  12.595  23.984  0.00  0.00    +0.000 A 
ATOM     18  C   UNL     1      -7.736  12.418  23.491  0.00  0.00    +0.000 A 
ATOM     19  C   UNL     1      -7.917  12.431  22.115  0.00  0.00    +0.000 A 
ATOM     20  C   UNL     1      -6.829  12.714  21.248  0.00  0.00    +0.000 A 
ATOM     21  C   UNL     1      -5.519  12.978  21.698  0.00  0.00    +0.000 A 
ATOM     22  N   UNL     1      -4.432  13.337  20.881  0.00  0.00    +0.000 NA
ATOM     23  C   UNL     1      -3.220  13.447  21.478  0.00  0.00    +0.000 A 
ENDROOT
BRANCH   1  25
ATOM     24  C   UNL     1       1.538  16.878  19.562  0.00  0.00    +0.000 C 
ATOM     25  C   UNL     1       2.386  15.747  20.128  0.00  0.00    +0.000 C 
ENDBRANCH   1  25
BRANCH   1  26
ATOM     26  O   UNL     1       2.529  13.605  21.048  0.00  0.00    +0.000 OA
ATOM     27  H   UNL     1       3.136  14.237  21.483  0.00  0.00    +0.000 HD
ENDBRANCH   1  26
BRANCH  13  28
ATOM     28  C   UNL     1      -1.261  14.348  23.816  0.00  0.00    +0.000 C 
BRANCH  28  29
ATOM     29  O   UNL     1      -0.026  14.891  23.382  0.00  0.00    +0.000 OA
ATOM     30  H   UNL     1       0.324  15.460  24.093  0.00  0.00    +0.000 HD
ENDBRANCH  28  29
ENDBRANCH  13  28
TORSDOF 4
ENDMDL
MODEL 8
REMARK VINA RESULT:      -6.1      2.443      3.928
REMARK  Name = 
REMARK  5 active torsions:
REMARK  status: ('A' for Active; 'I' for Inactive)
REMARK    1  A    between atoms: C_1  and  C_2
REMARK    2  A    between atoms: C_2  and  C_3
REMARK    3  A    between atoms: C_3  and  O_4
REMARK    4  A    between atoms: C_16  and  C_17
REMARK    5  A    between atoms: C_17  and  O_18
REMARK                            x       y       z     vdW  Elec       q    Type
REMARK                         _______ _______ _______ _____ _____    ______ ____
ROOT
ATOM      1  C   UNL     1      -4.389  15.047  22.444  0.00  0.00    +0.000 C 
ATOM      2  C   UNL     1      -5.680  14.828  23.291  0.00  0.00    +0.000 C 
ATOM      3  O   UNL     1      -6.008  15.544  24.229  0.00  0.00    +0.000 OA
ATOM      4  O   UNL     1      -6.510  13.847  22.826  0.00  0.00    +0.000 OA
ATOM      5  C   UNL     1      -6.015  12.731  22.032  0.00  0.00    +0.000 C 
ATOM      6  C   UNL     1      -4.564  12.787  21.711  0.00  0.00    +0.000 A 
ATOM      7  C   UNL     1      -3.727  13.641  22.344  0.00  0.00    +0.000 A 
ATOM      8  C   UNL     1      -2.390  12.977  22.515  0.00  0.00    +0.000 A 
ATOM      9  C   UNL     1      -1.954  12.203  21.480  0.00  0.00    +0.000 A 
ATOM     10  N   UNL     1      -2.653  12.476  20.312  0.00  0.00    +0.000 N 
ATOM     11  C   UNL     1      -4.028  12.609  20.311  0.00  0.00    +0.000 A 
ATOM     12  O   UNL     1      -4.735  12.620  19.312  0.00  0.00    +0.000 OA
ATOM     13  C   UNL     1      -1.723  12.464  19.186  0.00  0.00    +0.000 C 
ATOM     14  C   UNL     1      -0.777  11.412  19.639  0.00  0.00    +0.000 A 
ATOM     15  C   UNL     1       0.087  10.695  18.850  0.00  0.00    +0.000 A 
ATOM     16  C   UNL     1       0.763   9.639  19.431  0.00  0.00    +0.000 A 
ATOM     17  C   UNL     1       1.659   8.928  18.609  0.00  0.00    +0.000 A 
ATOM     18  C   UNL     1       2.264   7.776  19.072  0.00  0.00    +0.000 A 
ATOM     19  C   UNL     1       1.931   7.323  20.340  0.00  0.00    +0.000 A 
ATOM     20  C   UNL     1       1.065   8.081  21.172  0.00  0.00    +0.000 A 
ATOM     21  C   UNL     1       0.479   9.303  20.782  0.00  0.00    +0.000 A 
ATOM     22  N   UNL     1      -0.322  10.122  21.598  0.00  0.00    +0.000 NA
ATOM     23  C   UNL     1      -0.887  11.208  21.019  0.00  0.00    +0.000 A 
ENDROOT
BRANCH   1  25
ATOM     24  C   UNL     1      -3.005  17.144  21.709  0.00  0.00    +0.000 C 
ATOM     25  C   UNL     1      -3.760  16.412  22.810  0.00  0.00    +0.000 C 
ENDBRANCH   1  25
BRANCH   1  26
ATOM     26  O   UNL     1      -4.912  15.338  21.086  0.00  0.00    +0.000 OA
ATOM     27  H   UNL     1      -5.018  14.487  20.613  0.00  0.00    +0.000 HD
ENDBRANCH   1  26
BRANCH  13  28
ATOM     28  C   UNL     1      -0.878  13.766  19.129  0.00  0.00    +0.000 C 
BRANCH  28  29
ATOM     29  O   UNL     1      -0.499  14.151  17.818  0.00  0.00    +0.000 OA
ATOM     30  H   UNL     1      -0.114  13.374  17.371  0.00  0.00    +0.000 HD
ENDBRANCH  28  29
ENDBRANCH  13  28
TORSDOF 4
ENDMDL
MODEL 9
REMARK VINA RESULT:      -6.0      2.313      3.908
REMARK  Name = 
REMARK  5 active torsions:
REMARK  status: ('A' for Active; 'I' for Inactive)
REMARK    1  A    between atoms: C_1  and  C_2
REMARK    2  A    between atoms: C_2  and  C_3
REMARK    3  A    between atoms: C_3  and  O_4
REMARK    4  A    between atoms: C_16  and  C_17
REMARK    5  A    between atoms: C_17  and  O_18
REMARK                            x       y       z     vdW  Elec       q    Type
REMARK                         _______ _______ _______ _____ _____    ______ ____
ROOT
ATOM      1  C   UNL     1       0.027  15.708  19.551  0.00  0.00    +0.000 C 
ATOM      2  C   UNL     1       0.814  16.844  18.828  0.00  0.00    +0.000 C 
ATOM      3  O   UNL     1       0.278  17.757  18.212  0.00  0.00    +0.000 OA
ATOM      4  O   UNL     1       2.164  16.831  19.042  0.00  0.00    +0.000 OA
ATOM      5  C   UNL     1       2.880  15.607  19.375  0.00  0.00    +0.000 C 
ATOM      6  C   UNL     1       2.021  14.404  19.534  0.00  0.00    +0.000 A 
ATOM      7  C   UNL     1       0.734  14.388  19.120  0.00  0.00    +0.000 A 
ATOM      8  C   UNL     1       0.405  13.018  18.597  0.00  0.00    +0.000 A 
ATOM      9  C   UNL     1       0.940  11.961  19.274  0.00  0.00    +0.000 A 
ATOM     10  N   UNL     1       1.376  12.334  20.538  0.00  0.00    +0.000 N 
ATOM     11  C   UNL     1       2.104  13.491  20.734  0.00  0.00    +0.000 A 
ATOM     12  O   UNL     1       2.715  13.775  21.755  0.00  0.00    +0.000 OA
ATOM     13  C   UNL     1       1.040  11.278  21.489  0.00  0.00    +0.000 C 
ATOM     14  C   UNL     1       1.193  10.084  20.620  0.00  0.00    +0.000 A 
ATOM     15  C   UNL     1       1.377   8.788  21.035  0.00  0.00    +0.000 A 
ATOM     16  C   UNL     1       1.673   7.841  20.075  0.00  0.00    +0.000 A 
ATOM     17  C   UNL     1       1.839   6.515  20.520  0.00  0.00    +0.000 A 
ATOM     18  C   UNL     1       2.275   5.537  19.648  0.00  0.00    +0.000 A 
ATOM     19  C   UNL     1       2.582   5.907  18.346  0.00  0.00    +0.000 A 
ATOM     20  C   UNL     1       2.360   7.238  17.903  0.00  0.00    +0.000 A 
ATOM     21  C   UNL     1       1.844   8.260  18.728  0.00  0.00    +0.000 A 
ATOM     22  N   UNL     1       1.538   9.568  18.312  0.00  0.00    +0.000 NA
ATOM     23  C   UNL     1       1.153  10.446  19.269  0.00  0.00    +0.000 A 
ENDROOT
BRANCH   1  25
ATOM     24  C   UNL     1      -2.301  15.506  20.730  0.00  0.00    +0.000 C 
ATOM     25  C   UNL     1      -1.478  16.061  19.576  0.00  0.00    +0.000 C 
ENDBRANCH   1  25
BRANCH   1  26
ATOM     26  O   UNL     1       0.381  15.899  20.980  0.00  0.00    +0.000 OA
ATOM     27  H   UNL     1       1.134  15.309  21.188  0.00  0.00    +0.000 HD
ENDBRANCH   1  26
BRANCH  13  28
ATOM     28  C   UNL     1      -0.466  11.308  21.867  0.00  0.00    +0.000 C 
BRANCH  28  29
ATOM     29  O   UNL     1      -0.719  11.099  23.246  0.00  0.00    +0.000 OA
ATOM     30  H   UNL     1      -0.242  10.296  23.526  0.00  0.00    +0.000 HD
ENDBRANCH  28  29
ENDBRANCH  13  28
TORSDOF 4
ENDMDL
