MODEL 1
REMARK VINA RESULT:      -9.5      0.000      0.000
REMARK  Name = 
REMARK  8 active torsions:
REMARK  status: ('A' for Active; 'I' for Inactive)
REMARK    1  A    between atoms: C_2  and  O_29
REMARK    2  A    between atoms: N_3  and  C_4
REMARK    3  A    between atoms: C_8  and  C_9
REMARK    4  A    between atoms: C_9  and  C_11
REMARK    5  A    between atoms: C_15  and  C_16
REMARK    6  A    between atoms: C_17  and  C_18
REMARK    7  A    between atoms: O_29  and  C_30
REMARK    8  A    between atoms: C_30  and  C_31
REMARK                            x       y       z     vdW  Elec       q    Type
REMARK                         _______ _______ _______ _____ _____    ______ ____
ROOT
ATOM      1  C   UNL     1       2.626   5.696  18.162  0.00  0.00    +0.000 C 
ATOM      2  O   UNL     1       1.852   4.740  18.175  0.00  0.00    +0.000 OA
ENDROOT
BRANCH   1   3
ATOM      3  C   UNL     1       2.204   6.950  18.835  0.00  0.00    +0.000 A 
ATOM      4  C   UNL     1       1.933   8.051  18.014  0.00  0.00    +0.000 A 
ATOM      5  C   UNL     1       1.473   9.257  18.551  0.00  0.00    +0.000 A 
ATOM      6  C   UNL     1       1.289   9.354  19.943  0.00  0.00    +0.000 A 
ATOM      7  C   UNL     1       0.759  10.328  20.840  0.00  0.00    +0.000 A 
ATOM      8  N   UNL     1       0.849   9.908  22.112  0.00  0.00    +0.000 NA
ATOM      9  N   UNL     1       1.385   8.684  22.023  0.00  0.00    +0.000 N 
ATOM     10  C   UNL     1       1.633   8.269  20.743  0.00  0.00    +0.000 A 
ATOM     11  C   UNL     1       2.109   7.054  20.232  0.00  0.00    +0.000 A 
ATOM     12  H   UNL     1       1.519   8.161  22.881  0.00  0.00    +0.000 HD
BRANCH   7  13
ATOM     13  C   UNL     1       0.105  11.544  20.437  0.00  0.00    +0.000 C 
ATOM     14  C   UNL     1       0.740  12.722  20.308  0.00  0.00    +0.000 C 
BRANCH  14  15
ATOM     15  C   UNL     1       0.120  14.042  20.129  0.00  0.00    +0.000 A 
ATOM     16  C   UNL     1       0.190  14.609  18.846  0.00  0.00    +0.000 A 
ATOM     17  C   UNL     1      -0.325  15.880  18.587  0.00  0.00    +0.000 A 
ATOM     18  C   UNL     1      -0.929  16.602  19.610  0.00  0.00    +0.000 A 
ATOM     19  C   UNL     1      -1.027  16.049  20.885  0.00  0.00    +0.000 A 
ATOM     20  C   UNL     1      -0.509  14.772  21.146  0.00  0.00    +0.000 A 
ENDBRANCH  14  15
ENDBRANCH   7  13
ENDBRANCH   1   3
BRANCH   1  25
ATOM     21  C   UNL     1       6.129   6.350  16.786  0.00  0.00    +0.000 A 
ATOM     22  C   UNL     1       6.322   5.148  16.095  0.00  0.00    +0.000 A 
ATOM     23  C   UNL     1       5.351   4.149  16.104  0.00  0.00    +0.000 A 
ATOM     24  C   UNL     1       4.158   4.351  16.786  0.00  0.00    +0.000 A 
ATOM     25  C   UNL     1       3.939   5.549  17.477  0.00  0.00    +0.000 A 
ATOM     26  C   UNL     1       4.948   6.527  17.521  0.00  0.00    +0.000 A 
BRANCH  21  29
ATOM     27  O   UNL     1       8.156   7.030  18.816  0.00  0.00    +0.000 OA
ATOM     28  C   UNL     1       7.974   7.674  17.791  0.00  0.00    +0.000 C 
ATOM     29  N   UNL     1       7.089   7.385  16.782  0.00  0.00    +0.000 N 
ATOM     30  H   UNL     1       7.194   7.956  15.955  0.00  0.00    +0.000 HD
BRANCH  28  31
ATOM     31  O   UNL     1       8.647   8.817  17.491  0.00  0.00    +0.000 OA
BRANCH  31  32
ATOM     32  C   UNL     1       8.229   9.971  18.237  0.00  0.00    +0.000 C 
BRANCH  32  33
ATOM     33  C   UNL     1       9.419  10.729  18.765  0.00  0.00    +0.000 A 
ATOM     34  C   UNL     1      10.441  11.139  17.897  0.00  0.00    +0.000 A 
ATOM     35  C   UNL     1      11.544  11.841  18.383  0.00  0.00    +0.000 A 
ATOM     36  C   UNL     1      11.641  12.137  19.742  0.00  0.00    +0.000 A 
ATOM     37  C   UNL     1      10.632  11.733  20.615  0.00  0.00    +0.000 A 
ATOM     38  C   UNL     1       9.527  11.030  20.130  0.00  0.00    +0.000 A 
ENDBRANCH  32  33
ENDBRANCH  31  32
ENDBRANCH  28  31
ENDBRANCH  21  29
ENDBRANCH   1  25
TORSDOF 8
ENDMDL
MODEL 2
REMARK VINA RESULT:      -9.4      6.137     11.644
REMARK  Name = 
REMARK  8 active torsions:
REMARK  status: ('A' for Active; 'I' for Inactive)
REMARK    1  A    between atoms: C_2  and  O_29
REMARK    2  A    between atoms: N_3  and  C_4
REMARK    3  A    between atoms: C_8  and  C_9
REMARK    4  A    between atoms: C_9  and  C_11
REMARK    5  A    between atoms: C_15  and  C_16
REMARK    6  A    between atoms: C_17  and  C_18
REMARK    7  A    between atoms: O_29  and  C_30
REMARK    8  A    between atoms: C_30  and  C_31
REMARK                            x       y       z     vdW  Elec       q    Type
REMARK                         _______ _______ _______ _____ _____    ______ ____
ROOT
ATOM      1  C   UNL     1      -1.683  12.772  23.090  0.00  0.00    +0.000 C 
ATOM      2  O   UNL     1      -1.116  13.564  23.842  0.00  0.00    +0.000 OA
ENDROOT
BRANCH   1   3
ATOM      3  C   UNL     1      -0.878  11.686  22.478  0.00  0.00    +0.000 A 
ATOM      4  C   UNL     1      -0.804  10.477  23.181  0.00  0.00    +0.000 A 
ATOM      5  C   UNL     1      -0.118   9.378  22.657  0.00  0.00    +0.000 A 
ATOM      6  C   UNL     1       0.509   9.503  21.404  0.00  0.00    +0.000 A 
ATOM      7  C   UNL     1       1.192   8.627  20.508  0.00  0.00    +0.000 A 
ATOM      8  N   UNL     1       1.629   9.292  19.426  0.00  0.00    +0.000 NA
ATOM      9  N   UNL     1       1.201  10.548  19.611  0.00  0.00    +0.000 N 
ATOM     10  C   UNL     1       0.482  10.736  20.758  0.00  0.00    +0.000 A 
ATOM     11  C   UNL     1      -0.187  11.857  21.268  0.00  0.00    +0.000 A 
ATOM     12  H   UNL     1       1.401  11.228  18.886  0.00  0.00    +0.000 HD
BRANCH   7  13
ATOM     13  C   UNL     1       1.296   7.203  20.675  0.00  0.00    +0.000 C 
ATOM     14  C   UNL     1       2.010   6.408  19.859  0.00  0.00    +0.000 C 
BRANCH  14  15
ATOM     15  C   UNL     1       1.987   4.939  19.816  0.00  0.00    +0.000 A 
ATOM     16  C   UNL     1       2.671   4.324  18.756  0.00  0.00    +0.000 A 
ATOM     17  C   UNL     1       2.666   2.937  18.599  0.00  0.00    +0.000 A 
ATOM     18  C   UNL     1       1.981   2.141  19.511  0.00  0.00    +0.000 A 
ATOM     19  C   UNL     1       1.313   2.733  20.581  0.00  0.00    +0.000 A 
ATOM     20  C   UNL     1       1.317   4.125  20.738  0.00  0.00    +0.000 A 
ENDBRANCH  14  15
ENDBRANCH   7  13
ENDBRANCH   1   3
BRANCH   1  25
ATOM     21  C   UNL     1      -5.119  12.860  21.423  0.00  0.00    +0.000 A 
ATOM     22  C   UNL     1      -5.868  13.372  22.489  0.00  0.00    +0.000 A 
ATOM     23  C   UNL     1      -5.273  13.650  23.719  0.00  0.00    +0.000 A 
ATOM     24  C   UNL     1      -3.910  13.445  23.889  0.00  0.00    +0.000 A 
ATOM     25  C   UNL     1      -3.139  12.942  22.834  0.00  0.00    +0.000 A 
ATOM     26  C   UNL     1      -3.755  12.599  21.617  0.00  0.00    +0.000 A 
BRANCH  21  29
ATOM     27  O   UNL     1      -6.763  10.563  20.581  0.00  0.00    +0.000 OA
ATOM     28  C   UNL     1      -6.409  11.462  19.828  0.00  0.00    +0.000 C 
ATOM     29  N   UNL     1      -5.692  12.583  20.163  0.00  0.00    +0.000 N 
ATOM     30  H   UNL     1      -5.629  13.275  19.430  0.00  0.00    +0.000 HD
BRANCH  28  31
ATOM     31  O   UNL     1      -6.685  11.479  18.497  0.00  0.00    +0.000 OA
BRANCH  31  32
ATOM     32  C   UNL     1      -5.767  12.252  17.706  0.00  0.00    +0.000 C 
BRANCH  32  33
ATOM     33  C   UNL     1      -4.642  11.389  17.195  0.00  0.00    +0.000 A 
ATOM     34  C   UNL     1      -3.950  10.537  18.067  0.00  0.00    +0.000 A 
ATOM     35  C   UNL     1      -2.909   9.737  17.597  0.00  0.00    +0.000 A 
ATOM     36  C   UNL     1      -2.544   9.783  16.252  0.00  0.00    +0.000 A 
ATOM     37  C   UNL     1      -3.224  10.627  15.376  0.00  0.00    +0.000 A 
ATOM     38  C   UNL     1      -4.267  11.429  15.845  0.00  0.00    +0.000 A 
ENDBRANCH  32  33
ENDBRANCH  31  32
ENDBRANCH  28  31
ENDBRANCH  21  29
ENDBRANCH   1  25
TORSDOF 8
ENDMDL
MODEL 3
REMARK VINA RESULT:      -9.2      1.242      1.599
REMARK  Name = 
REMARK  8 active torsions:
REMARK  status: ('A' for Active; 'I' for Inactive)
REMARK    1  A    between atoms: C_2  and  O_29
REMARK    2  A    between atoms: N_3  and  C_4
REMARK    3  A    between atoms: C_8  and  C_9
REMARK    4  A    between atoms: C_9  and  C_11
REMARK    5  A    between atoms: C_15  and  C_16
REMARK    6  A    between atoms: C_17  and  C_18
REMARK    7  A    between atoms: O_29  and  C_30
REMARK    8  A    between atoms: C_30  and  C_31
REMARK                            x       y       z     vdW  Elec       q    Type
REMARK                         _______ _______ _______ _____ _____    ______ ____
ROOT
ATOM      1  C   UNL     1       2.645   5.855  17.969  0.00  0.00    +0.000 C 
ATOM      2  O   UNL     1       1.880   4.900  17.840  0.00  0.00    +0.000 OA
ENDROOT
BRANCH   1   3
ATOM      3  C   UNL     1       2.160   7.047  18.709  0.00  0.00    +0.000 A 
ATOM      4  C   UNL     1       1.738   8.141  17.944  0.00  0.00    +0.000 A 
ATOM      5  C   UNL     1       1.210   9.285  18.549  0.00  0.00    +0.000 A 
ATOM      6  C   UNL     1       1.112   9.328  19.952  0.00  0.00    +0.000 A 
ATOM      7  C   UNL     1       0.561  10.226  20.913  0.00  0.00    +0.000 A 
ATOM      8  N   UNL     1       0.773   9.782  22.163  0.00  0.00    +0.000 NA
ATOM      9  N   UNL     1       1.408   8.613  21.998  0.00  0.00    +0.000 N 
ATOM     10  C   UNL     1       1.605   8.257  20.693  0.00  0.00    +0.000 A 
ATOM     11  C   UNL     1       2.150   7.105  20.112  0.00  0.00    +0.000 A 
ATOM     12  H   UNL     1       1.646   8.082  22.829  0.00  0.00    +0.000 HD
BRANCH   7  13
ATOM     13  C   UNL     1      -0.224  11.388  20.594  0.00  0.00    +0.000 C 
ATOM     14  C   UNL     1      -0.828  12.155  21.518  0.00  0.00    +0.000 C 
BRANCH  14  15
ATOM     15  C   UNL     1      -1.823  13.208  21.276  0.00  0.00    +0.000 A 
ATOM     16  C   UNL     1      -1.359  14.533  21.271  0.00  0.00    +0.000 A 
ATOM     17  C   UNL     1      -2.233  15.607  21.099  0.00  0.00    +0.000 A 
ATOM     18  C   UNL     1      -3.592  15.369  20.920  0.00  0.00    +0.000 A 
ATOM     19  C   UNL     1      -4.070  14.060  20.903  0.00  0.00    +0.000 A 
ATOM     20  C   UNL     1      -3.191  12.982  21.075  0.00  0.00    +0.000 A 
ENDBRANCH  14  15
ENDBRANCH   7  13
ENDBRANCH   1   3
BRANCH   1  25
ATOM     21  C   UNL     1       6.212   6.662  16.865  0.00  0.00    +0.000 A 
ATOM     22  C   UNL     1       6.503   5.478  16.178  0.00  0.00    +0.000 A 
ATOM     23  C   UNL     1       5.574   4.441  16.105  0.00  0.00    +0.000 A 
ATOM     24  C   UNL     1       4.327   4.589  16.698  0.00  0.00    +0.000 A 
ATOM     25  C   UNL     1       4.009   5.768  17.383  0.00  0.00    +0.000 A 
ATOM     26  C   UNL     1       4.973   6.783  17.511  0.00  0.00    +0.000 A 
BRANCH  21  29
ATOM     27  O   UNL     1       8.318   7.181  18.861  0.00  0.00    +0.000 OA
ATOM     28  C   UNL     1       8.054   7.938  17.934  0.00  0.00    +0.000 C 
ATOM     29  N   UNL     1       7.127   7.734  16.943  0.00  0.00    +0.000 N 
ATOM     30  H   UNL     1       7.164   8.407  16.189  0.00  0.00    +0.000 HD
BRANCH  28  31
ATOM     31  O   UNL     1       8.663   9.138  17.747  0.00  0.00    +0.000 OA
BRANCH  31  32
ATOM     32  C   UNL     1       9.008   9.830  18.959  0.00  0.00    +0.000 C 
BRANCH  32  33
ATOM     33  C   UNL     1       9.729  11.118  18.654  0.00  0.00    +0.000 A 
ATOM     34  C   UNL     1      11.008  11.355  19.176  0.00  0.00    +0.000 A 
ATOM     35  C   UNL     1      11.678  12.545  18.895  0.00  0.00    +0.000 A 
ATOM     36  C   UNL     1      11.076  13.514  18.094  0.00  0.00    +0.000 A 
ATOM     37  C   UNL     1       9.805  13.290  17.570  0.00  0.00    +0.000 A 
ATOM     38  C   UNL     1       9.131  12.099  17.850  0.00  0.00    +0.000 A 
ENDBRANCH  32  33
ENDBRANCH  31  32
ENDBRANCH  28  31
ENDBRANCH  21  29
ENDBRANCH   1  25
TORSDOF 8
ENDMDL
MODEL 4
REMARK VINA RESULT:      -9.1      4.589     11.152
REMARK  Name = 
REMARK  8 active torsions:
REMARK  status: ('A' for Active; 'I' for Inactive)
REMARK    1  A    between atoms: C_2  and  O_29
REMARK    2  A    between atoms: N_3  and  C_4
REMARK    3  A    between atoms: C_8  and  C_9
REMARK    4  A    between atoms: C_9  and  C_11
REMARK    5  A    between atoms: C_15  and  C_16
REMARK    6  A    between atoms: C_17  and  C_18
REMARK    7  A    between atoms: O_29  and  C_30
REMARK    8  A    between atoms: C_30  and  C_31
REMARK                            x       y       z     vdW  Elec       q    Type
REMARK                         _______ _______ _______ _____ _____    ______ ____
ROOT
ATOM      1  C   UNL     1       0.800  10.201  20.707  0.00  0.00    +0.000 C 
ATOM      2  O   UNL     1       0.835  10.474  21.906  0.00  0.00    +0.000 OA
ENDROOT
BRANCH   1   3
ATOM      3  C   UNL     1       1.303   8.873  20.275  0.00  0.00    +0.000 A 
ATOM      4  C   UNL     1       1.764   8.767  18.957  0.00  0.00    +0.000 A 
ATOM      5  C   UNL     1       2.310   7.574  18.477  0.00  0.00    +0.000 A 
ATOM      6  C   UNL     1       2.387   6.466  19.341  0.00  0.00    +0.000 A 
ATOM      7  C   UNL     1       2.945   5.155  19.279  0.00  0.00    +0.000 A 
ATOM      8  N   UNL     1       2.702   4.474  20.410  0.00  0.00    +0.000 NA
ATOM      9  N   UNL     1       2.040   5.343  21.187  0.00  0.00    +0.000 N 
ATOM     10  C   UNL     1       1.856   6.576  20.623  0.00  0.00    +0.000 A 
ATOM     11  C   UNL     1       1.291   7.756  21.124  0.00  0.00    +0.000 A 
ATOM     12  H   UNL     1       1.776   5.041  22.118  0.00  0.00    +0.000 HD
BRANCH   7  13
ATOM     13  C   UNL     1       3.764   4.663  18.203  0.00  0.00    +0.000 C 
ATOM     14  C   UNL     1       4.698   5.403  17.582  0.00  0.00    +0.000 C 
BRANCH  14  15
ATOM     15  C   UNL     1       5.410   5.065  16.341  0.00  0.00    +0.000 A 
ATOM     16  C   UNL     1       6.784   5.348  16.299  0.00  0.00    +0.000 A 
ATOM     17  C   UNL     1       7.538   5.110  15.149  0.00  0.00    +0.000 A 
ATOM     18  C   UNL     1       6.926   4.572  14.022  0.00  0.00    +0.000 A 
ATOM     19  C   UNL     1       5.567   4.266  14.051  0.00  0.00    +0.000 A 
ATOM     20  C   UNL     1       4.810   4.506  15.205  0.00  0.00    +0.000 A 
ENDBRANCH  14  15
ENDBRANCH   7  13
ENDBRANCH   1   3
BRANCH   1  25
ATOM     21  C   UNL     1      -1.455  12.091  18.270  0.00  0.00    +0.000 A 
ATOM     22  C   UNL     1      -0.591  13.143  17.941  0.00  0.00    +0.000 A 
ATOM     23  C   UNL     1       0.672  13.244  18.521  0.00  0.00    +0.000 A 
ATOM     24  C   UNL     1       1.100  12.275  19.419  0.00  0.00    +0.000 A 
ATOM     25  C   UNL     1       0.258  11.209  19.756  0.00  0.00    +0.000 A 
ATOM     26  C   UNL     1      -1.041  11.147  19.221  0.00  0.00    +0.000 A 
BRANCH  21  29
ATOM     27  O   UNL     1      -3.005   9.647  17.712  0.00  0.00    +0.000 OA
ATOM     28  C   UNL     1      -3.377  10.774  17.412  0.00  0.00    +0.000 C 
ATOM     29  N   UNL     1      -2.733  11.955  17.688  0.00  0.00    +0.000 N 
ATOM     30  H   UNL     1      -3.275  12.785  17.488  0.00  0.00    +0.000 HD
BRANCH  28  31
ATOM     31  O   UNL     1      -4.527  11.031  16.733  0.00  0.00    +0.000 OA
BRANCH  31  32
ATOM     32  C   UNL     1      -5.302  12.121  17.259  0.00  0.00    +0.000 C 
BRANCH  32  33
ATOM     33  C   UNL     1      -6.005  11.715  18.529  0.00  0.00    +0.000 A 
ATOM     34  C   UNL     1      -6.719  10.511  18.590  0.00  0.00    +0.000 A 
ATOM     35  C   UNL     1      -7.369  10.132  19.764  0.00  0.00    +0.000 A 
ATOM     36  C   UNL     1      -7.318  10.956  20.889  0.00  0.00    +0.000 A 
ATOM     37  C   UNL     1      -6.612  12.156  20.839  0.00  0.00    +0.000 A 
ATOM     38  C   UNL     1      -5.960  12.537  19.664  0.00  0.00    +0.000 A 
ENDBRANCH  32  33
ENDBRANCH  31  32
ENDBRANCH  28  31
ENDBRANCH  21  29
ENDBRANCH   1  25
TORSDOF 8
ENDMDL
MODEL 5
REMARK VINA RESULT:      -9.0      1.878      2.456
REMARK  Name = 
REMARK  8 active torsions:
REMARK  status: ('A' for Active; 'I' for Inactive)
REMARK    1  A    between atoms: C_2  and  O_29
REMARK    2  A    between atoms: N_3  and  C_4
REMARK    3  A    between atoms: C_8  and  C_9
REMARK    4  A    between atoms: C_9  and  C_11
REMARK    5  A    between atoms: C_15  and  C_16
REMARK    6  A    between atoms: C_17  and  C_18
REMARK    7  A    between atoms: O_29  and  C_30
REMARK    8  A    between atoms: C_30  and  C_31
REMARK                            x       y       z     vdW  Elec       q    Type
REMARK                         _______ _______ _______ _____ _____    ______ ____
ROOT
ATOM      1  C   UNL     1       2.989   5.689  18.850  0.00  0.00    +0.000 C 
ATOM      2  O   UNL     1       2.644   4.648  19.407  0.00  0.00    +0.000 OA
ENDROOT
BRANCH   1   3
ATOM      3  C   UNL     1       2.240   6.932  19.160  0.00  0.00    +0.000 A 
ATOM      4  C   UNL     1       1.668   7.028  20.435  0.00  0.00    +0.000 A 
ATOM      5  C   UNL     1       0.994   8.183  20.840  0.00  0.00    +0.000 A 
ATOM      6  C   UNL     1       0.891   9.260  19.940  0.00  0.00    +0.000 A 
ATOM      7  C   UNL     1       0.399  10.598  19.995  0.00  0.00    +0.000 A 
ATOM      8  N   UNL     1       0.524  11.205  18.804  0.00  0.00    +0.000 NA
ATOM      9  N   UNL     1       1.115  10.291  18.023  0.00  0.00    +0.000 N 
ATOM     10  C   UNL     1       1.406   9.113  18.655  0.00  0.00    +0.000 A 
ATOM     11  C   UNL     1       2.074   7.961  18.220  0.00  0.00    +0.000 A 
ATOM     12  H   UNL     1       1.333  10.553  17.068  0.00  0.00    +0.000 HD
BRANCH   7  13
ATOM     13  C   UNL     1      -0.057  11.254  21.190  0.00  0.00    +0.000 C 
ATOM     14  C   UNL     1      -1.278  11.802  21.319  0.00  0.00    +0.000 C 
BRANCH  14  15
ATOM     15  C   UNL     1      -1.741  12.681  22.401  0.00  0.00    +0.000 A 
ATOM     16  C   UNL     1      -0.878  13.718  22.791  0.00  0.00    +0.000 A 
ATOM     17  C   UNL     1      -1.204  14.576  23.842  0.00  0.00    +0.000 A 
ATOM     18  C   UNL     1      -2.409  14.413  24.517  0.00  0.00    +0.000 A 
ATOM     19  C   UNL     1      -3.288  13.402  24.133  0.00  0.00    +0.000 A 
ATOM     20  C   UNL     1      -2.960  12.541  23.077  0.00  0.00    +0.000 A 
ENDBRANCH  14  15
ENDBRANCH   7  13
ENDBRANCH   1   3
BRANCH   1  25
ATOM     21  C   UNL     1       6.158   6.557  16.902  0.00  0.00    +0.000 A 
ATOM     22  C   UNL     1       6.180   5.470  16.021  0.00  0.00    +0.000 A 
ATOM     23  C   UNL     1       5.208   4.473  16.084  0.00  0.00    +0.000 A 
ATOM     24  C   UNL     1       4.181   4.567  17.014  0.00  0.00    +0.000 A 
ATOM     25  C   UNL     1       4.133   5.650  17.900  0.00  0.00    +0.000 A 
ATOM     26  C   UNL     1       5.153   6.618  17.878  0.00  0.00    +0.000 A 
BRANCH  21  29
ATOM     27  O   UNL     1       8.302   7.208  18.817  0.00  0.00    +0.000 OA
ATOM     28  C   UNL     1       8.064   7.863  17.811  0.00  0.00    +0.000 C 
ATOM     29  N   UNL     1       7.121   7.588  16.852  0.00  0.00    +0.000 N 
ATOM     30  H   UNL     1       7.181   8.167  16.026  0.00  0.00    +0.000 HD
BRANCH  28  31
ATOM     31  O   UNL     1       8.725   9.005  17.484  0.00  0.00    +0.000 OA
BRANCH  31  32
ATOM     32  C   UNL     1       8.177  10.201  18.062  0.00  0.00    +0.000 C 
BRANCH  32  33
ATOM     33  C   UNL     1       9.242  11.254  18.228  0.00  0.00    +0.000 A 
ATOM     34  C   UNL     1      10.446  10.948  18.876  0.00  0.00    +0.000 A 
ATOM     35  C   UNL     1      11.434  11.920  19.030  0.00  0.00    +0.000 A 
ATOM     36  C   UNL     1      11.228  13.210  18.542  0.00  0.00    +0.000 A 
ATOM     37  C   UNL     1      10.035  13.526  17.896  0.00  0.00    +0.000 A 
ATOM     38  C   UNL     1       9.043  12.554  17.741  0.00  0.00    +0.000 A 
ENDBRANCH  32  33
ENDBRANCH  31  32
ENDBRANCH  28  31
ENDBRANCH  21  29
ENDBRANCH   1  25
TORSDOF 8
ENDMDL
MODEL 6
REMARK VINA RESULT:      -9.0      3.008      7.695
REMARK  Name = 
REMARK  8 active torsions:
REMARK  status: ('A' for Active; 'I' for Inactive)
REMARK    1  A    between atoms: C_2  and  O_29
REMARK    2  A    between atoms: N_3  and  C_4
REMARK    3  A    between atoms: C_8  and  C_9
REMARK    4  A    between atoms: C_9  and  C_11
REMARK    5  A    between atoms: C_15  and  C_16
REMARK    6  A    between atoms: C_17  and  C_18
REMARK    7  A    between atoms: O_29  and  C_30
REMARK    8  A    between atoms: C_30  and  C_31
REMARK                            x       y       z     vdW  Elec       q    Type
REMARK                         _______ _______ _______ _____ _____    ______ ____
ROOT
ATOM      1  C   UNL     1       0.387  12.390  18.923  0.00  0.00    +0.000 C 
ATOM      2  O   UNL     1      -0.815  12.630  19.022  0.00  0.00    +0.000 OA
ENDROOT
BRANCH   1   3
ATOM      3  C   UNL     1       0.833  10.979  19.041  0.00  0.00    +0.000 A 
ATOM      4  C   UNL     1       1.346  10.377  17.885  0.00  0.00    +0.000 A 
ATOM      5  C   UNL     1       1.845   9.072  17.912  0.00  0.00    +0.000 A 
ATOM      6  C   UNL     1       1.822   8.359  19.125  0.00  0.00    +0.000 A 
ATOM      7  C   UNL     1       2.308   7.099  19.583  0.00  0.00    +0.000 A 
ATOM      8  N   UNL     1       1.978   6.895  20.868  0.00  0.00    +0.000 NA
ATOM      9  N   UNL     1       1.332   8.012  21.229  0.00  0.00    +0.000 N 
ATOM     10  C   UNL     1       1.242   8.955  20.242  0.00  0.00    +0.000 A 
ATOM     11  C   UNL     1       0.723  10.256  20.239  0.00  0.00    +0.000 A 
ATOM     12  H   UNL     1       1.012   8.085  22.188  0.00  0.00    +0.000 HD
BRANCH   7  13
ATOM     13  C   UNL     1       3.144   6.216  18.815  0.00  0.00    +0.000 C 
ATOM     14  C   UNL     1       3.912   6.623  17.789  0.00  0.00    +0.000 C 
BRANCH  14  15
ATOM     15  C   UNL     1       4.609   5.770  16.817  0.00  0.00    +0.000 A 
ATOM     16  C   UNL     1       4.592   4.387  17.058  0.00  0.00    +0.000 A 
ATOM     17  C   UNL     1       5.267   3.498  16.221  0.00  0.00    +0.000 A 
ATOM     18  C   UNL     1       5.965   3.981  15.119  0.00  0.00    +0.000 A 
ATOM     19  C   UNL     1       5.977   5.349  14.852  0.00  0.00    +0.000 A 
ATOM     20  C   UNL     1       5.299   6.241  15.693  0.00  0.00    +0.000 A 
ENDBRANCH  14  15
ENDBRANCH   7  13
ENDBRANCH   1   3
BRANCH   1  25
ATOM     21  C   UNL     1       3.493  14.452  18.092  0.00  0.00    +0.000 A 
ATOM     22  C   UNL     1       2.988  15.730  18.361  0.00  0.00    +0.000 A 
ATOM     23  C   UNL     1       1.669  15.910  18.772  0.00  0.00    +0.000 A 
ATOM     24  C   UNL     1       0.843  14.807  18.946  0.00  0.00    +0.000 A 
ATOM     25  C   UNL     1       1.328  13.519  18.691  0.00  0.00    +0.000 A 
ATOM     26  C   UNL     1       2.639  13.347  18.212  0.00  0.00    +0.000 A 
BRANCH  21  29
ATOM     27  O   UNL     1       5.999  15.219  19.441  0.00  0.00    +0.000 OA
ATOM     28  C   UNL     1       5.953  14.670  18.347  0.00  0.00    +0.000 C 
ATOM     29  N   UNL     1       4.829  14.239  17.688  0.00  0.00    +0.000 N 
ATOM     30  H   UNL     1       5.013  13.678  16.868  0.00  0.00    +0.000 HD
BRANCH  28  31
ATOM     31  O   UNL     1       7.053  14.398  17.596  0.00  0.00    +0.000 OA
BRANCH  31  32
ATOM     32  C   UNL     1       8.300  14.495  18.303  0.00  0.00    +0.000 C 
BRANCH  32  33
ATOM     33  C   UNL     1       8.772  13.134  18.746  0.00  0.00    +0.000 A 
ATOM     34  C   UNL     1       8.822  12.070  17.835  0.00  0.00    +0.000 A 
ATOM     35  C   UNL     1       9.260  10.810  18.241  0.00  0.00    +0.000 A 
ATOM     36  C   UNL     1       9.647  10.597  19.564  0.00  0.00    +0.000 A 
ATOM     37  C   UNL     1       9.601  11.647  20.479  0.00  0.00    +0.000 A 
ATOM     38  C   UNL     1       9.163  12.910  20.074  0.00  0.00    +0.000 A 
ENDBRANCH  32  33
ENDBRANCH  31  32
ENDBRANCH  28  31
ENDBRANCH  21  29
ENDBRANCH   1  25
TORSDOF 8
ENDMDL
MODEL 7
REMARK VINA RESULT:      -9.0      0.868      1.137
REMARK  Name = 
REMARK  8 active torsions:
REMARK  status: ('A' for Active; 'I' for Inactive)
REMARK    1  A    between atoms: C_2  and  O_29
REMARK    2  A    between atoms: N_3  and  C_4
REMARK    3  A    between atoms: C_8  and  C_9
REMARK    4  A    between atoms: C_9  and  C_11
REMARK    5  A    between atoms: C_15  and  C_16
REMARK    6  A    between atoms: C_17  and  C_18
REMARK    7  A    between atoms: O_29  and  C_30
REMARK    8  A    between atoms: C_30  and  C_31
REMARK                            x       y       z     vdW  Elec       q    Type
REMARK                         _______ _______ _______ _____ _____    ______ ____
ROOT
ATOM      1  C   UNL     1       2.597   5.819  18.131  0.00  0.00    +0.000 C 
ATOM      2  O   UNL     1       1.794   4.889  18.081  0.00  0.00    +0.000 OA
ENDROOT
BRANCH   1   3
ATOM      3  C   UNL     1       2.190   7.061  18.835  0.00  0.00    +0.000 A 
ATOM      4  C   UNL     1       2.121   8.232  18.070  0.00  0.00    +0.000 A 
ATOM      5  C   UNL     1       1.692   9.437  18.631  0.00  0.00    +0.000 A 
ATOM      6  C   UNL     1       1.330   9.463  19.991  0.00  0.00    +0.000 A 
ATOM      7  C   UNL     1       0.765  10.422  20.883  0.00  0.00    +0.000 A 
ATOM      8  N   UNL     1       0.650   9.916  22.122  0.00  0.00    +0.000 NA
ATOM      9  N   UNL     1       1.093   8.657  22.011  0.00  0.00    +0.000 N 
ATOM     10  C   UNL     1       1.476   8.303  20.747  0.00  0.00    +0.000 A 
ATOM     11  C   UNL     1       1.917   7.085  20.212  0.00  0.00    +0.000 A 
ATOM     12  H   UNL     1       1.069   8.071  22.838  0.00  0.00    +0.000 HD
BRANCH   7  13
ATOM     13  C   UNL     1       0.271  11.714  20.491  0.00  0.00    +0.000 C 
ATOM     14  C   UNL     1       1.042  12.672  19.947  0.00  0.00    +0.000 C 
BRANCH  14  15
ATOM     15  C   UNL     1       0.679  14.079  19.732  0.00  0.00    +0.000 A 
ATOM     16  C   UNL     1       1.698  15.031  19.898  0.00  0.00    +0.000 A 
ATOM     17  C   UNL     1       1.442  16.396  19.765  0.00  0.00    +0.000 A 
ATOM     18  C   UNL     1       0.159  16.831  19.453  0.00  0.00    +0.000 A 
ATOM     19  C   UNL     1      -0.862  15.901  19.264  0.00  0.00    +0.000 A 
ATOM     20  C   UNL     1      -0.605  14.530  19.398  0.00  0.00    +0.000 A 
ENDBRANCH  14  15
ENDBRANCH   7  13
ENDBRANCH   1   3
BRANCH   1  25
ATOM     21  C   UNL     1       6.136   6.439  16.833  0.00  0.00    +0.000 A 
ATOM     22  C   UNL     1       6.350   5.217  16.185  0.00  0.00    +0.000 A 
ATOM     23  C   UNL     1       5.381   4.215  16.199  0.00  0.00    +0.000 A 
ATOM     24  C   UNL     1       4.169   4.436  16.840  0.00  0.00    +0.000 A 
ATOM     25  C   UNL     1       3.929   5.654  17.488  0.00  0.00    +0.000 A 
ATOM     26  C   UNL     1       4.935   6.635  17.529  0.00  0.00    +0.000 A 
BRANCH  21  29
ATOM     27  O   UNL     1       8.234   7.065  18.807  0.00  0.00    +0.000 OA
ATOM     28  C   UNL     1       8.014   7.738  17.808  0.00  0.00    +0.000 C 
ATOM     29  N   UNL     1       7.094   7.475  16.824  0.00  0.00    +0.000 N 
ATOM     30  H   UNL     1       7.169   8.070  16.010  0.00  0.00    +0.000 HD
BRANCH  28  31
ATOM     31  O   UNL     1       8.676   8.889  17.517  0.00  0.00    +0.000 OA
BRANCH  31  32
ATOM     32  C   UNL     1       8.705   9.850  18.585  0.00  0.00    +0.000 C 
BRANCH  32  33
ATOM     33  C   UNL     1       9.487  11.074  18.184  0.00  0.00    +0.000 A 
ATOM     34  C   UNL     1      10.887  11.042  18.154  0.00  0.00    +0.000 A 
ATOM     35  C   UNL     1      11.614  12.173  17.783  0.00  0.00    +0.000 A 
ATOM     36  C   UNL     1      10.948  13.351  17.442  0.00  0.00    +0.000 A 
ATOM     37  C   UNL     1       9.556  13.394  17.469  0.00  0.00    +0.000 A 
ATOM     38  C   UNL     1       8.827  12.263  17.842  0.00  0.00    +0.000 A 
ENDBRANCH  32  33
ENDBRANCH  31  32
ENDBRANCH  28  31
ENDBRANCH  21  29
ENDBRANCH   1  25
TORSDOF 8
ENDMDL
MODEL 8
REMARK VINA RESULT:      -8.9      2.011      2.544
REMARK  Name = 
REMARK  8 active torsions:
REMARK  status: ('A' for Active; 'I' for Inactive)
REMARK    1  A    between atoms: C_2  and  O_29
REMARK    2  A    between atoms: N_3  and  C_4
REMARK    3  A    between atoms: C_8  and  C_9
REMARK    4  A    between atoms: C_9  and  C_11
REMARK    5  A    between atoms: C_15  and  C_16
REMARK    6  A    between atoms: C_17  and  C_18
REMARK    7  A    between atoms: O_29  and  C_30
REMARK    8  A    between atoms: C_30  and  C_31
REMARK                            x       y       z     vdW  Elec       q    Type
REMARK                         _______ _______ _______ _____ _____    ______ ____
ROOT
ATOM      1  C   UNL     1       3.208   5.574  19.004  0.00  0.00    +0.000 C 
ATOM      2  O   UNL     1       2.676   4.535  19.394  0.00  0.00    +0.000 OA
ENDROOT
BRANCH   1   3
ATOM      3  C   UNL     1       2.484   6.853  19.213  0.00  0.00    +0.000 A 
ATOM      4  C   UNL     1       1.991   7.101  20.500  0.00  0.00    +0.000 A 
ATOM      5  C   UNL     1       1.348   8.303  20.808  0.00  0.00    +0.000 A 
ATOM      6  C   UNL     1       1.195   9.270  19.797  0.00  0.00    +0.000 A 
ATOM      7  C   UNL     1       0.713  10.611  19.727  0.00  0.00    +0.000 A 
ATOM      8  N   UNL     1       0.769  11.076  18.468  0.00  0.00    +0.000 NA
ATOM      9  N   UNL     1       1.308  10.071  17.764  0.00  0.00    +0.000 N 
ATOM     10  C   UNL     1       1.631   8.971  18.509  0.00  0.00    +0.000 A 
ATOM     11  C   UNL     1       2.266   7.769  18.171  0.00  0.00    +0.000 A 
ATOM     12  H   UNL     1       1.469  10.219  16.774  0.00  0.00    +0.000 HD
BRANCH   7  13
ATOM     13  C   UNL     1       0.333  11.406  20.863  0.00  0.00    +0.000 C 
ATOM     14  C   UNL     1      -0.892  11.373  21.417  0.00  0.00    +0.000 C 
BRANCH  14  15
ATOM     15  C   UNL     1      -1.431  12.304  22.418  0.00  0.00    +0.000 A 
ATOM     16  C   UNL     1      -2.707  12.017  22.930  0.00  0.00    +0.000 A 
ATOM     17  C   UNL     1      -3.327  12.866  23.848  0.00  0.00    +0.000 A 
ATOM     18  C   UNL     1      -2.672  14.016  24.276  0.00  0.00    +0.000 A 
ATOM     19  C   UNL     1      -1.397  14.307  23.794  0.00  0.00    +0.000 A 
ATOM     20  C   UNL     1      -0.775  13.454  22.873  0.00  0.00    +0.000 A 
ENDBRANCH  14  15
ENDBRANCH   7  13
ENDBRANCH   1   3
BRANCH   1  25
ATOM     21  C   UNL     1       6.817   6.264  17.961  0.00  0.00    +0.000 A 
ATOM     22  C   UNL     1       6.961   5.265  16.991  0.00  0.00    +0.000 A 
ATOM     23  C   UNL     1       5.922   4.379  16.711  0.00  0.00    +0.000 A 
ATOM     24  C   UNL     1       4.712   4.500  17.381  0.00  0.00    +0.000 A 
ATOM     25  C   UNL     1       4.541   5.497  18.349  0.00  0.00    +0.000 A 
ATOM     26  C   UNL     1       5.614   6.346  18.676  0.00  0.00    +0.000 A 
BRANCH  21  29
ATOM     27  O   UNL     1       7.074   9.095  17.180  0.00  0.00    +0.000 OA
ATOM     28  C   UNL     1       7.924   8.482  17.813  0.00  0.00    +0.000 C 
ATOM     29  N   UNL     1       7.846   7.184  18.254  0.00  0.00    +0.000 N 
ATOM     30  H   UNL     1       8.587   6.911  18.885  0.00  0.00    +0.000 HD
BRANCH  28  31
ATOM     31  O   UNL     1       9.117   9.018  18.184  0.00  0.00    +0.000 OA
BRANCH  31  32
ATOM     32  C   UNL     1       9.050   9.906  19.311  0.00  0.00    +0.000 C 
BRANCH  32  33
ATOM     33  C   UNL     1      10.055  11.021  19.176  0.00  0.00    +0.000 A 
ATOM     34  C   UNL     1      10.621  11.317  17.929  0.00  0.00    +0.000 A 
ATOM     35  C   UNL     1      11.551  12.349  17.801  0.00  0.00    +0.000 A 
ATOM     36  C   UNL     1      11.929  13.092  18.918  0.00  0.00    +0.000 A 
ATOM     37  C   UNL     1      11.373  12.806  20.163  0.00  0.00    +0.000 A 
ATOM     38  C   UNL     1      10.442  11.773  20.294  0.00  0.00    +0.000 A 
ENDBRANCH  32  33
ENDBRANCH  31  32
ENDBRANCH  28  31
ENDBRANCH  21  29
ENDBRANCH   1  25
TORSDOF 8
ENDMDL
MODEL 9
REMARK VINA RESULT:      -8.8      1.411      1.668
REMARK  Name = 
REMARK  8 active torsions:
REMARK  status: ('A' for Active; 'I' for Inactive)
REMARK    1  A    between atoms: C_2  and  O_29
REMARK    2  A    between atoms: N_3  and  C_4
REMARK    3  A    between atoms: C_8  and  C_9
REMARK    4  A    between atoms: C_9  and  C_11
REMARK    5  A    between atoms: C_15  and  C_16
REMARK    6  A    between atoms: C_17  and  C_18
REMARK    7  A    between atoms: O_29  and  C_30
REMARK    8  A    between atoms: C_30  and  C_31
REMARK                            x       y       z     vdW  Elec       q    Type
REMARK                         _______ _______ _______ _____ _____    ______ ____
ROOT
ATOM      1  C   UNL     1       2.478   5.757  17.921  0.00  0.00    +0.000 C 
ATOM      2  O   UNL     1       1.635   4.890  17.696  0.00  0.00    +0.000 OA
ENDROOT
BRANCH   1   3
ATOM      3  C   UNL     1       2.067   6.946  18.709  0.00  0.00    +0.000 A 
ATOM      4  C   UNL     1       1.605   8.056  17.991  0.00  0.00    +0.000 A 
ATOM      5  C   UNL     1       1.142   9.199  18.647  0.00  0.00    +0.000 A 
ATOM      6  C   UNL     1       1.150   9.225  20.054  0.00  0.00    +0.000 A 
ATOM      7  C   UNL     1       0.685  10.118  21.065  0.00  0.00    +0.000 A 
ATOM      8  N   UNL     1       0.984   9.655  22.289  0.00  0.00    +0.000 NA
ATOM      9  N   UNL     1       1.588   8.480  22.064  0.00  0.00    +0.000 N 
ATOM     10  C   UNL     1       1.680   8.138  20.743  0.00  0.00    +0.000 A 
ATOM     11  C   UNL     1       2.164   6.986  20.109  0.00  0.00    +0.000 A 
ATOM     12  H   UNL     1       1.879   7.935  22.868  0.00  0.00    +0.000 HD
BRANCH   7  13
ATOM     13  C   UNL     1      -0.104  11.295  20.819  0.00  0.00    +0.000 C 
ATOM     14  C   UNL     1      -0.677  12.023  21.793  0.00  0.00    +0.000 C 
BRANCH  14  15
ATOM     15  C   UNL     1      -1.675  13.089  21.626  0.00  0.00    +0.000 A 
ATOM     16  C   UNL     1      -2.816  12.778  20.869  0.00  0.00    +0.000 A 
ATOM     17  C   UNL     1      -3.797  13.736  20.612  0.00  0.00    +0.000 A 
ATOM     18  C   UNL     1      -3.655  15.023  21.118  0.00  0.00    +0.000 A 
ATOM     19  C   UNL     1      -2.539  15.346  21.888  0.00  0.00    +0.000 A 
ATOM     20  C   UNL     1      -1.554  14.383  22.146  0.00  0.00    +0.000 A 
ENDBRANCH  14  15
ENDBRANCH   7  13
ENDBRANCH   1   3
BRANCH   1  25
ATOM     21  C   UNL     1       6.198   6.198  17.174  0.00  0.00    +0.000 A 
ATOM     22  C   UNL     1       6.372   5.131  16.285  0.00  0.00    +0.000 A 
ATOM     23  C   UNL     1       5.315   4.280  15.966  0.00  0.00    +0.000 A 
ATOM     24  C   UNL     1       4.059   4.505  16.513  0.00  0.00    +0.000 A 
ATOM     25  C   UNL     1       3.858   5.571  17.398  0.00  0.00    +0.000 A 
ATOM     26  C   UNL     1       4.942   6.386  17.769  0.00  0.00    +0.000 A 
BRANCH  21  29
ATOM     27  O   UNL     1       8.107   6.082  19.417  0.00  0.00    +0.000 OA
ATOM     28  C   UNL     1       8.069   6.993  18.599  0.00  0.00    +0.000 C 
ATOM     29  N   UNL     1       7.246   7.083  17.504  0.00  0.00    +0.000 N 
ATOM     30  H   UNL     1       7.471   7.839  16.872  0.00  0.00    +0.000 HD
BRANCH  28  31
ATOM     31  O   UNL     1       8.868   8.091  18.660  0.00  0.00    +0.000 OA
BRANCH  31  32
ATOM     32  C   UNL     1       8.300   9.277  18.081  0.00  0.00    +0.000 C 
BRANCH  32  33
ATOM     33  C   UNL     1       8.974  10.513  18.619  0.00  0.00    +0.000 A 
ATOM     34  C   UNL     1       9.628  10.481  19.857  0.00  0.00    +0.000 A 
ATOM     35  C   UNL     1      10.255  11.622  20.358  0.00  0.00    +0.000 A 
ATOM     36  C   UNL     1      10.229  12.810  19.628  0.00  0.00    +0.000 A 
ATOM     37  C   UNL     1       9.581  12.854  18.395  0.00  0.00    +0.000 A 
ATOM     38  C   UNL     1       8.953  11.712  17.893  0.00  0.00    +0.000 A 
ENDBRANCH  32  33
ENDBRANCH  31  32
ENDBRANCH  28  31
ENDBRANCH  21  29
ENDBRANCH   1  25
TORSDOF 8
ENDMDL
