MODEL 1
REMARK VINA RESULT:      -6.7      0.000      0.000
REMARK  Name = 
REMARK  10 active torsions:
REMARK  status: ('A' for Active; 'I' for Inactive)
REMARK    1  A    between atoms: C_1  and  C_2
REMARK    2  A    between atoms: C_4  and  C_5
REMARK    3  A    between atoms: C_9  and  C_10
REMARK    4  A    between atoms: C_10  and  N_11
REMARK    5  A    between atoms: C_14  and  N_15
REMARK    6  A    between atoms: N_15  and  C_16
REMARK    7  A    between atoms: N_15  and  C_17
REMARK    8  A    between atoms: C_17  and  C_18
REMARK    9  A    between atoms: C_18  and  O_19
REMARK   10  A    between atoms: C_20  and  C_21
REMARK                            x       y       z     vdW  Elec       q    Type
REMARK                         _______ _______ _______ _____ _____    ______ ____
ROOT
ATOM      1  N   UNL     1       2.264   6.489  18.421  0.00  0.00    +0.000 NA
ATOM      2  C   UNL     1       2.737   7.714  17.807  0.00  0.00    +0.000 C 
ATOM      3  C   UNL     1       1.903   8.729  18.564  0.00  0.00    +0.000 C 
ATOM      4  C   UNL     1       1.883   8.198  20.013  0.00  0.00    +0.000 C 
ATOM      5  C   UNL     1       2.294   6.681  19.875  0.00  0.00    +0.000 C 
ATOM      6  C   UNL     1       1.467   5.663  20.650  0.00  0.00    +0.000 C 
ENDROOT
BRANCH   4   7
ATOM      7  N   UNL     1       0.713   8.614  20.833  0.00  0.00    +0.000 NA
ATOM      8  C   UNL     1      -0.154   9.595  20.159  0.00  0.00    +0.000 C 
BRANCH   7   9
ATOM      9  C   UNL     1       1.181   9.170  22.130  0.00  0.00    +0.000 C 
BRANCH   9  10
ATOM     10  C   UNL     1       0.047   9.374  23.157  0.00  0.00    +0.000 C 
BRANCH  10  11
ATOM     11  O   UNL     1      -0.242  10.762  23.298  0.00  0.00    +0.000 OA
ATOM     12  H   UNL     1      -0.457  10.878  24.244  0.00  0.00    +0.000 HD
ENDBRANCH  10  11
ENDBRANCH   9  10
ENDBRANCH   7   9
ENDBRANCH   4   7
BRANCH   1  13
ATOM     13  C   UNL     1       2.696   5.240  17.828  0.00  0.00    +0.000 C 
BRANCH  13  18
ATOM     14  C   UNL     1       7.836   5.989  18.917  0.00  0.00    +0.000 C 
ATOM     15  C   UNL     1       6.471   5.418  18.776  0.00  0.00    +0.000 A 
ATOM     16  N   UNL     1       6.060   4.314  19.357  0.00  0.00    +0.000 NA
ATOM     17  C   UNL     1       4.713   4.062  19.052  0.00  0.00    +0.000 A 
ATOM     18  C   UNL     1       4.129   5.037  18.247  0.00  0.00    +0.000 A 
ATOM     19  S   UNL     1       5.322   6.190  17.778  0.00  0.00    +0.000 S 
BRANCH  17  20
ATOM     20  C   UNL     1       4.049   2.828  19.595  0.00  0.00    +0.000 C 
ATOM     21  F   UNL     1       4.933   1.925  20.097  0.00  0.00    +0.000 F 
ATOM     22  F   UNL     1       3.165   3.091  20.595  0.00  0.00    +0.000 F 
ATOM     23  F   UNL     1       3.343   2.183  18.627  0.00  0.00    +0.000 F 
ENDBRANCH  17  20
ENDBRANCH  13  18
ENDBRANCH   1  13
TORSDOF 7
ENDMDL
MODEL 2
REMARK VINA RESULT:      -6.5      4.182      5.399
REMARK  Name = 
REMARK  10 active torsions:
REMARK  status: ('A' for Active; 'I' for Inactive)
REMARK    1  A    between atoms: C_1  and  C_2
REMARK    2  A    between atoms: C_4  and  C_5
REMARK    3  A    between atoms: C_9  and  C_10
REMARK    4  A    between atoms: C_10  and  N_11
REMARK    5  A    between atoms: C_14  and  N_15
REMARK    6  A    between atoms: N_15  and  C_16
REMARK    7  A    between atoms: N_15  and  C_17
REMARK    8  A    between atoms: C_17  and  C_18
REMARK    9  A    between atoms: C_18  and  O_19
REMARK   10  A    between atoms: C_20  and  C_21
REMARK                            x       y       z     vdW  Elec       q    Type
REMARK                         _______ _______ _______ _____ _____    ______ ____
ROOT
ATOM      1  N   UNL     1       3.527   5.923  17.943  0.00  0.00    +0.000 NA
ATOM      2  C   UNL     1       2.102   6.127  17.766  0.00  0.00    +0.000 C 
ATOM      3  C   UNL     1       1.592   4.742  18.111  0.00  0.00    +0.000 C 
ATOM      4  C   UNL     1       2.468   4.300  19.302  0.00  0.00    +0.000 C 
ATOM      5  C   UNL     1       3.722   5.255  19.234  0.00  0.00    +0.000 C 
ATOM      6  C   UNL     1       5.095   4.615  19.397  0.00  0.00    +0.000 C 
ENDROOT
BRANCH   4   7
ATOM      7  N   UNL     1       2.621   2.830  19.477  0.00  0.00    +0.000 NA
ATOM      8  C   UNL     1       2.862   2.113  18.213  0.00  0.00    +0.000 C 
BRANCH   7   9
ATOM      9  C   UNL     1       1.412   2.276  20.141  0.00  0.00    +0.000 C 
BRANCH   9  10
ATOM     10  C   UNL     1       1.376   2.529  21.663  0.00  0.00    +0.000 C 
BRANCH  10  11
ATOM     11  O   UNL     1       2.701   2.683  22.165  0.00  0.00    +0.000 OA
ATOM     12  H   UNL     1       2.804   1.968  22.824  0.00  0.00    +0.000 HD
ENDBRANCH  10  11
ENDBRANCH   9  10
ENDBRANCH   7   9
ENDBRANCH   4   7
BRANCH   1  13
ATOM     13  C   UNL     1       4.407   6.992  17.519  0.00  0.00    +0.000 C 
BRANCH  13  18
ATOM     14  C   UNL     1       7.107   4.265  13.853  0.00  0.00    +0.000 C 
ATOM     15  C   UNL     1       6.723   5.129  15.000  0.00  0.00    +0.000 A 
ATOM     16  N   UNL     1       7.546   5.923  15.645  0.00  0.00    +0.000 NA
ATOM     17  C   UNL     1       6.871   6.628  16.654  0.00  0.00    +0.000 A 
ATOM     18  C   UNL     1       5.508   6.350  16.715  0.00  0.00    +0.000 A 
ATOM     19  S   UNL     1       5.120   5.108  15.585  0.00  0.00    +0.000 S 
BRANCH  17  20
ATOM     20  C   UNL     1       7.636   7.576  17.535  0.00  0.00    +0.000 C 
ATOM     21  F   UNL     1       8.161   6.973  18.636  0.00  0.00    +0.000 F 
ATOM     22  F   UNL     1       8.676   8.177  16.899  0.00  0.00    +0.000 F 
ATOM     23  F   UNL     1       6.837   8.580  17.987  0.00  0.00    +0.000 F 
ENDBRANCH  17  20
ENDBRANCH  13  18
ENDBRANCH   1  13
TORSDOF 7
ENDMDL
MODEL 3
REMARK VINA RESULT:      -6.5      3.824      4.987
REMARK  Name = 
REMARK  10 active torsions:
REMARK  status: ('A' for Active; 'I' for Inactive)
REMARK    1  A    between atoms: C_1  and  C_2
REMARK    2  A    between atoms: C_4  and  C_5
REMARK    3  A    between atoms: C_9  and  C_10
REMARK    4  A    between atoms: C_10  and  N_11
REMARK    5  A    between atoms: C_14  and  N_15
REMARK    6  A    between atoms: N_15  and  C_16
REMARK    7  A    between atoms: N_15  and  C_17
REMARK    8  A    between atoms: C_17  and  C_18
REMARK    9  A    between atoms: C_18  and  O_19
REMARK   10  A    between atoms: C_20  and  C_21
REMARK                            x       y       z     vdW  Elec       q    Type
REMARK                         _______ _______ _______ _____ _____    ______ ____
ROOT
ATOM      1  N   UNL     1       3.584   5.753  18.099  0.00  0.00    +0.000 NA
ATOM      2  C   UNL     1       2.221   6.176  17.841  0.00  0.00    +0.000 C 
ATOM      3  C   UNL     1       1.496   4.859  18.028  0.00  0.00    +0.000 C 
ATOM      4  C   UNL     1       2.202   4.205  19.234  0.00  0.00    +0.000 C 
ATOM      5  C   UNL     1       3.579   4.968  19.337  0.00  0.00    +0.000 C 
ATOM      6  C   UNL     1       4.830   4.124  19.539  0.00  0.00    +0.000 C 
ENDROOT
BRANCH   4   7
ATOM      7  N   UNL     1       2.133   2.719  19.292  0.00  0.00    +0.000 NA
ATOM      8  C   UNL     1       1.848   2.096  17.988  0.00  0.00    +0.000 C 
BRANCH   7   9
ATOM      9  C   UNL     1       1.102   2.302  20.278  0.00  0.00    +0.000 C 
BRANCH   9  10
ATOM     10  C   UNL     1       1.386   2.801  21.711  0.00  0.00    +0.000 C 
BRANCH  10  11
ATOM     11  O   UNL     1       2.712   2.453  22.097  0.00  0.00    +0.000 OA
ATOM     12  H   UNL     1       2.601   1.789  22.806  0.00  0.00    +0.000 HD
ENDBRANCH  10  11
ENDBRANCH   9  10
ENDBRANCH   7   9
ENDBRANCH   4   7
BRANCH   1  13
ATOM     13  C   UNL     1       4.637   6.711  17.831  0.00  0.00    +0.000 C 
BRANCH  13  18
ATOM     14  C   UNL     1       7.242   4.597  13.718  0.00  0.00    +0.000 C 
ATOM     15  C   UNL     1       6.848   5.080  15.068  0.00  0.00    +0.000 A 
ATOM     16  N   UNL     1       7.665   5.192  16.089  0.00  0.00    +0.000 NA
ATOM     17  C   UNL     1       6.995   5.708  17.210  0.00  0.00    +0.000 A 
ATOM     18  C   UNL     1       5.655   6.005  16.974  0.00  0.00    +0.000 A 
ATOM     19  S   UNL     1       5.225   5.507  15.381  0.00  0.00    +0.000 S 
BRANCH  17  20
ATOM     20  C   UNL     1       7.742   5.890  18.501  0.00  0.00    +0.000 C 
ATOM     21  F   UNL     1       8.454   7.048  18.545  0.00  0.00    +0.000 F 
ATOM     22  F   UNL     1       6.931   5.902  19.593  0.00  0.00    +0.000 F 
ATOM     23  F   UNL     1       8.631   4.881  18.702  0.00  0.00    +0.000 F 
ENDBRANCH  17  20
ENDBRANCH  13  18
ENDBRANCH   1  13
TORSDOF 7
ENDMDL
MODEL 4
REMARK VINA RESULT:      -6.5      2.506      3.079
REMARK  Name = 
REMARK  10 active torsions:
REMARK  status: ('A' for Active; 'I' for Inactive)
REMARK    1  A    between atoms: C_1  and  C_2
REMARK    2  A    between atoms: C_4  and  C_5
REMARK    3  A    between atoms: C_9  and  C_10
REMARK    4  A    between atoms: C_10  and  N_11
REMARK    5  A    between atoms: C_14  and  N_15
REMARK    6  A    between atoms: N_15  and  C_16
REMARK    7  A    between atoms: N_15  and  C_17
REMARK    8  A    between atoms: C_17  and  C_18
REMARK    9  A    between atoms: C_18  and  O_19
REMARK   10  A    between atoms: C_20  and  C_21
REMARK                            x       y       z     vdW  Elec       q    Type
REMARK                         _______ _______ _______ _____ _____    ______ ____
ROOT
ATOM      1  N   UNL     1       2.268   7.510  19.137  0.00  0.00    +0.000 NA
ATOM      2  C   UNL     1       2.788   8.130  17.934  0.00  0.00    +0.000 C 
ATOM      3  C   UNL     1       1.626   9.036  17.579  0.00  0.00    +0.000 C 
ATOM      4  C   UNL     1       1.142   9.581  18.939  0.00  0.00    +0.000 C 
ATOM      5  C   UNL     1       1.746   8.578  19.996  0.00  0.00    +0.000 C 
ATOM      6  C   UNL     1       0.817   8.085  21.099  0.00  0.00    +0.000 C 
ENDROOT
BRANCH   4   7
ATOM      7  N   UNL     1      -0.286   9.999  18.993  0.00  0.00    +0.000 NA
ATOM      8  C   UNL     1      -1.028   9.705  17.756  0.00  0.00    +0.000 C 
BRANCH   7   9
ATOM      9  C   UNL     1      -0.373  11.452  19.292  0.00  0.00    +0.000 C 
BRANCH   9  10
ATOM     10  C   UNL     1      -1.453  12.186  18.469  0.00  0.00    +0.000 C 
BRANCH  10  11
ATOM     11  O   UNL     1      -0.846  13.151  17.615  0.00  0.00    +0.000 OA
ATOM     12  H   UNL     1      -1.471  13.257  16.871  0.00  0.00    +0.000 HD
ENDBRANCH  10  11
ENDBRANCH   9  10
ENDBRANCH   7   9
ENDBRANCH   4   7
BRANCH   1  13
ATOM     13  C   UNL     1       3.027   6.410  19.697  0.00  0.00    +0.000 C 
BRANCH  13  18
ATOM     14  C   UNL     1       6.165   4.140  16.068  0.00  0.00    +0.000 C 
ATOM     15  C   UNL     1       5.006   4.545  16.907  0.00  0.00    +0.000 A 
ATOM     16  N   UNL     1       3.845   3.932  16.923  0.00  0.00    +0.000 NA
ATOM     17  C   UNL     1       2.974   4.537  17.843  0.00  0.00    +0.000 A 
ATOM     18  C   UNL     1       3.541   5.605  18.532  0.00  0.00    +0.000 A 
ATOM     19  S   UNL     1       5.122   5.915  17.919  0.00  0.00    +0.000 S 
BRANCH  17  20
ATOM     20  C   UNL     1       1.577   4.006  18.000  0.00  0.00    +0.000 C 
ATOM     21  F   UNL     1       1.491   2.664  17.794  0.00  0.00    +0.000 F 
ATOM     22  F   UNL     1       1.051   4.235  19.233  0.00  0.00    +0.000 F 
ATOM     23  F   UNL     1       0.726   4.589  17.112  0.00  0.00    +0.000 F 
ENDBRANCH  17  20
ENDBRANCH  13  18
ENDBRANCH   1  13
TORSDOF 7
ENDMDL
MODEL 5
REMARK VINA RESULT:      -6.4      3.997      5.267
REMARK  Name = 
REMARK  10 active torsions:
REMARK  status: ('A' for Active; 'I' for Inactive)
REMARK    1  A    between atoms: C_1  and  C_2
REMARK    2  A    between atoms: C_4  and  C_5
REMARK    3  A    between atoms: C_9  and  C_10
REMARK    4  A    between atoms: C_10  and  N_11
REMARK    5  A    between atoms: C_14  and  N_15
REMARK    6  A    between atoms: N_15  and  C_16
REMARK    7  A    between atoms: N_15  and  C_17
REMARK    8  A    between atoms: C_17  and  C_18
REMARK    9  A    between atoms: C_18  and  O_19
REMARK   10  A    between atoms: C_20  and  C_21
REMARK                            x       y       z     vdW  Elec       q    Type
REMARK                         _______ _______ _______ _____ _____    ______ ____
ROOT
ATOM      1  N   UNL     1       3.990   4.690  18.019  0.00  0.00    +0.000 NA
ATOM      2  C   UNL     1       5.162   3.964  18.468  0.00  0.00    +0.000 C 
ATOM      3  C   UNL     1       4.519   3.007  19.453  0.00  0.00    +0.000 C 
ATOM      4  C   UNL     1       3.200   2.590  18.770  0.00  0.00    +0.000 C 
ATOM      5  C   UNL     1       2.960   3.703  17.678  0.00  0.00    +0.000 C 
ATOM      6  C   UNL     1       1.556   4.286  17.574  0.00  0.00    +0.000 C 
ENDROOT
BRANCH   4   7
ATOM      7  N   UNL     1       2.111   2.156  19.687  0.00  0.00    +0.000 NA
ATOM      8  C   UNL     1       0.762   2.372  19.137  0.00  0.00    +0.000 C 
BRANCH   7   9
ATOM      9  C   UNL     1       2.238   2.864  20.988  0.00  0.00    +0.000 C 
BRANCH   9  10
ATOM     10  C   UNL     1       1.529   4.235  21.014  0.00  0.00    +0.000 C 
BRANCH  10  11
ATOM     11  O   UNL     1       2.488   5.284  20.916  0.00  0.00    +0.000 OA
ATOM     12  H   UNL     1       2.655   5.557  21.840  0.00  0.00    +0.000 HD
ENDBRANCH  10  11
ENDBRANCH   9  10
ENDBRANCH   7   9
ENDBRANCH   4   7
BRANCH   1  13
ATOM     13  C   UNL     1       4.211   5.852  17.183  0.00  0.00    +0.000 C 
BRANCH  13  18
ATOM     14  C   UNL     1       7.271   4.366  13.110  0.00  0.00    +0.000 C 
ATOM     15  C   UNL     1       6.771   4.885  14.410  0.00  0.00    +0.000 A 
ATOM     16  N   UNL     1       7.490   5.576  15.265  0.00  0.00    +0.000 NA
ATOM     17  C   UNL     1       6.719   5.948  16.378  0.00  0.00    +0.000 A 
ATOM     18  C   UNL     1       5.392   5.533  16.304  0.00  0.00    +0.000 A 
ATOM     19  S   UNL     1       5.165   4.568  14.894  0.00  0.00    +0.000 S 
BRANCH  17  20
ATOM     20  C   UNL     1       7.358   6.724  17.495  0.00  0.00    +0.000 C 
ATOM     21  F   UNL     1       8.187   7.709  17.053  0.00  0.00    +0.000 F 
ATOM     22  F   UNL     1       6.455   7.327  18.314  0.00  0.00    +0.000 F 
ATOM     23  F   UNL     1       8.108   5.915  18.291  0.00  0.00    +0.000 F 
ENDBRANCH  17  20
ENDBRANCH  13  18
ENDBRANCH   1  13
TORSDOF 7
ENDMDL
MODEL 6
REMARK VINA RESULT:      -6.4      2.126      2.524
REMARK  Name = 
REMARK  10 active torsions:
REMARK  status: ('A' for Active; 'I' for Inactive)
REMARK    1  A    between atoms: C_1  and  C_2
REMARK    2  A    between atoms: C_4  and  C_5
REMARK    3  A    between atoms: C_9  and  C_10
REMARK    4  A    between atoms: C_10  and  N_11
REMARK    5  A    between atoms: C_14  and  N_15
REMARK    6  A    between atoms: N_15  and  C_16
REMARK    7  A    between atoms: N_15  and  C_17
REMARK    8  A    between atoms: C_17  and  C_18
REMARK    9  A    between atoms: C_18  and  O_19
REMARK   10  A    between atoms: C_20  and  C_21
REMARK                            x       y       z     vdW  Elec       q    Type
REMARK                         _______ _______ _______ _____ _____    ______ ____
ROOT
ATOM      1  N   UNL     1       2.298   7.414  19.202  0.00  0.00    +0.000 NA
ATOM      2  C   UNL     1       2.768   8.021  17.972  0.00  0.00    +0.000 C 
ATOM      3  C   UNL     1       1.605   8.947  17.674  0.00  0.00    +0.000 C 
ATOM      4  C   UNL     1       1.200   9.504  19.055  0.00  0.00    +0.000 C 
ATOM      5  C   UNL     1       1.839   8.493  20.083  0.00  0.00    +0.000 C 
ATOM      6  C   UNL     1       0.959   8.019  21.232  0.00  0.00    +0.000 C 
ENDROOT
BRANCH   4   7
ATOM      7  N   UNL     1      -0.215   9.947  19.179  0.00  0.00    +0.000 NA
ATOM      8  C   UNL     1      -0.915  10.039  17.887  0.00  0.00    +0.000 C 
BRANCH   7   9
ATOM      9  C   UNL     1      -0.271  11.262  19.870  0.00  0.00    +0.000 C 
BRANCH   9  10
ATOM     10  C   UNL     1      -0.884  11.188  21.285  0.00  0.00    +0.000 C 
BRANCH  10  11
ATOM     11  O   UNL     1       0.120  11.425  22.267  0.00  0.00    +0.000 OA
ATOM     12  H   UNL     1       0.931  11.024  21.898  0.00  0.00    +0.000 HD
ENDBRANCH  10  11
ENDBRANCH   9  10
ENDBRANCH   7   9
ENDBRANCH   4   7
BRANCH   1  13
ATOM     13  C   UNL     1       3.065   6.302  19.726  0.00  0.00    +0.000 C 
BRANCH  13  18
ATOM     14  C   UNL     1       6.145   4.103  16.006  0.00  0.00    +0.000 C 
ATOM     15  C   UNL     1       4.999   4.493  16.869  0.00  0.00    +0.000 A 
ATOM     16  N   UNL     1       3.836   3.884  16.886  0.00  0.00    +0.000 NA
ATOM     17  C   UNL     1       2.979   4.472  17.831  0.00  0.00    +0.000 A 
ATOM     18  C   UNL     1       3.561   5.521  18.537  0.00  0.00    +0.000 A 
ATOM     19  S   UNL     1       5.135   5.839  17.910  0.00  0.00    +0.000 S 
BRANCH  17  20
ATOM     20  C   UNL     1       1.582   3.943  17.993  0.00  0.00    +0.000 C 
ATOM     21  F   UNL     1       1.496   2.599  17.806  0.00  0.00    +0.000 F 
ATOM     22  F   UNL     1       1.055   4.190  19.222  0.00  0.00    +0.000 F 
ATOM     23  F   UNL     1       0.732   4.514  17.097  0.00  0.00    +0.000 F 
ENDBRANCH  17  20
ENDBRANCH  13  18
ENDBRANCH   1  13
TORSDOF 7
ENDMDL
MODEL 7
REMARK VINA RESULT:      -6.3      4.354      5.373
REMARK  Name = 
REMARK  10 active torsions:
REMARK  status: ('A' for Active; 'I' for Inactive)
REMARK    1  A    between atoms: C_1  and  C_2
REMARK    2  A    between atoms: C_4  and  C_5
REMARK    3  A    between atoms: C_9  and  C_10
REMARK    4  A    between atoms: C_10  and  N_11
REMARK    5  A    between atoms: C_14  and  N_15
REMARK    6  A    between atoms: N_15  and  C_16
REMARK    7  A    between atoms: N_15  and  C_17
REMARK    8  A    between atoms: C_17  and  C_18
REMARK    9  A    between atoms: C_18  and  O_19
REMARK   10  A    between atoms: C_20  and  C_21
REMARK                            x       y       z     vdW  Elec       q    Type
REMARK                         _______ _______ _______ _____ _____    ______ ____
ROOT
ATOM      1  N   UNL     1       4.788   4.924  18.904  0.00  0.00    +0.000 NA
ATOM      2  C   UNL     1       3.974   6.119  18.794  0.00  0.00    +0.000 C 
ATOM      3  C   UNL     1       2.620   5.493  18.524  0.00  0.00    +0.000 C 
ATOM      4  C   UNL     1       2.584   4.256  19.446  0.00  0.00    +0.000 C 
ATOM      5  C   UNL     1       4.098   3.998  19.808  0.00  0.00    +0.000 C 
ATOM      6  C   UNL     1       4.599   2.562  19.723  0.00  0.00    +0.000 C 
ENDROOT
BRANCH   4   7
ATOM      7  N   UNL     1       1.693   3.149  19.002  0.00  0.00    +0.000 NA
ATOM      8  C   UNL     1       0.922   3.471  17.789  0.00  0.00    +0.000 C 
BRANCH   7   9
ATOM      9  C   UNL     1       0.762   2.783  20.101  0.00  0.00    +0.000 C 
BRANCH   9  10
ATOM     10  C   UNL     1       1.256   3.219  21.497  0.00  0.00    +0.000 C 
BRANCH  10  11
ATOM     11  O   UNL     1       1.915   2.135  22.144  0.00  0.00    +0.000 OA
ATOM     12  H   UNL     1       1.457   2.039  23.002  0.00  0.00    +0.000 HD
ENDBRANCH  10  11
ENDBRANCH   9  10
ENDBRANCH   7   9
ENDBRANCH   4   7
BRANCH   1  13
ATOM     13  C   UNL     1       6.223   5.104  18.979  0.00  0.00    +0.000 C 
BRANCH  13  18
ATOM     14  C   UNL     1       6.992   4.607  13.751  0.00  0.00    +0.000 C 
ATOM     15  C   UNL     1       7.012   5.071  15.163  0.00  0.00    +0.000 A 
ATOM     16  N   UNL     1       7.455   6.242  15.559  0.00  0.00    +0.000 NA
ATOM     17  C   UNL     1       7.307   6.389  16.948  0.00  0.00    +0.000 A 
ATOM     18  C   UNL     1       6.708   5.294  17.565  0.00  0.00    +0.000 A 
ATOM     19  S   UNL     1       6.460   4.041  16.407  0.00  0.00    +0.000 S 
BRANCH  17  20
ATOM     20  C   UNL     1       7.779   7.650  17.614  0.00  0.00    +0.000 C 
ATOM     21  F   UNL     1       8.381   7.426  18.813  0.00  0.00    +0.000 F 
ATOM     22  F   UNL     1       8.672   8.350  16.865  0.00  0.00    +0.000 F 
ATOM     23  F   UNL     1       6.742   8.497  17.854  0.00  0.00    +0.000 F 
ENDBRANCH  17  20
ENDBRANCH  13  18
ENDBRANCH   1  13
TORSDOF 7
ENDMDL
MODEL 8
REMARK VINA RESULT:      -6.3      4.292      5.197
REMARK  Name = 
REMARK  10 active torsions:
REMARK  status: ('A' for Active; 'I' for Inactive)
REMARK    1  A    between atoms: C_1  and  C_2
REMARK    2  A    between atoms: C_4  and  C_5
REMARK    3  A    between atoms: C_9  and  C_10
REMARK    4  A    between atoms: C_10  and  N_11
REMARK    5  A    between atoms: C_14  and  N_15
REMARK    6  A    between atoms: N_15  and  C_16
REMARK    7  A    between atoms: N_15  and  C_17
REMARK    8  A    between atoms: C_17  and  C_18
REMARK    9  A    between atoms: C_18  and  O_19
REMARK   10  A    between atoms: C_20  and  C_21
REMARK                            x       y       z     vdW  Elec       q    Type
REMARK                         _______ _______ _______ _____ _____    ______ ____
ROOT
ATOM      1  N   UNL     1       4.074   4.024  18.169  0.00  0.00    +0.000 NA
ATOM      2  C   UNL     1       3.488   5.230  17.616  0.00  0.00    +0.000 C 
ATOM      3  C   UNL     1       2.099   5.148  18.217  0.00  0.00    +0.000 C 
ATOM      4  C   UNL     1       2.336   4.635  19.653  0.00  0.00    +0.000 C 
ATOM      5  C   UNL     1       3.782   4.007  19.606  0.00  0.00    +0.000 C 
ATOM      6  C   UNL     1       3.970   2.643  20.258  0.00  0.00    +0.000 C 
ENDROOT
BRANCH   4   7
ATOM      7  N   UNL     1       1.194   3.909  20.273  0.00  0.00    +0.000 NA
ATOM      8  C   UNL     1       1.601   2.991  21.350  0.00  0.00    +0.000 C 
BRANCH   7   9
ATOM      9  C   UNL     1       0.453   3.155  19.228  0.00  0.00    +0.000 C 
BRANCH   9  10
ATOM     10  C   UNL     1       1.053   1.763  18.933  0.00  0.00    +0.000 C 
BRANCH  10  11
ATOM     11  O   UNL     1       1.795   1.799  17.717  0.00  0.00    +0.000 OA
ATOM     12  H   UNL     1       2.533   2.416  17.892  0.00  0.00    +0.000 HD
ENDBRANCH  10  11
ENDBRANCH   9  10
ENDBRANCH   7   9
ENDBRANCH   4   7
BRANCH   1  13
ATOM     13  C   UNL     1       5.377   3.633  17.670  0.00  0.00    +0.000 C 
BRANCH  13  18
ATOM     14  C   UNL     1       8.259   8.066  18.117  0.00  0.00    +0.000 C 
ATOM     15  C   UNL     1       7.482   6.911  17.598  0.00  0.00    +0.000 A 
ATOM     16  N   UNL     1       7.437   6.546  16.338  0.00  0.00    +0.000 NA
ATOM     17  C   UNL     1       6.644   5.399  16.178  0.00  0.00    +0.000 A 
ATOM     18  C   UNL     1       6.125   4.906  17.373  0.00  0.00    +0.000 A 
ATOM     19  S   UNL     1       6.537   5.970  18.664  0.00  0.00    +0.000 S 
BRANCH  17  20
ATOM     20  C   UNL     1       6.435   4.827  14.804  0.00  0.00    +0.000 C 
ATOM     21  F   UNL     1       6.550   3.472  14.768  0.00  0.00    +0.000 F 
ATOM     22  F   UNL     1       5.214   5.119  14.281  0.00  0.00    +0.000 F 
ATOM     23  F   UNL     1       7.350   5.317  13.923  0.00  0.00    +0.000 F 
ENDBRANCH  17  20
ENDBRANCH  13  18
ENDBRANCH   1  13
TORSDOF 7
ENDMDL
MODEL 9
REMARK VINA RESULT:      -6.2      4.055      5.433
REMARK  Name = 
REMARK  10 active torsions:
REMARK  status: ('A' for Active; 'I' for Inactive)
REMARK    1  A    between atoms: C_1  and  C_2
REMARK    2  A    between atoms: C_4  and  C_5
REMARK    3  A    between atoms: C_9  and  C_10
REMARK    4  A    between atoms: C_10  and  N_11
REMARK    5  A    between atoms: C_14  and  N_15
REMARK    6  A    between atoms: N_15  and  C_16
REMARK    7  A    between atoms: N_15  and  C_17
REMARK    8  A    between atoms: C_17  and  C_18
REMARK    9  A    between atoms: C_18  and  O_19
REMARK   10  A    between atoms: C_20  and  C_21
REMARK                            x       y       z     vdW  Elec       q    Type
REMARK                         _______ _______ _______ _____ _____    ______ ____
ROOT
ATOM      1  N   UNL     1       3.719   4.590  17.783  0.00  0.00    +0.000 NA
ATOM      2  C   UNL     1       3.367   3.554  16.832  0.00  0.00    +0.000 C 
ATOM      3  C   UNL     1       2.995   2.435  17.785  0.00  0.00    +0.000 C 
ATOM      4  C   UNL     1       2.234   3.145  18.925  0.00  0.00    +0.000 C 
ATOM      5  C   UNL     1       2.647   4.661  18.781  0.00  0.00    +0.000 C 
ATOM      6  C   UNL     1       3.036   5.400  20.054  0.00  0.00    +0.000 C 
ENDROOT
BRANCH   4   7
ATOM      7  N   UNL     1       2.262   2.455  20.243  0.00  0.00    +0.000 NA
ATOM      8  C   UNL     1       1.171   2.869  21.142  0.00  0.00    +0.000 C 
BRANCH   7   9
ATOM      9  C   UNL     1       3.571   2.693  20.907  0.00  0.00    +0.000 C 
BRANCH   9  10
ATOM     10  C   UNL     1       4.693   1.761  20.403  0.00  0.00    +0.000 C 
BRANCH  10  11
ATOM     11  O   UNL     1       5.517   1.353  21.492  0.00  0.00    +0.000 OA
ATOM     12  H   UNL     1       6.419   1.303  21.118  0.00  0.00    +0.000 HD
ENDBRANCH  10  11
ENDBRANCH   9  10
ENDBRANCH   7   9
ENDBRANCH   4   7
BRANCH   1  13
ATOM     13  C   UNL     1       4.323   5.796  17.255  0.00  0.00    +0.000 C 
BRANCH  13  18
ATOM     14  C   UNL     1       7.490   4.749  13.126  0.00  0.00    +0.000 C 
ATOM     15  C   UNL     1       6.929   4.925  14.491  0.00  0.00    +0.000 A 
ATOM     16  N   UNL     1       7.635   4.904  15.598  0.00  0.00    +0.000 NA
ATOM     17  C   UNL     1       6.818   5.135  16.716  0.00  0.00    +0.000 A 
ATOM     18  C   UNL     1       5.482   5.357  16.396  0.00  0.00    +0.000 A 
ATOM     19  S   UNL     1       5.249   5.145  14.702  0.00  0.00    +0.000 S 
BRANCH  17  20
ATOM     20  C   UNL     1       7.424   5.125  18.091  0.00  0.00    +0.000 C 
ATOM     21  F   UNL     1       7.945   6.329  18.452  0.00  0.00    +0.000 F 
ATOM     22  F   UNL     1       6.538   4.788  19.065  0.00  0.00    +0.000 F 
ATOM     23  F   UNL     1       8.439   4.223  18.175  0.00  0.00    +0.000 F 
ENDBRANCH  17  20
ENDBRANCH  13  18
ENDBRANCH   1  13
TORSDOF 7
ENDMDL
