MODEL 1
REMARK VINA RESULT:      -9.0      0.000      0.000
REMARK  Name = 
REMARK  5 active torsions:
REMARK  status: ('A' for Active; 'I' for Inactive)
REMARK    1  A    between atoms: C_1  and  C_2
REMARK    2  A    between atoms: C_9  and  C_11
REMARK    3  A    between atoms: C_11  and  S_12
REMARK    4  A    between atoms: S_12  and  C_13
REMARK    5  A    between atoms: N_19  and  C_20
REMARK                            x       y       z     vdW  Elec       q    Type
REMARK                         _______ _______ _______ _____ _____    ______ ____
ROOT
ATOM      1  S   UNL     1       2.581   7.144  19.166  0.00  0.00    +0.000 S 
ENDROOT
BRANCH   1   2
ATOM      2  C   UNL     1       3.483   6.111  18.055  0.00  0.00    +0.000 A 
ATOM      3  N   UNL     1       4.203   6.676  17.129  0.00  0.00    +0.000 NA
ATOM      4  C   UNL     1       4.958   5.833  16.349  0.00  0.00    +0.000 A 
ATOM      5  C   UNL     1       5.062   4.515  16.524  0.00  0.00    +0.000 A 
ATOM      6  C   UNL     1       4.295   3.860  17.596  0.00  0.00    +0.000 A 
ATOM      7  O   UNL     1       4.412   2.650  17.799  0.00  0.00    +0.000 OA
ATOM      8  N   UNL     1       3.449   4.725  18.292  0.00  0.00    +0.000 N 
ATOM      9  S   UNL     1       6.119   3.698  15.448  0.00  0.00    +0.000 S 
ATOM     10  C   UNL     1       6.232   5.163  14.365  0.00  0.00    +0.000 C 
ATOM     11  C   UNL     1       5.799   6.361  15.224  0.00  0.00    +0.000 C 
BRANCH   8  12
ATOM     12  C   UNL     1       2.614   4.140  19.293  0.00  0.00    +0.000 A 
ATOM     13  C   UNL     1       1.363   3.615  18.939  0.00  0.00    +0.000 A 
ATOM     14  C   UNL     1       0.565   2.992  19.898  0.00  0.00    +0.000 A 
ATOM     15  C   UNL     1       0.999   2.912  21.220  0.00  0.00    +0.000 A 
ATOM     16  C   UNL     1       2.225   3.465  21.590  0.00  0.00    +0.000 A 
ATOM     17  C   UNL     1       3.032   4.079  20.630  0.00  0.00    +0.000 A 
ENDBRANCH   8  12
ENDBRANCH   1   2
BRANCH   1  18
ATOM     18  C   UNL     1       2.222   8.623  18.208  0.00  0.00    +0.000 C 
BRANCH  18  27
ATOM     19  C   UNL     1      -6.362  13.238  19.200  0.00  0.00    +0.000 C 
ATOM     20  C   UNL     1      -5.251  12.446  18.571  0.00  0.00    +0.000 A 
ATOM     21  C   UNL     1      -5.409  11.844  17.321  0.00  0.00    +0.000 A 
ATOM     22  C   UNL     1      -4.365  11.113  16.736  0.00  0.00    +0.000 A 
ATOM     23  C   UNL     1      -3.141  10.973  17.418  0.00  0.00    +0.000 A 
ATOM     24  N   UNL     1      -2.025  10.277  16.973  0.00  0.00    +0.000 NA
ATOM     25  C   UNL     1      -1.097  10.309  17.900  0.00  0.00    +0.000 A 
ATOM     26  N   UNL     1       0.100   9.659  17.732  0.00  0.00    +0.000 N 
ATOM     27  C   UNL     1       1.004   9.361  18.730  0.00  0.00    +0.000 C 
ATOM     28  O   UNL     1       0.901   9.646  19.921  0.00  0.00    +0.000 OA
ATOM     29  S   UNL     1      -1.438  11.239  19.280  0.00  0.00    +0.000 S 
ATOM     30  C   UNL     1      -3.005  11.574  18.669  0.00  0.00    +0.000 A 
ATOM     31  C   UNL     1      -4.037  12.316  19.261  0.00  0.00    +0.000 A 
ATOM     32  H   UNL     1       0.174   9.188  16.841  0.00  0.00    +0.000 HD
ENDBRANCH  18  27
ENDBRANCH   1  18
TORSDOF 4
ENDMDL
MODEL 2
REMARK VINA RESULT:      -8.7      2.915      5.019
REMARK  Name = 
REMARK  5 active torsions:
REMARK  status: ('A' for Active; 'I' for Inactive)
REMARK    1  A    between atoms: C_1  and  C_2
REMARK    2  A    between atoms: C_9  and  C_11
REMARK    3  A    between atoms: C_11  and  S_12
REMARK    4  A    between atoms: S_12  and  C_13
REMARK    5  A    between atoms: N_19  and  C_20
REMARK                            x       y       z     vdW  Elec       q    Type
REMARK                         _______ _______ _______ _____ _____    ______ ____
ROOT
ATOM      1  S   UNL     1       4.592   7.080  18.205  0.00  0.00    +0.000 S 
ENDROOT
BRANCH   1   2
ATOM      2  C   UNL     1       3.964   5.525  18.757  0.00  0.00    +0.000 A 
ATOM      3  N   UNL     1       3.151   5.509  19.774  0.00  0.00    +0.000 NA
ATOM      4  C   UNL     1       2.618   4.287  20.105  0.00  0.00    +0.000 A 
ATOM      5  C   UNL     1       2.809   3.157  19.424  0.00  0.00    +0.000 A 
ATOM      6  C   UNL     1       3.686   3.160  18.241  0.00  0.00    +0.000 A 
ATOM      7  O   UNL     1       3.840   2.134  17.575  0.00  0.00    +0.000 OA
ATOM      8  N   UNL     1       4.305   4.388  18.001  0.00  0.00    +0.000 N 
ATOM      9  S   UNL     1       1.981   1.776  20.015  0.00  0.00    +0.000 S 
ATOM     10  C   UNL     1       1.561   2.632  21.571  0.00  0.00    +0.000 C 
ATOM     11  C   UNL     1       1.699   4.134  21.282  0.00  0.00    +0.000 C 
BRANCH   8  12
ATOM     12  C   UNL     1       5.232   4.439  16.916  0.00  0.00    +0.000 A 
ATOM     13  C   UNL     1       4.762   4.434  15.596  0.00  0.00    +0.000 A 
ATOM     14  C   UNL     1       5.657   4.540  14.530  0.00  0.00    +0.000 A 
ATOM     15  C   UNL     1       7.026   4.625  14.777  0.00  0.00    +0.000 A 
ATOM     16  C   UNL     1       7.506   4.592  16.086  0.00  0.00    +0.000 A 
ATOM     17  C   UNL     1       6.613   4.499  17.155  0.00  0.00    +0.000 A 
ENDBRANCH   8  12
ENDBRANCH   1   2
BRANCH   1  18
ATOM     18  C   UNL     1       3.321   7.706  17.098  0.00  0.00    +0.000 C 
BRANCH  18  27
ATOM     19  C   UNL     1      -2.510  12.828  23.076  0.00  0.00    +0.000 C 
ATOM     20  C   UNL     1      -1.635  11.716  22.572  0.00  0.00    +0.000 A 
ATOM     21  C   UNL     1      -1.249  10.664  23.404  0.00  0.00    +0.000 A 
ATOM     22  C   UNL     1      -0.439   9.624  22.924  0.00  0.00    +0.000 A 
ATOM     23  C   UNL     1       0.002   9.642  21.587  0.00  0.00    +0.000 A 
ATOM     24  N   UNL     1       0.809   8.694  20.973  0.00  0.00    +0.000 NA
ATOM     25  C   UNL     1       1.066   9.073  19.744  0.00  0.00    +0.000 A 
ATOM     26  N   UNL     1       1.880   8.333  18.926  0.00  0.00    +0.000 N 
ATOM     27  C   UNL     1       2.465   8.773  17.755  0.00  0.00    +0.000 C 
ATOM     28  O   UNL     1       2.335   9.882  17.244  0.00  0.00    +0.000 OA
ATOM     29  S   UNL     1       0.293  10.490  19.214  0.00  0.00    +0.000 S 
ATOM     30  C   UNL     1      -0.388  10.705  20.773  0.00  0.00    +0.000 A 
ATOM     31  C   UNL     1      -1.205  11.746  21.238  0.00  0.00    +0.000 A 
ATOM     32  H   UNL     1       2.229   7.493  19.366  0.00  0.00    +0.000 HD
ENDBRANCH  18  27
ENDBRANCH   1  18
TORSDOF 4
ENDMDL
MODEL 3
REMARK VINA RESULT:      -8.5      2.840      9.589
REMARK  Name = 
REMARK  5 active torsions:
REMARK  status: ('A' for Active; 'I' for Inactive)
REMARK    1  A    between atoms: C_1  and  C_2
REMARK    2  A    between atoms: C_9  and  C_11
REMARK    3  A    between atoms: C_11  and  S_12
REMARK    4  A    between atoms: S_12  and  C_13
REMARK    5  A    between atoms: N_19  and  C_20
REMARK                            x       y       z     vdW  Elec       q    Type
REMARK                         _______ _______ _______ _____ _____    ______ ____
ROOT
ATOM      1  S   UNL     1       0.647  10.915  20.356  0.00  0.00    +0.000 S 
ENDROOT
BRANCH   1   2
ATOM      2  C   UNL     1      -0.800  11.157  19.374  0.00  0.00    +0.000 A 
ATOM      3  N   UNL     1      -0.912  10.492  18.260  0.00  0.00    +0.000 NA
ATOM      4  C   UNL     1      -2.096  10.645  17.579  0.00  0.00    +0.000 A 
ATOM      5  C   UNL     1      -3.143  11.348  18.011  0.00  0.00    +0.000 A 
ATOM      6  C   UNL     1      -3.058  12.068  19.292  0.00  0.00    +0.000 A 
ATOM      7  O   UNL     1      -4.031  12.688  19.727  0.00  0.00    +0.000 OA
ATOM      8  N   UNL     1      -1.804  11.990  19.900  0.00  0.00    +0.000 N 
ATOM      9  S   UNL     1      -4.526  11.331  16.997  0.00  0.00    +0.000 S 
ATOM     10  C   UNL     1      -3.575  10.594  15.625  0.00  0.00    +0.000 C 
ATOM     11  C   UNL     1      -2.329   9.961  16.263  0.00  0.00    +0.000 C 
BRANCH   8  12
ATOM     12  C   UNL     1      -1.627  12.735  21.106  0.00  0.00    +0.000 A 
ATOM     13  C   UNL     1      -2.040  12.190  22.329  0.00  0.00    +0.000 A 
ATOM     14  C   UNL     1      -1.820  12.886  23.519  0.00  0.00    +0.000 A 
ATOM     15  C   UNL     1      -1.213  14.139  23.490  0.00  0.00    +0.000 A 
ATOM     16  C   UNL     1      -0.833  14.707  22.275  0.00  0.00    +0.000 A 
ATOM     17  C   UNL     1      -1.039  14.009  21.083  0.00  0.00    +0.000 A 
ENDBRANCH   8  12
ENDBRANCH   1   2
BRANCH   1  18
ATOM     18  C   UNL     1       0.328   9.388  21.249  0.00  0.00    +0.000 C 
BRANCH  18  27
ATOM     19  C   UNL     1       5.887   3.457  15.782  0.00  0.00    +0.000 C 
ATOM     20  C   UNL     1       5.195   4.705  16.251  0.00  0.00    +0.000 A 
ATOM     21  C   UNL     1       5.454   5.943  15.659  0.00  0.00    +0.000 A 
ATOM     22  C   UNL     1       4.798   7.103  16.096  0.00  0.00    +0.000 A 
ATOM     23  C   UNL     1       3.870   7.025  17.153  0.00  0.00    +0.000 A 
ATOM     24  N   UNL     1       3.152   8.081  17.697  0.00  0.00    +0.000 NA
ATOM     25  C   UNL     1       2.437   7.644  18.706  0.00  0.00    +0.000 A 
ATOM     26  N   UNL     1       1.661   8.495  19.451  0.00  0.00    +0.000 N 
ATOM     27  C   UNL     1       1.126   8.223  20.693  0.00  0.00    +0.000 C 
ATOM     28  O   UNL     1       1.235   7.174  21.324  0.00  0.00    +0.000 OA
ATOM     29  S   UNL     1       2.483   5.971  18.996  0.00  0.00    +0.000 S 
ATOM     30  C   UNL     1       3.631   5.782  17.736  0.00  0.00    +0.000 A 
ATOM     31  C   UNL     1       4.273   4.613  17.303  0.00  0.00    +0.000 A 
ATOM     32  H   UNL     1       1.700   9.453  19.129  0.00  0.00    +0.000 HD
ENDBRANCH  18  27
ENDBRANCH   1  18
TORSDOF 4
ENDMDL
MODEL 4
REMARK VINA RESULT:      -8.4      3.611     10.227
REMARK  Name = 
REMARK  5 active torsions:
REMARK  status: ('A' for Active; 'I' for Inactive)
REMARK    1  A    between atoms: C_1  and  C_2
REMARK    2  A    between atoms: C_9  and  C_11
REMARK    3  A    between atoms: C_11  and  S_12
REMARK    4  A    between atoms: S_12  and  C_13
REMARK    5  A    between atoms: N_19  and  C_20
REMARK                            x       y       z     vdW  Elec       q    Type
REMARK                         _______ _______ _______ _____ _____    ______ ____
ROOT
ATOM      1  S   UNL     1      -2.021  13.060  19.585  0.00  0.00    +0.000 S 
ENDROOT
BRANCH   1   2
ATOM      2  C   UNL     1      -3.643  12.559  20.068  0.00  0.00    +0.000 A 
ATOM      3  N   UNL     1      -4.133  13.030  21.180  0.00  0.00    +0.000 NA
ATOM      4  C   UNL     1      -5.431  12.684  21.464  0.00  0.00    +0.000 A 
ATOM      5  C   UNL     1      -6.232  11.982  20.661  0.00  0.00    +0.000 A 
ATOM      6  C   UNL     1      -5.715  11.481  19.377  0.00  0.00    +0.000 A 
ATOM      7  O   UNL     1      -6.454  10.867  18.603  0.00  0.00    +0.000 OA
ATOM      8  N   UNL     1      -4.361  11.747  19.171  0.00  0.00    +0.000 N 
ATOM      9  S   UNL     1      -7.832  11.735  21.227  0.00  0.00    +0.000 S 
ATOM     10  C   UNL     1      -7.385  12.315  22.898  0.00  0.00    +0.000 C 
ATOM     11  C   UNL     1      -6.094  13.131  22.735  0.00  0.00    +0.000 C 
BRANCH   8  12
ATOM     12  C   UNL     1      -3.775  11.217  17.981  0.00  0.00    +0.000 A 
ATOM     13  C   UNL     1      -2.743  10.272  18.072  0.00  0.00    +0.000 A 
ATOM     14  C   UNL     1      -2.203   9.708  16.916  0.00  0.00    +0.000 A 
ATOM     15  C   UNL     1      -2.671  10.103  15.664  0.00  0.00    +0.000 A 
ATOM     16  C   UNL     1      -3.669  11.071  15.562  0.00  0.00    +0.000 A 
ATOM     17  C   UNL     1      -4.221  11.629  16.717  0.00  0.00    +0.000 A 
ENDBRANCH   8  12
ENDBRANCH   1   2
BRANCH   1  18
ATOM     18  C   UNL     1      -1.058  12.972  21.101  0.00  0.00    +0.000 C 
BRANCH  18  27
ATOM     19  C   UNL     1       3.890   4.684  19.429  0.00  0.00    +0.000 C 
ATOM     20  C   UNL     1       3.233   6.010  19.173  0.00  0.00    +0.000 A 
ATOM     21  C   UNL     1       3.379   6.666  17.948  0.00  0.00    +0.000 A 
ATOM     22  C   UNL     1       2.756   7.899  17.712  0.00  0.00    +0.000 A 
ATOM     23  C   UNL     1       1.977   8.495  18.723  0.00  0.00    +0.000 A 
ATOM     24  N   UNL     1       1.309   9.709  18.641  0.00  0.00    +0.000 NA
ATOM     25  C   UNL     1       0.744   9.971  19.796  0.00  0.00    +0.000 A 
ATOM     26  N   UNL     1       0.051  11.137  20.001  0.00  0.00    +0.000 N 
ATOM     27  C   UNL     1      -0.309  11.658  21.227  0.00  0.00    +0.000 C 
ATOM     28  O   UNL     1      -0.091  11.159  22.328  0.00  0.00    +0.000 OA
ATOM     29  S   UNL     1       0.872   8.770  20.990  0.00  0.00    +0.000 S 
ATOM     30  C   UNL     1       1.849   7.829  19.941  0.00  0.00    +0.000 A 
ATOM     31  C   UNL     1       2.459   6.590  20.188  0.00  0.00    +0.000 A 
ATOM     32  H   UNL     1       0.022  11.731  19.184  0.00  0.00    +0.000 HD
ENDBRANCH  18  27
ENDBRANCH   1  18
TORSDOF 4
ENDMDL
MODEL 5
REMARK VINA RESULT:      -8.4      3.029      5.053
REMARK  Name = 
REMARK  5 active torsions:
REMARK  status: ('A' for Active; 'I' for Inactive)
REMARK    1  A    between atoms: C_1  and  C_2
REMARK    2  A    between atoms: C_9  and  C_11
REMARK    3  A    between atoms: C_11  and  S_12
REMARK    4  A    between atoms: S_12  and  C_13
REMARK    5  A    between atoms: N_19  and  C_20
REMARK                            x       y       z     vdW  Elec       q    Type
REMARK                         _______ _______ _______ _____ _____    ______ ____
ROOT
ATOM      1  S   UNL     1       4.199   7.270  17.885  0.00  0.00    +0.000 S 
ENDROOT
BRANCH   1   2
ATOM      2  C   UNL     1       3.660   5.707  18.504  0.00  0.00    +0.000 A 
ATOM      3  N   UNL     1       2.770   5.690  19.455  0.00  0.00    +0.000 NA
ATOM      4  C   UNL     1       2.316   4.451  19.837  0.00  0.00    +0.000 A 
ATOM      5  C   UNL     1       2.656   3.298  19.261  0.00  0.00    +0.000 A 
ATOM      6  C   UNL     1       3.624   3.297  18.152  0.00  0.00    +0.000 A 
ATOM      7  O   UNL     1       3.918   2.245  17.579  0.00  0.00    +0.000 OA
ATOM      8  N   UNL     1       4.156   4.556  17.866  0.00  0.00    +0.000 N 
ATOM      9  S   UNL     1       1.901   1.893  19.891  0.00  0.00    +0.000 S 
ATOM     10  C   UNL     1       1.283   2.814  21.341  0.00  0.00    +0.000 C 
ATOM     11  C   UNL     1       1.319   4.298  20.949  0.00  0.00    +0.000 C 
BRANCH   8  12
ATOM     12  C   UNL     1       5.162   4.614  16.854  0.00  0.00    +0.000 A 
ATOM     13  C   UNL     1       6.515   4.662  17.219  0.00  0.00    +0.000 A 
ATOM     14  C   UNL     1       7.507   4.662  16.237  0.00  0.00    +0.000 A 
ATOM     15  C   UNL     1       7.154   4.643  14.890  0.00  0.00    +0.000 A 
ATOM     16  C   UNL     1       5.810   4.634  14.517  0.00  0.00    +0.000 A 
ATOM     17  C   UNL     1       4.814   4.621  15.496  0.00  0.00    +0.000 A 
ENDBRANCH   8  12
ENDBRANCH   1   2
BRANCH   1  18
ATOM     18  C   UNL     1       2.734   7.972  17.114  0.00  0.00    +0.000 C 
BRANCH  18  27
ATOM     19  C   UNL     1      -1.781  13.978  23.400  0.00  0.00    +0.000 C 
ATOM     20  C   UNL     1      -1.273  12.706  22.782  0.00  0.00    +0.000 A 
ATOM     21  C   UNL     1      -1.382  11.484  23.448  0.00  0.00    +0.000 A 
ATOM     22  C   UNL     1      -0.914  10.299  22.862  0.00  0.00    +0.000 A 
ATOM     23  C   UNL     1      -0.315  10.338  21.588  0.00  0.00    +0.000 A 
ATOM     24  N   UNL     1       0.200   9.257  20.886  0.00  0.00    +0.000 NA
ATOM     25  C   UNL     1       0.736   9.682  19.767  0.00  0.00    +0.000 A 
ATOM     26  N   UNL     1       1.355   8.818  18.900  0.00  0.00    +0.000 N 
ATOM     27  C   UNL     1       2.208   9.175  17.875  0.00  0.00    +0.000 C 
ATOM     28  O   UNL     1       2.532  10.316  17.555  0.00  0.00    +0.000 OA
ATOM     29  S   UNL     1       0.566  11.338  19.429  0.00  0.00    +0.000 S 
ATOM     30  C   UNL     1      -0.207  11.569  20.942  0.00  0.00    +0.000 A 
ATOM     31  C   UNL     1      -0.681  12.760  21.513  0.00  0.00    +0.000 A 
ATOM     32  H   UNL     1       1.336   7.858  19.215  0.00  0.00    +0.000 HD
ENDBRANCH  18  27
ENDBRANCH   1  18
TORSDOF 4
ENDMDL
MODEL 6
REMARK VINA RESULT:      -8.3      2.825      9.449
REMARK  Name = 
REMARK  5 active torsions:
REMARK  status: ('A' for Active; 'I' for Inactive)
REMARK    1  A    between atoms: C_1  and  C_2
REMARK    2  A    between atoms: C_9  and  C_11
REMARK    3  A    between atoms: C_11  and  S_12
REMARK    4  A    between atoms: S_12  and  C_13
REMARK    5  A    between atoms: N_19  and  C_20
REMARK                            x       y       z     vdW  Elec       q    Type
REMARK                         _______ _______ _______ _____ _____    ______ ____
ROOT
ATOM      1  S   UNL     1      -0.551   9.845  21.014  0.00  0.00    +0.000 S 
ENDROOT
BRANCH   1   2
ATOM      2  C   UNL     1       0.085  11.410  20.504  0.00  0.00    +0.000 A 
ATOM      3  N   UNL     1       1.122  11.892  21.127  0.00  0.00    +0.000 NA
ATOM      4  C   UNL     1       1.634  13.067  20.633  0.00  0.00    +0.000 A 
ATOM      5  C   UNL     1       1.203  13.691  19.537  0.00  0.00    +0.000 A 
ATOM      6  C   UNL     1       0.063  13.139  18.787  0.00  0.00    +0.000 A 
ATOM      7  O   UNL     1      -0.321  13.679  17.747  0.00  0.00    +0.000 OA
ATOM      8  N   UNL     1      -0.509  12.012  19.380  0.00  0.00    +0.000 N 
ATOM      9  S   UNL     1       2.055  15.114  19.101  0.00  0.00    +0.000 S 
ATOM     10  C   UNL     1       2.905  15.161  20.714  0.00  0.00    +0.000 C 
ATOM     11  C   UNL     1       2.804  13.741  21.291  0.00  0.00    +0.000 C 
BRANCH   8  12
ATOM     12  C   UNL     1      -1.671  11.473  18.747  0.00  0.00    +0.000 A 
ATOM     13  C   UNL     1      -1.539  10.436  17.814  0.00  0.00    +0.000 A 
ATOM     14  C   UNL     1      -2.672   9.865  17.233  0.00  0.00    +0.000 A 
ATOM     15  C   UNL     1      -3.939  10.345  17.560  0.00  0.00    +0.000 A 
ATOM     16  C   UNL     1      -4.078  11.402  18.458  0.00  0.00    +0.000 A 
ATOM     17  C   UNL     1      -2.948  11.968  19.051  0.00  0.00    +0.000 A 
ENDBRANCH   8  12
ENDBRANCH   1   2
BRANCH   1  18
ATOM     18  C   UNL     1       0.914   8.848  21.320  0.00  0.00    +0.000 C 
BRANCH  18  27
ATOM     19  C   UNL     1       6.119   4.355  14.342  0.00  0.00    +0.000 C 
ATOM     20  C   UNL     1       5.401   4.578  15.643  0.00  0.00    +0.000 A 
ATOM     21  C   UNL     1       5.200   3.533  16.547  0.00  0.00    +0.000 A 
ATOM     22  C   UNL     1       4.536   3.750  17.763  0.00  0.00    +0.000 A 
ATOM     23  C   UNL     1       4.055   5.036  18.078  0.00  0.00    +0.000 A 
ATOM     24  N   UNL     1       3.376   5.401  19.233  0.00  0.00    +0.000 NA
ATOM     25  C   UNL     1       3.027   6.663  19.149  0.00  0.00    +0.000 A 
ATOM     26  N   UNL     1       2.304   7.269  20.144  0.00  0.00    +0.000 N 
ATOM     27  C   UNL     1       1.625   8.465  20.035  0.00  0.00    +0.000 C 
ATOM     28  O   UNL     1       1.574   9.192  19.045  0.00  0.00    +0.000 OA
ATOM     29  S   UNL     1       3.567   7.507  17.777  0.00  0.00    +0.000 S 
ATOM     30  C   UNL     1       4.258   6.064  17.159  0.00  0.00    +0.000 A 
ATOM     31  C   UNL     1       4.929   5.863  15.944  0.00  0.00    +0.000 A 
ATOM     32  H   UNL     1       2.097   6.652  20.917  0.00  0.00    +0.000 HD
ENDBRANCH  18  27
ENDBRANCH   1  18
TORSDOF 4
ENDMDL
MODEL 7
REMARK VINA RESULT:      -8.2      3.252     10.144
REMARK  Name = 
REMARK  5 active torsions:
REMARK  status: ('A' for Active; 'I' for Inactive)
REMARK    1  A    between atoms: C_1  and  C_2
REMARK    2  A    between atoms: C_9  and  C_11
REMARK    3  A    between atoms: C_11  and  S_12
REMARK    4  A    between atoms: S_12  and  C_13
REMARK    5  A    between atoms: N_19  and  C_20
REMARK                            x       y       z     vdW  Elec       q    Type
REMARK                         _______ _______ _______ _____ _____    ______ ____
ROOT
ATOM      1  S   UNL     1      -1.360  12.492  19.117  0.00  0.00    +0.000 S 
ENDROOT
BRANCH   1   2
ATOM      2  C   UNL     1      -3.016  12.356  19.711  0.00  0.00    +0.000 A 
ATOM      3  N   UNL     1      -3.320  12.930  20.840  0.00  0.00    +0.000 NA
ATOM      4  C   UNL     1      -4.641  12.875  21.212  0.00  0.00    +0.000 A 
ATOM      5  C   UNL     1      -5.624  12.356  20.475  0.00  0.00    +0.000 A 
ATOM      6  C   UNL     1      -5.313  11.745  19.173  0.00  0.00    +0.000 A 
ATOM      7  O   UNL     1      -6.215  11.299  18.460  0.00  0.00    +0.000 OA
ATOM      8  N   UNL     1      -3.949  11.711  18.878  0.00  0.00    +0.000 N 
ATOM      9  S   UNL     1      -7.200  12.465  21.145  0.00  0.00    +0.000 S 
ATOM     10  C   UNL     1      -6.530  12.948  22.772  0.00  0.00    +0.000 C 
ATOM     11  C   UNL     1      -5.107  13.465  22.511  0.00  0.00    +0.000 C 
BRANCH   8  12
ATOM     12  C   UNL     1      -3.569  11.058  17.666  0.00  0.00    +0.000 A 
ATOM     13  C   UNL     1      -3.967  11.592  16.432  0.00  0.00    +0.000 A 
ATOM     14  C   UNL     1      -3.554  10.993  15.241  0.00  0.00    +0.000 A 
ATOM     15  C   UNL     1      -2.766   9.844  15.277  0.00  0.00    +0.000 A 
ATOM     16  C   UNL     1      -2.398   9.284  16.499  0.00  0.00    +0.000 A 
ATOM     17  C   UNL     1      -2.798   9.887  17.693  0.00  0.00    +0.000 A 
ENDBRANCH   8  12
ENDBRANCH   1   2
BRANCH   1  18
ATOM     18  C   UNL     1      -0.349  12.455  20.604  0.00  0.00    +0.000 C 
BRANCH  18  27
ATOM     19  C   UNL     1       4.279   3.928  19.249  0.00  0.00    +0.000 C 
ATOM     20  C   UNL     1       3.657   5.260  18.938  0.00  0.00    +0.000 A 
ATOM     21  C   UNL     1       3.785   5.843  17.676  0.00  0.00    +0.000 A 
ATOM     22  C   UNL     1       3.194   7.082  17.390  0.00  0.00    +0.000 A 
ATOM     23  C   UNL     1       2.466   7.757  18.390  0.00  0.00    +0.000 A 
ATOM     24  N   UNL     1       1.835   8.986  18.260  0.00  0.00    +0.000 NA
ATOM     25  C   UNL     1       1.315   9.330  19.415  0.00  0.00    +0.000 A 
ATOM     26  N   UNL     1       0.665  10.527  19.575  0.00  0.00    +0.000 N 
ATOM     27  C   UNL     1       0.361  11.126  20.780  0.00  0.00    +0.000 C 
ATOM     28  O   UNL     1       0.598  10.680  21.901  0.00  0.00    +0.000 OA
ATOM     29  S   UNL     1       1.442   8.191  20.669  0.00  0.00    +0.000 S 
ATOM     30  C   UNL     1       2.356   7.162  19.646  0.00  0.00    +0.000 A 
ATOM     31  C   UNL     1       2.934   5.919  19.942  0.00  0.00    +0.000 A 
ATOM     32  H   UNL     1       0.630  11.077  18.728  0.00  0.00    +0.000 HD
ENDBRANCH  18  27
ENDBRANCH   1  18
TORSDOF 4
ENDMDL
MODEL 8
REMARK VINA RESULT:      -8.2      2.723      9.950
REMARK  Name = 
REMARK  5 active torsions:
REMARK  status: ('A' for Active; 'I' for Inactive)
REMARK    1  A    between atoms: C_1  and  C_2
REMARK    2  A    between atoms: C_9  and  C_11
REMARK    3  A    between atoms: C_11  and  S_12
REMARK    4  A    between atoms: S_12  and  C_13
REMARK    5  A    between atoms: N_19  and  C_20
REMARK                            x       y       z     vdW  Elec       q    Type
REMARK                         _______ _______ _______ _____ _____    ______ ____
ROOT
ATOM      1  S   UNL     1       0.383  11.006  20.487  0.00  0.00    +0.000 S 
ENDROOT
BRANCH   1   2
ATOM      2  C   UNL     1      -1.055  11.261  19.497  0.00  0.00    +0.000 A 
ATOM      3  N   UNL     1      -1.156  10.616  18.370  0.00  0.00    +0.000 NA
ATOM      4  C   UNL     1      -2.334  10.778  17.682  0.00  0.00    +0.000 A 
ATOM      5  C   UNL     1      -3.388  11.469  18.118  0.00  0.00    +0.000 A 
ATOM      6  C   UNL     1      -3.316  12.167  19.412  0.00  0.00    +0.000 A 
ATOM      7  O   UNL     1      -4.295  12.775  19.849  0.00  0.00    +0.000 OA
ATOM      8  N   UNL     1      -2.067  12.082  20.029  0.00  0.00    +0.000 N 
ATOM      9  S   UNL     1      -4.762  11.467  17.091  0.00  0.00    +0.000 S 
ATOM     10  C   UNL     1      -3.796  10.758  15.715  0.00  0.00    +0.000 C 
ATOM     11  C   UNL     1      -2.553  10.118  16.352  0.00  0.00    +0.000 C 
BRANCH   8  12
ATOM     12  C   UNL     1      -1.903  12.805  21.251  0.00  0.00    +0.000 A 
ATOM     13  C   UNL     1      -1.350  14.093  21.229  0.00  0.00    +0.000 A 
ATOM     14  C   UNL     1      -1.238  14.829  22.410  0.00  0.00    +0.000 A 
ATOM     15  C   UNL     1      -1.651  14.273  23.619  0.00  0.00    +0.000 A 
ATOM     16  C   UNL     1      -2.166  12.978  23.655  0.00  0.00    +0.000 A 
ATOM     17  C   UNL     1      -2.292  12.243  22.475  0.00  0.00    +0.000 A 
ENDBRANCH   8  12
ENDBRANCH   1   2
BRANCH   1  18
ATOM     18  C   UNL     1       0.639   9.226  20.450  0.00  0.00    +0.000 C 
BRANCH  18  27
ATOM     19  C   UNL     1       6.629   4.345  14.428  0.00  0.00    +0.000 C 
ATOM     20  C   UNL     1       5.668   4.609  15.552  0.00  0.00    +0.000 A 
ATOM     21  C   UNL     1       5.116   3.562  16.294  0.00  0.00    +0.000 A 
ATOM     22  C   UNL     1       4.225   3.816  17.347  0.00  0.00    +0.000 A 
ATOM     23  C   UNL     1       3.872   5.143  17.660  0.00  0.00    +0.000 A 
ATOM     24  N   UNL     1       3.003   5.549  18.663  0.00  0.00    +0.000 NA
ATOM     25  C   UNL     1       2.866   6.853  18.616  0.00  0.00    +0.000 A 
ATOM     26  N   UNL     1       2.025   7.513  19.476  0.00  0.00    +0.000 N 
ATOM     27  C   UNL     1       1.567   8.806  19.326  0.00  0.00    +0.000 C 
ATOM     28  O   UNL     1       1.851   9.583  18.417  0.00  0.00    +0.000 OA
ATOM     29  S   UNL     1       3.824   7.673  17.478  0.00  0.00    +0.000 S 
ATOM     30  C   UNL     1       4.428   6.174  16.903  0.00  0.00    +0.000 A 
ATOM     31  C   UNL     1       5.327   5.935  15.853  0.00  0.00    +0.000 A 
ATOM     32  H   UNL     1       1.558   6.896  20.126  0.00  0.00    +0.000 HD
ENDBRANCH  18  27
ENDBRANCH   1  18
TORSDOF 4
ENDMDL
MODEL 9
REMARK VINA RESULT:      -8.2      1.468      1.684
REMARK  Name = 
REMARK  5 active torsions:
REMARK  status: ('A' for Active; 'I' for Inactive)
REMARK    1  A    between atoms: C_1  and  C_2
REMARK    2  A    between atoms: C_9  and  C_11
REMARK    3  A    between atoms: C_11  and  S_12
REMARK    4  A    between atoms: S_12  and  C_13
REMARK    5  A    between atoms: N_19  and  C_20
REMARK                            x       y       z     vdW  Elec       q    Type
REMARK                         _______ _______ _______ _____ _____    ______ ____
ROOT
ATOM      1  S   UNL     1       1.755   7.128  17.971  0.00  0.00    +0.000 S 
ENDROOT
BRANCH   1   2
ATOM      2  C   UNL     1       3.429   6.573  18.023  0.00  0.00    +0.000 A 
ATOM      3  N   UNL     1       4.363   7.378  17.603  0.00  0.00    +0.000 NA
ATOM      4  C   UNL     1       5.656   6.936  17.750  0.00  0.00    +0.000 A 
ATOM      5  C   UNL     1       6.015   5.802  18.352  0.00  0.00    +0.000 A 
ATOM      6  C   UNL     1       4.979   4.898  18.878  0.00  0.00    +0.000 A 
ATOM      7  O   UNL     1       5.294   3.866  19.475  0.00  0.00    +0.000 OA
ATOM      8  N   UNL     1       3.675   5.317  18.608  0.00  0.00    +0.000 N 
ATOM      9  S   UNL     1       7.702   5.510  18.456  0.00  0.00    +0.000 S 
ATOM     10  C   UNL     1       8.059   6.854  17.274  0.00  0.00    +0.000 C 
ATOM     11  C   UNL     1       6.816   7.757  17.269  0.00  0.00    +0.000 C 
BRANCH   8  12
ATOM     12  C   UNL     1       2.621   4.445  19.020  0.00  0.00    +0.000 A 
ATOM     13  C   UNL     1       2.121   4.524  20.327  0.00  0.00    +0.000 A 
ATOM     14  C   UNL     1       1.054   3.715  20.721  0.00  0.00    +0.000 A 
ATOM     15  C   UNL     1       0.500   2.807  19.822  0.00  0.00    +0.000 A 
ATOM     16  C   UNL     1       1.015   2.694  18.531  0.00  0.00    +0.000 A 
ATOM     17  C   UNL     1       2.074   3.510  18.128  0.00  0.00    +0.000 A 
ENDBRANCH   8  12
ENDBRANCH   1   2
BRANCH   1  18
ATOM     18  C   UNL     1       1.882   8.917  17.841  0.00  0.00    +0.000 C 
BRANCH  18  27
ATOM     19  C   UNL     1      -6.595  13.427  19.784  0.00  0.00    +0.000 C 
ATOM     20  C   UNL     1      -5.541  12.671  19.025  0.00  0.00    +0.000 A 
ATOM     21  C   UNL     1      -5.805  12.126  17.767  0.00  0.00    +0.000 A 
ATOM     22  C   UNL     1      -4.814  11.429  17.061  0.00  0.00    +0.000 A 
ATOM     23  C   UNL     1      -3.535  11.266  17.627  0.00  0.00    +0.000 A 
ATOM     24  N   UNL     1      -2.460  10.598  17.056  0.00  0.00    +0.000 NA
ATOM     25  C   UNL     1      -1.455  10.593  17.899  0.00  0.00    +0.000 A 
ATOM     26  N   UNL     1      -0.276   9.960  17.599  0.00  0.00    +0.000 N 
ATOM     27  C   UNL     1       0.712   9.623  18.500  0.00  0.00    +0.000 C 
ATOM     28  O   UNL     1       0.713   9.852  19.708  0.00  0.00    +0.000 OA
ATOM     29  S   UNL     1      -1.678  11.458  19.345  0.00  0.00    +0.000 S 
ATOM     30  C   UNL     1      -3.293  11.811  18.888  0.00  0.00    +0.000 A 
ATOM     31  C   UNL     1      -4.272  12.518  19.601  0.00  0.00    +0.000 A 
ATOM     32  H   UNL     1      -0.278   9.530  16.684  0.00  0.00    +0.000 HD
ENDBRANCH  18  27
ENDBRANCH   1  18
TORSDOF 4
ENDMDL
