MODEL 1
REMARK VINA RESULT:      -6.6      0.000      0.000
REMARK  Name = 
REMARK  12 active torsions:
REMARK  status: ('A' for Active; 'I' for Inactive)
REMARK    1  A    between atoms: C_1  and  O_2
REMARK    2  A    between atoms: O_2  and  C_3
REMARK    3  A    between atoms: C_5  and  O_6
REMARK    4  A    between atoms: O_6  and  C_7
REMARK    5  A    between atoms: C_8  and  N_9
REMARK    6  A    between atoms: N_9  and  S_10
REMARK    7  A    between atoms: S_10  and  C_13
REMARK    8  A    between atoms: C_14  and  C_15
REMARK    9  A    between atoms: C_20  and  C_21
REMARK   10  A    between atoms: C_24  and  C_25
REMARK   11  A    between atoms: N_26  and  C_27
REMARK   12  A    between atoms: C_28  and  C_29
REMARK                            x       y       z     vdW  Elec       q    Type
REMARK                         _______ _______ _______ _____ _____    ______ ____
ROOT
ATOM      1  C   UNL     1      -0.552  11.686  19.939  0.00  0.00    +0.000 A 
ATOM      2  C   UNL     1      -0.184  10.710  18.918  0.00  0.00    +0.000 A 
ATOM      3  C   UNL     1      -1.340  10.523  18.137  0.00  0.00    +0.000 A 
ATOM      4  C   UNL     1      -1.578   9.760  16.874  0.00  0.00    +0.000 C 
ATOM      5  N   UNL     1      -2.380  11.215  18.712  0.00  0.00    +0.000 N 
ATOM      6  C   UNL     1      -3.765  11.175  18.275  0.00  0.00    +0.000 C 
ATOM      7  C   UNL     1      -1.913  11.976  19.752  0.00  0.00    +0.000 A 
ATOM      8  C   UNL     1      -2.809  12.907  20.511  0.00  0.00    +0.000 C 
ENDROOT
BRANCH   2   9
ATOM      9  C   UNL     1       1.142  10.132  18.617  0.00  0.00    +0.000 C 
ATOM     10  O   UNL     1       1.872  10.684  17.800  0.00  0.00    +0.000 OA
ATOM     11  N   UNL     1       1.509   8.888  19.169  0.00  0.00    +0.000 N 
ATOM     12  C   UNL     1       2.529   8.101  18.481  0.00  0.00    +0.000 C 
ATOM     13  C   UNL     1       2.233   6.608  18.621  0.00  0.00    +0.000 C 
ATOM     14  C   UNL     1       2.101   6.171  20.087  0.00  0.00    +0.000 C 
ATOM     15  C   UNL     1       1.591   4.724  20.149  0.00  0.00    +0.000 C 
ATOM     16  C   UNL     1       1.174   7.108  20.881  0.00  0.00    +0.000 C 
ATOM     17  C   UNL     1       1.415   8.602  20.602  0.00  0.00    +0.000 C 
ENDBRANCH   2   9
BRANCH   1  18
ATOM     18  S   UNL     1       0.308  12.359  21.338  0.00  0.00    +0.000 S 
ATOM     19  O   UNL     1       1.677  12.019  20.982  0.00  0.00    +0.000 OA
ATOM     20  O   UNL     1      -0.333  11.718  22.469  0.00  0.00    +0.000 OA
BRANCH  18  21
ATOM     21  N   UNL     1       0.357  13.988  21.658  0.00  0.00    +0.000 N 
ATOM     22  H   UNL     1       0.612  14.262  22.601  0.00  0.00    +0.000 HD
BRANCH  21  26
ATOM     23  C   UNL     1      -0.336  16.800  18.528  0.00  0.00    +0.000 A 
ATOM     24  C   UNL     1       0.863  16.086  18.538  0.00  0.00    +0.000 A 
ATOM     25  C   UNL     1       1.182  15.154  19.553  0.00  0.00    +0.000 A 
ATOM     26  C   UNL     1       0.293  15.000  20.649  0.00  0.00    +0.000 A 
ATOM     27  C   UNL     1      -0.878  15.764  20.644  0.00  0.00    +0.000 A 
ATOM     28  C   UNL     1      -1.200  16.644  19.609  0.00  0.00    +0.000 A 
ATOM     29 CL   UNL     1      -2.730  17.443  19.673  0.00  0.00    +0.000 Cl
BRANCH  23  31
ATOM     30  C   UNL     1       0.340  18.353  16.880  0.00  0.00    +0.000 C 
ATOM     31  O   UNL     1      -0.717  17.642  17.516  0.00  0.00    +0.000 OA
ENDBRANCH  23  31
BRANCH  25  32
ATOM     32  O   UNL     1       2.282  14.454  19.170  0.00  0.00    +0.000 OA
ATOM     33  C   UNL     1       3.552  14.671  19.730  0.00  0.00    +0.000 C 
ENDBRANCH  25  32
ENDBRANCH  21  26
ENDBRANCH  18  21
ENDBRANCH   1  18
TORSDOF 6
ENDMDL
MODEL 2
REMARK VINA RESULT:      -6.6      1.286      1.403
REMARK  Name = 
REMARK  12 active torsions:
REMARK  status: ('A' for Active; 'I' for Inactive)
REMARK    1  A    between atoms: C_1  and  O_2
REMARK    2  A    between atoms: O_2  and  C_3
REMARK    3  A    between atoms: C_5  and  O_6
REMARK    4  A    between atoms: O_6  and  C_7
REMARK    5  A    between atoms: C_8  and  N_9
REMARK    6  A    between atoms: N_9  and  S_10
REMARK    7  A    between atoms: S_10  and  C_13
REMARK    8  A    between atoms: C_14  and  C_15
REMARK    9  A    between atoms: C_20  and  C_21
REMARK   10  A    between atoms: C_24  and  C_25
REMARK   11  A    between atoms: N_26  and  C_27
REMARK   12  A    between atoms: C_28  and  C_29
REMARK                            x       y       z     vdW  Elec       q    Type
REMARK                         _______ _______ _______ _____ _____    ______ ____
ROOT
ATOM      1  C   UNL     1      -0.505  11.554  19.886  0.00  0.00    +0.000 A 
ATOM      2  C   UNL     1      -0.175  10.587  18.843  0.00  0.00    +0.000 A 
ATOM      3  C   UNL     1      -1.336  10.465  18.057  0.00  0.00    +0.000 A 
ATOM      4  C   UNL     1      -1.603   9.741  16.777  0.00  0.00    +0.000 C 
ATOM      5  N   UNL     1      -2.348  11.185  18.647  0.00  0.00    +0.000 N 
ATOM      6  C   UNL     1      -3.733  11.212  18.208  0.00  0.00    +0.000 C 
ATOM      7  C   UNL     1      -1.852  11.903  19.704  0.00  0.00    +0.000 A 
ATOM      8  C   UNL     1      -2.710  12.853  20.483  0.00  0.00    +0.000 C 
ENDROOT
BRANCH   2   9
ATOM      9  C   UNL     1       1.127   9.962  18.531  0.00  0.00    +0.000 C 
ATOM     10  O   UNL     1       1.835  10.446  17.654  0.00  0.00    +0.000 OA
ATOM     11  N   UNL     1       1.490   8.748  19.146  0.00  0.00    +0.000 N 
ATOM     12  C   UNL     1       2.468   7.896  18.472  0.00  0.00    +0.000 C 
ATOM     13  C   UNL     1       2.148   6.422  18.717  0.00  0.00    +0.000 C 
ATOM     14  C   UNL     1       2.064   6.080  20.212  0.00  0.00    +0.000 C 
ATOM     15  C   UNL     1       1.529   4.652  20.384  0.00  0.00    +0.000 C 
ATOM     16  C   UNL     1       1.187   7.085  20.979  0.00  0.00    +0.000 C 
ATOM     17  C   UNL     1       1.447   8.553  20.596  0.00  0.00    +0.000 C 
ENDBRANCH   2   9
BRANCH   1  18
ATOM     18  S   UNL     1       0.380  12.160  21.300  0.00  0.00    +0.000 S 
ATOM     19  O   UNL     1       1.747  12.018  20.824  0.00  0.00    +0.000 OA
ATOM     20  O   UNL     1      -0.106  11.328  22.384  0.00  0.00    +0.000 OA
BRANCH  18  21
ATOM     21  N   UNL     1       0.281  13.738  21.808  0.00  0.00    +0.000 N 
ATOM     22  H   UNL     1      -0.064  13.894  22.750  0.00  0.00    +0.000 HD
BRANCH  21  26
ATOM     23  C   UNL     1       1.826  16.767  19.237  0.00  0.00    +0.000 A 
ATOM     24  C   UNL     1       2.661  16.224  20.214  0.00  0.00    +0.000 A 
ATOM     25  C   UNL     1       2.220  15.234  21.123  0.00  0.00    +0.000 A 
ATOM     26  C   UNL     1       0.857  14.839  21.101  0.00  0.00    +0.000 A 
ATOM     27  C   UNL     1       0.026  15.435  20.147  0.00  0.00    +0.000 A 
ATOM     28  C   UNL     1       0.491  16.375  19.225  0.00  0.00    +0.000 A 
ATOM     29 CL   UNL     1      -0.615  16.950  18.029  0.00  0.00    +0.000 Cl
BRANCH  23  31
ATOM     30  C   UNL     1       2.873  17.088  17.142  0.00  0.00    +0.000 C 
ATOM     31  O   UNL     1       2.244  17.660  18.284  0.00  0.00    +0.000 OA
ENDBRANCH  23  31
BRANCH  25  32
ATOM     32  O   UNL     1       3.299  14.736  21.781  0.00  0.00    +0.000 OA
ATOM     33  C   UNL     1       4.039  15.491  22.706  0.00  0.00    +0.000 C 
ENDBRANCH  25  32
ENDBRANCH  21  26
ENDBRANCH  18  21
ENDBRANCH   1  18
TORSDOF 6
ENDMDL
MODEL 3
REMARK VINA RESULT:      -6.6      1.483      2.133
REMARK  Name = 
REMARK  12 active torsions:
REMARK  status: ('A' for Active; 'I' for Inactive)
REMARK    1  A    between atoms: C_1  and  O_2
REMARK    2  A    between atoms: O_2  and  C_3
REMARK    3  A    between atoms: C_5  and  O_6
REMARK    4  A    between atoms: O_6  and  C_7
REMARK    5  A    between atoms: C_8  and  N_9
REMARK    6  A    between atoms: N_9  and  S_10
REMARK    7  A    between atoms: S_10  and  C_13
REMARK    8  A    between atoms: C_14  and  C_15
REMARK    9  A    between atoms: C_20  and  C_21
REMARK   10  A    between atoms: C_24  and  C_25
REMARK   11  A    between atoms: N_26  and  C_27
REMARK   12  A    between atoms: C_28  and  C_29
REMARK                            x       y       z     vdW  Elec       q    Type
REMARK                         _______ _______ _______ _____ _____    ______ ____
ROOT
ATOM      1  C   UNL     1      -0.422  11.790  19.786  0.00  0.00    +0.000 A 
ATOM      2  C   UNL     1      -0.114  10.714  18.848  0.00  0.00    +0.000 A 
ATOM      3  C   UNL     1      -1.298  10.496  18.119  0.00  0.00    +0.000 A 
ATOM      4  C   UNL     1      -1.597   9.630  16.938  0.00  0.00    +0.000 C 
ATOM      5  N   UNL     1      -2.299  11.271  18.656  0.00  0.00    +0.000 N 
ATOM      6  C   UNL     1      -3.697  11.238  18.263  0.00  0.00    +0.000 C 
ATOM      7  C   UNL     1      -1.778  12.107  19.609  0.00  0.00    +0.000 A 
ATOM      8  C   UNL     1      -2.621  13.132  20.304  0.00  0.00    +0.000 C 
ENDROOT
BRANCH   2   9
ATOM      9  C   UNL     1       1.184  10.067  18.566  0.00  0.00    +0.000 C 
ATOM     10  O   UNL     1       1.919  10.538  17.704  0.00  0.00    +0.000 OA
ATOM     11  N   UNL     1       1.514   8.849  19.192  0.00  0.00    +0.000 N 
ATOM     12  C   UNL     1       2.492   7.980  18.541  0.00  0.00    +0.000 C 
ATOM     13  C   UNL     1       2.143   6.512  18.783  0.00  0.00    +0.000 C 
ATOM     14  C   UNL     1       2.020   6.175  20.276  0.00  0.00    +0.000 C 
ATOM     15  C   UNL     1       1.458   4.756  20.439  0.00  0.00    +0.000 C 
ATOM     16  C   UNL     1       1.142   7.196  21.021  0.00  0.00    +0.000 C 
ATOM     17  C   UNL     1       1.435   8.659  20.641  0.00  0.00    +0.000 C 
ENDBRANCH   2   9
BRANCH   1  18
ATOM     18  S   UNL     1       0.500  12.559  21.093  0.00  0.00    +0.000 S 
ATOM     19  O   UNL     1       1.854  12.220  20.682  0.00  0.00    +0.000 OA
ATOM     20  O   UNL     1      -0.066  11.974  22.294  0.00  0.00    +0.000 OA
BRANCH  18  21
ATOM     21  N   UNL     1       0.534  14.204  21.315  0.00  0.00    +0.000 N 
ATOM     22  H   UNL     1       0.709  14.534  22.259  0.00  0.00    +0.000 HD
BRANCH  21  26
ATOM     23  C   UNL     1       1.118  17.191  18.329  0.00  0.00    +0.000 A 
ATOM     24  C   UNL     1      -0.097  17.153  19.014  0.00  0.00    +0.000 A 
ATOM     25  C   UNL     1      -0.381  16.180  20.001  0.00  0.00    +0.000 A 
ATOM     26  C   UNL     1       0.566  15.151  20.244  0.00  0.00    +0.000 A 
ATOM     27  C   UNL     1       1.755  15.180  19.509  0.00  0.00    +0.000 A 
ATOM     28  C   UNL     1       2.039  16.177  18.574  0.00  0.00    +0.000 A 
ATOM     29 CL   UNL     1       3.592  16.156  17.816  0.00  0.00    +0.000 Cl
BRANCH  23  31
ATOM     30  C   UNL     1       0.581  18.324  16.325  0.00  0.00    +0.000 C 
ATOM     31  O   UNL     1       1.461  18.171  17.435  0.00  0.00    +0.000 OA
ENDBRANCH  23  31
BRANCH  25  32
ATOM     32  O   UNL     1      -1.521  16.537  20.649  0.00  0.00    +0.000 OA
ATOM     33  C   UNL     1      -2.557  17.251  20.025  0.00  0.00    +0.000 C 
ENDBRANCH  25  32
ENDBRANCH  21  26
ENDBRANCH  18  21
ENDBRANCH   1  18
TORSDOF 6
ENDMDL
MODEL 4
REMARK VINA RESULT:      -6.5      1.861      2.450
REMARK  Name = 
REMARK  12 active torsions:
REMARK  status: ('A' for Active; 'I' for Inactive)
REMARK    1  A    between atoms: C_1  and  O_2
REMARK    2  A    between atoms: O_2  and  C_3
REMARK    3  A    between atoms: C_5  and  O_6
REMARK    4  A    between atoms: O_6  and  C_7
REMARK    5  A    between atoms: C_8  and  N_9
REMARK    6  A    between atoms: N_9  and  S_10
REMARK    7  A    between atoms: S_10  and  C_13
REMARK    8  A    between atoms: C_14  and  C_15
REMARK    9  A    between atoms: C_20  and  C_21
REMARK   10  A    between atoms: C_24  and  C_25
REMARK   11  A    between atoms: N_26  and  C_27
REMARK   12  A    between atoms: C_28  and  C_29
REMARK                            x       y       z     vdW  Elec       q    Type
REMARK                         _______ _______ _______ _____ _____    ______ ____
ROOT
ATOM      1  C   UNL     1      -0.267  11.802  19.652  0.00  0.00    +0.000 A 
ATOM      2  C   UNL     1      -0.038  10.708  18.712  0.00  0.00    +0.000 A 
ATOM      3  C   UNL     1      -1.262  10.522  18.041  0.00  0.00    +0.000 A 
ATOM      4  C   UNL     1      -1.642   9.656  16.885  0.00  0.00    +0.000 C 
ATOM      5  N   UNL     1      -2.211  11.332  18.617  0.00  0.00    +0.000 N 
ATOM      6  C   UNL     1      -3.627  11.340  18.290  0.00  0.00    +0.000 C 
ATOM      7  C   UNL     1      -1.620  12.160  19.537  0.00  0.00    +0.000 A 
ATOM      8  C   UNL     1      -2.397  13.217  20.260  0.00  0.00    +0.000 C 
ENDROOT
BRANCH   2   9
ATOM      9  C   UNL     1       1.224  10.019  18.376  0.00  0.00    +0.000 C 
ATOM     10  O   UNL     1       1.916  10.439  17.454  0.00  0.00    +0.000 OA
ATOM     11  N   UNL     1       1.563   8.816  19.026  0.00  0.00    +0.000 N 
ATOM     12  C   UNL     1       2.479   7.899  18.349  0.00  0.00    +0.000 C 
ATOM     13  C   UNL     1       2.111   6.450  18.666  0.00  0.00    +0.000 C 
ATOM     14  C   UNL     1       2.072   6.170  20.175  0.00  0.00    +0.000 C 
ATOM     15  C   UNL     1       1.488   4.772  20.425  0.00  0.00    +0.000 C 
ATOM     16  C   UNL     1       1.267   7.239  20.934  0.00  0.00    +0.000 C 
ATOM     17  C   UNL     1       1.569   8.679  20.483  0.00  0.00    +0.000 C 
ENDBRANCH   2   9
BRANCH   1  18
ATOM     18  S   UNL     1       0.739  12.552  20.907  0.00  0.00    +0.000 S 
ATOM     19  O   UNL     1       2.057  12.371  20.318  0.00  0.00    +0.000 OA
ATOM     20  O   UNL     1       0.372  11.830  22.110  0.00  0.00    +0.000 OA
BRANCH  18  21
ATOM     21  N   UNL     1       0.664  14.172  21.263  0.00  0.00    +0.000 N 
ATOM     22  H   UNL     1      -0.068  14.467  21.902  0.00  0.00    +0.000 HD
BRANCH  21  26
ATOM     23  C   UNL     1       3.723  16.719  19.735  0.00  0.00    +0.000 A 
ATOM     24  C   UNL     1       3.910  16.113  20.978  0.00  0.00    +0.000 A 
ATOM     25  C   UNL     1       2.935  15.275  21.568  0.00  0.00    +0.000 A 
ATOM     26  C   UNL     1       1.685  15.111  20.916  0.00  0.00    +0.000 A 
ATOM     27  C   UNL     1       1.501  15.770  19.697  0.00  0.00    +0.000 A 
ATOM     28  C   UNL     1       2.493  16.554  19.106  0.00  0.00    +0.000 A 
ATOM     29 CL   UNL     1       2.174  17.220  17.544  0.00  0.00    +0.000 Cl
BRANCH  23  31
ATOM     30  C   UNL     1       5.931  16.809  18.894  0.00  0.00    +0.000 C 
ATOM     31  O   UNL     1       4.681  17.461  19.095  0.00  0.00    +0.000 OA
ENDBRANCH  23  31
BRANCH  25  32
ATOM     32  O   UNL     1       3.489  14.651  22.641  0.00  0.00    +0.000 OA
ATOM     33  C   UNL     1       4.597  15.169  23.331  0.00  0.00    +0.000 C 
ENDBRANCH  25  32
ENDBRANCH  21  26
ENDBRANCH  18  21
ENDBRANCH   1  18
TORSDOF 6
ENDMDL
MODEL 5
REMARK VINA RESULT:      -6.5      4.180      7.613
REMARK  Name = 
REMARK  12 active torsions:
REMARK  status: ('A' for Active; 'I' for Inactive)
REMARK    1  A    between atoms: C_1  and  O_2
REMARK    2  A    between atoms: O_2  and  C_3
REMARK    3  A    between atoms: C_5  and  O_6
REMARK    4  A    between atoms: O_6  and  C_7
REMARK    5  A    between atoms: C_8  and  N_9
REMARK    6  A    between atoms: N_9  and  S_10
REMARK    7  A    between atoms: S_10  and  C_13
REMARK    8  A    between atoms: C_14  and  C_15
REMARK    9  A    between atoms: C_20  and  C_21
REMARK   10  A    between atoms: C_24  and  C_25
REMARK   11  A    between atoms: N_26  and  C_27
REMARK   12  A    between atoms: C_28  and  C_29
REMARK                            x       y       z     vdW  Elec       q    Type
REMARK                         _______ _______ _______ _____ _____    ______ ____
ROOT
ATOM      1  C   UNL     1      -4.813  14.064  23.567  0.00  0.00    +0.000 A 
ATOM      2  C   UNL     1      -6.267  14.133  23.453  0.00  0.00    +0.000 A 
ATOM      3  C   UNL     1      -6.605  15.474  23.714  0.00  0.00    +0.000 A 
ATOM      4  C   UNL     1      -7.902  16.211  23.627  0.00  0.00    +0.000 C 
ATOM      5  N   UNL     1      -5.472  16.150  24.101  0.00  0.00    +0.000 N 
ATOM      6  C   UNL     1      -5.426  17.523  24.574  0.00  0.00    +0.000 C 
ATOM      7  C   UNL     1      -4.375  15.342  23.950  0.00  0.00    +0.000 A 
ATOM      8  C   UNL     1      -2.986  15.841  24.210  0.00  0.00    +0.000 C 
ENDROOT
BRANCH   2   9
ATOM      9  C   UNL     1      -7.216  13.094  23.003  0.00  0.00    +0.000 C 
ATOM     10  O   UNL     1      -7.911  12.511  23.829  0.00  0.00    +0.000 OA
ATOM     11  N   UNL     1      -7.229  12.689  21.653  0.00  0.00    +0.000 N 
ATOM     12  C   UNL     1      -7.746  11.360  21.335  0.00  0.00    +0.000 C 
ATOM     13  C   UNL     1      -6.981  10.760  20.157  0.00  0.00    +0.000 C 
ATOM     14  C   UNL     1      -7.004  11.667  18.918  0.00  0.00    +0.000 C 
ATOM     15  C   UNL     1      -6.045  11.113  17.855  0.00  0.00    +0.000 C 
ATOM     16  C   UNL     1      -6.646  13.122  19.269  0.00  0.00    +0.000 C 
ATOM     17  C   UNL     1      -7.334  13.639  20.545  0.00  0.00    +0.000 C 
ENDBRANCH   2   9
BRANCH   1  18
ATOM     18  S   UNL     1      -3.653  12.724  23.479  0.00  0.00    +0.000 S 
ATOM     19  O   UNL     1      -3.900  12.263  22.121  0.00  0.00    +0.000 OA
ATOM     20  O   UNL     1      -4.014  11.891  24.610  0.00  0.00    +0.000 OA
BRANCH  18  21
ATOM     21  N   UNL     1      -2.010  12.958  23.544  0.00  0.00    +0.000 N 
ATOM     22  H   UNL     1      -1.610  13.136  24.459  0.00  0.00    +0.000 HD
BRANCH  21  26
ATOM     23  C   UNL     1       0.221  12.364  19.959  0.00  0.00    +0.000 A 
ATOM     24  C   UNL     1       0.127  11.315  20.875  0.00  0.00    +0.000 A 
ATOM     25  C   UNL     1      -0.572  11.438  22.099  0.00  0.00    +0.000 A 
ATOM     26  C   UNL     1      -1.125  12.696  22.451  0.00  0.00    +0.000 A 
ATOM     27  C   UNL     1      -0.975  13.746  21.541  0.00  0.00    +0.000 A 
ATOM     28  C   UNL     1      -0.324  13.594  20.315  0.00  0.00    +0.000 A 
ATOM     29 CL   UNL     1      -0.306  14.944  19.236  0.00  0.00    +0.000 Cl
BRANCH  23  31
ATOM     30  C   UNL     1       2.214  12.493  18.695  0.00  0.00    +0.000 C 
ATOM     31  O   UNL     1       0.811  12.253  18.727  0.00  0.00    +0.000 OA
ENDBRANCH  23  31
BRANCH  25  32
ATOM     32  O   UNL     1      -0.692  10.204  22.656  0.00  0.00    +0.000 OA
ATOM     33  C   UNL     1       0.267   9.193  22.475  0.00  0.00    +0.000 C 
ENDBRANCH  25  32
ENDBRANCH  21  26
ENDBRANCH  18  21
ENDBRANCH   1  18
TORSDOF 6
ENDMDL
MODEL 6
REMARK VINA RESULT:      -6.4      3.275      7.888
REMARK  Name = 
REMARK  12 active torsions:
REMARK  status: ('A' for Active; 'I' for Inactive)
REMARK    1  A    between atoms: C_1  and  O_2
REMARK    2  A    between atoms: O_2  and  C_3
REMARK    3  A    between atoms: C_5  and  O_6
REMARK    4  A    between atoms: O_6  and  C_7
REMARK    5  A    between atoms: C_8  and  N_9
REMARK    6  A    between atoms: N_9  and  S_10
REMARK    7  A    between atoms: S_10  and  C_13
REMARK    8  A    between atoms: C_14  and  C_15
REMARK    9  A    between atoms: C_20  and  C_21
REMARK   10  A    between atoms: C_24  and  C_25
REMARK   11  A    between atoms: N_26  and  C_27
REMARK   12  A    between atoms: C_28  and  C_29
REMARK                            x       y       z     vdW  Elec       q    Type
REMARK                         _______ _______ _______ _____ _____    ______ ____
ROOT
ATOM      1  C   UNL     1      -0.390  13.811  20.341  0.00  0.00    +0.000 A 
ATOM      2  C   UNL     1      -1.827  13.977  20.544  0.00  0.00    +0.000 A 
ATOM      3  C   UNL     1      -2.019  15.351  20.783  0.00  0.00    +0.000 A 
ATOM      4  C   UNL     1      -3.258  16.173  20.933  0.00  0.00    +0.000 C 
ATOM      5  N   UNL     1      -0.791  15.963  20.865  0.00  0.00    +0.000 N 
ATOM      6  C   UNL     1      -0.561  17.353  21.224  0.00  0.00    +0.000 C 
ATOM      7  C   UNL     1       0.196  15.072  20.532  0.00  0.00    +0.000 A 
ATOM      8  C   UNL     1       1.634  15.484  20.446  0.00  0.00    +0.000 C 
ENDROOT
BRANCH   2   9
ATOM      9  C   UNL     1      -2.911  12.987  20.384  0.00  0.00    +0.000 C 
ATOM     10  O   UNL     1      -3.003  12.355  19.337  0.00  0.00    +0.000 OA
ATOM     11  N   UNL     1      -3.904  12.864  21.376  0.00  0.00    +0.000 N 
ATOM     12  C   UNL     1      -5.201  12.311  20.991  0.00  0.00    +0.000 C 
ATOM     13  C   UNL     1      -6.321  12.975  21.791  0.00  0.00    +0.000 C 
ATOM     14  C   UNL     1      -6.106  12.862  23.308  0.00  0.00    +0.000 C 
ATOM     15  C   UNL     1      -7.138  13.729  24.041  0.00  0.00    +0.000 C 
ATOM     16  C   UNL     1      -4.675  13.259  23.713  0.00  0.00    +0.000 C 
ATOM     17  C   UNL     1      -3.587  12.680  22.793  0.00  0.00    +0.000 C 
ENDBRANCH   2   9
BRANCH   1  18
ATOM     18  S   UNL     1       0.641  12.388  20.090  0.00  0.00    +0.000 S 
ATOM     19  O   UNL     1       1.284  12.308  21.392  0.00  0.00    +0.000 OA
ATOM     20  O   UNL     1       1.414  12.735  18.914  0.00  0.00    +0.000 OA
BRANCH  18  21
ATOM     21  N   UNL     1       0.021  10.868  19.841  0.00  0.00    +0.000 N 
ATOM     22  H   UNL     1      -0.864  10.810  19.346  0.00  0.00    +0.000 HD
BRANCH  21  26
ATOM     23  C   UNL     1       2.016   7.104  20.024  0.00  0.00    +0.000 A 
ATOM     24  C   UNL     1       1.249   7.513  21.115  0.00  0.00    +0.000 A 
ATOM     25  C   UNL     1       0.576   8.757  21.146  0.00  0.00    +0.000 A 
ATOM     26  C   UNL     1       0.755   9.662  20.068  0.00  0.00    +0.000 A 
ATOM     27  C   UNL     1       1.570   9.252  19.008  0.00  0.00    +0.000 A 
ATOM     28  C   UNL     1       2.187   8.000  18.972  0.00  0.00    +0.000 A 
ATOM     29 CL   UNL     1       3.076   7.577  17.552  0.00  0.00    +0.000 Cl
BRANCH  23  31
ATOM     30  C   UNL     1       2.041   4.852  20.740  0.00  0.00    +0.000 C 
ATOM     31  O   UNL     1       2.606   5.872  19.922  0.00  0.00    +0.000 OA
ENDBRANCH  23  31
BRANCH  25  32
ATOM     32  O   UNL     1      -0.267   8.769  22.212  0.00  0.00    +0.000 OA
ATOM     33  C   UNL     1      -0.060   9.588  23.334  0.00  0.00    +0.000 C 
ENDBRANCH  25  32
ENDBRANCH  21  26
ENDBRANCH  18  21
ENDBRANCH   1  18
TORSDOF 6
ENDMDL
MODEL 7
REMARK VINA RESULT:      -6.3      3.261      8.237
REMARK  Name = 
REMARK  12 active torsions:
REMARK  status: ('A' for Active; 'I' for Inactive)
REMARK    1  A    between atoms: C_1  and  O_2
REMARK    2  A    between atoms: O_2  and  C_3
REMARK    3  A    between atoms: C_5  and  O_6
REMARK    4  A    between atoms: O_6  and  C_7
REMARK    5  A    between atoms: C_8  and  N_9
REMARK    6  A    between atoms: N_9  and  S_10
REMARK    7  A    between atoms: S_10  and  C_13
REMARK    8  A    between atoms: C_14  and  C_15
REMARK    9  A    between atoms: C_20  and  C_21
REMARK   10  A    between atoms: C_24  and  C_25
REMARK   11  A    between atoms: N_26  and  C_27
REMARK   12  A    between atoms: C_28  and  C_29
REMARK                            x       y       z     vdW  Elec       q    Type
REMARK                         _______ _______ _______ _____ _____    ______ ____
ROOT
ATOM      1  C   UNL     1      -0.502  10.923  19.199  0.00  0.00    +0.000 A 
ATOM      2  C   UNL     1      -0.948  12.015  20.060  0.00  0.00    +0.000 A 
ATOM      3  C   UNL     1      -2.286  12.260  19.699  0.00  0.00    +0.000 A 
ATOM      4  C   UNL     1      -3.330  13.153  20.288  0.00  0.00    +0.000 C 
ATOM      5  N   UNL     1      -2.601  11.485  18.608  0.00  0.00    +0.000 N 
ATOM      6  C   UNL     1      -3.847  11.540  17.863  0.00  0.00    +0.000 C 
ATOM      7  C   UNL     1      -1.569  10.624  18.337  0.00  0.00    +0.000 A 
ATOM      8  C   UNL     1      -1.667   9.593  17.254  0.00  0.00    +0.000 C 
ENDROOT
BRANCH   2   9
ATOM      9  C   UNL     1      -0.246  12.654  21.192  0.00  0.00    +0.000 C 
ATOM     10  O   UNL     1      -0.300  12.140  22.305  0.00  0.00    +0.000 OA
ATOM     11  N   UNL     1       0.370  13.909  21.020  0.00  0.00    +0.000 N 
ATOM     12  C   UNL     1       0.575  14.746  22.200  0.00  0.00    +0.000 C 
ATOM     13  C   UNL     1       0.427  16.223  21.837  0.00  0.00    +0.000 C 
ATOM     14  C   UNL     1       1.364  16.645  20.697  0.00  0.00    +0.000 C 
ATOM     15  C   UNL     1       1.012  18.067  20.239  0.00  0.00    +0.000 C 
ATOM     16  C   UNL     1       1.304  15.663  19.515  0.00  0.00    +0.000 C 
ATOM     17  C   UNL     1       1.316  14.183  19.937  0.00  0.00    +0.000 C 
ENDBRANCH   2   9
BRANCH   1  18
ATOM     18  S   UNL     1       1.064  10.118  18.975  0.00  0.00    +0.000 S 
ATOM     19  O   UNL     1       1.390   9.808  20.359  0.00  0.00    +0.000 OA
ATOM     20  O   UNL     1       1.845  11.097  18.244  0.00  0.00    +0.000 OA
BRANCH  18  21
ATOM     21  N   UNL     1       1.219   8.669  18.179  0.00  0.00    +0.000 N 
ATOM     22  H   UNL     1       0.570   8.494  17.418  0.00  0.00    +0.000 HD
BRANCH  21  26
ATOM     23  C   UNL     1       4.409   5.841  18.163  0.00  0.00    +0.000 A 
ATOM     24  C   UNL     1       3.550   5.881  19.262  0.00  0.00    +0.000 A 
ATOM     25  C   UNL     1       2.483   6.804  19.358  0.00  0.00    +0.000 A 
ATOM     26  C   UNL     1       2.330   7.785  18.344  0.00  0.00    +0.000 A 
ATOM     27  C   UNL     1       3.235   7.759  17.278  0.00  0.00    +0.000 A 
ATOM     28  C   UNL     1       4.252   6.808  17.175  0.00  0.00    +0.000 A 
ATOM     29 CL   UNL     1       5.230   6.821  15.750  0.00  0.00    +0.000 Cl
BRANCH  23  31
ATOM     30  C   UNL     1       6.346   4.819  19.052  0.00  0.00    +0.000 C 
ATOM     31  O   UNL     1       5.394   4.903  17.996  0.00  0.00    +0.000 OA
ENDBRANCH  23  31
BRANCH  25  32
ATOM     32  O   UNL     1       1.692   6.448  20.404  0.00  0.00    +0.000 OA
ATOM     33  C   UNL     1       1.534   5.115  20.816  0.00  0.00    +0.000 C 
ENDBRANCH  25  32
ENDBRANCH  21  26
ENDBRANCH  18  21
ENDBRANCH   1  18
TORSDOF 6
ENDMDL
MODEL 8
REMARK VINA RESULT:      -6.3      4.035      7.780
REMARK  Name = 
REMARK  12 active torsions:
REMARK  status: ('A' for Active; 'I' for Inactive)
REMARK    1  A    between atoms: C_1  and  O_2
REMARK    2  A    between atoms: O_2  and  C_3
REMARK    3  A    between atoms: C_5  and  O_6
REMARK    4  A    between atoms: O_6  and  C_7
REMARK    5  A    between atoms: C_8  and  N_9
REMARK    6  A    between atoms: N_9  and  S_10
REMARK    7  A    between atoms: S_10  and  C_13
REMARK    8  A    between atoms: C_14  and  C_15
REMARK    9  A    between atoms: C_20  and  C_21
REMARK   10  A    between atoms: C_24  and  C_25
REMARK   11  A    between atoms: N_26  and  C_27
REMARK   12  A    between atoms: C_28  and  C_29
REMARK                            x       y       z     vdW  Elec       q    Type
REMARK                         _______ _______ _______ _____ _____    ______ ____
ROOT
ATOM      1  C   UNL     1      -4.453  13.992  23.187  0.00  0.00    +0.000 A 
ATOM      2  C   UNL     1      -5.911  13.912  23.193  0.00  0.00    +0.000 A 
ATOM      3  C   UNL     1      -6.357  15.150  23.695  0.00  0.00    +0.000 A 
ATOM      4  C   UNL     1      -7.724  15.738  23.826  0.00  0.00    +0.000 C 
ATOM      5  N   UNL     1      -5.267  15.882  24.103  0.00  0.00    +0.000 N 
ATOM      6  C   UNL     1      -5.316  17.161  24.789  0.00  0.00    +0.000 C 
ATOM      7  C   UNL     1      -4.112  15.237  23.741  0.00  0.00    +0.000 A 
ATOM      8  C   UNL     1      -2.763  15.845  23.975  0.00  0.00    +0.000 C 
ENDROOT
BRANCH   2   9
ATOM      9  C   UNL     1      -6.788  12.854  22.651  0.00  0.00    +0.000 C 
ATOM     10  O   UNL     1      -7.144  11.933  23.378  0.00  0.00    +0.000 OA
ATOM     11  N   UNL     1      -7.104  12.838  21.278  0.00  0.00    +0.000 N 
ATOM     12  C   UNL     1      -7.493  11.566  20.673  0.00  0.00    +0.000 C 
ATOM     13  C   UNL     1      -6.996  11.489  19.231  0.00  0.00    +0.000 C 
ATOM     14  C   UNL     1      -7.480  12.671  18.378  0.00  0.00    +0.000 C 
ATOM     15  C   UNL     1      -6.773  12.648  17.016  0.00  0.00    +0.000 C 
ATOM     16  C   UNL     1      -7.252  14.017  19.087  0.00  0.00    +0.000 C 
ATOM     17  C   UNL     1      -7.638  14.007  20.577  0.00  0.00    +0.000 C 
ENDBRANCH   2   9
BRANCH   1  18
ATOM     18  S   UNL     1      -3.177  12.823  22.795  0.00  0.00    +0.000 S 
ATOM     19  O   UNL     1      -3.497  12.555  21.401  0.00  0.00    +0.000 OA
ATOM     20  O   UNL     1      -3.350  11.787  23.795  0.00  0.00    +0.000 OA
BRANCH  18  21
ATOM     21  N   UNL     1      -1.567  13.229  22.779  0.00  0.00    +0.000 N 
ATOM     22  H   UNL     1      -1.236  13.819  23.536  0.00  0.00    +0.000 HD
BRANCH  21  26
ATOM     23  C   UNL     1       1.006  11.611  19.789  0.00  0.00    +0.000 A 
ATOM     24  C   UNL     1       0.561  10.778  20.816  0.00  0.00    +0.000 A 
ATOM     25  C   UNL     1      -0.274  11.241  21.860  0.00  0.00    +0.000 A 
ATOM     26  C   UNL     1      -0.601  12.621  21.917  0.00  0.00    +0.000 A 
ATOM     27  C   UNL     1      -0.101  13.446  20.906  0.00  0.00    +0.000 A 
ATOM     28  C   UNL     1       0.682  12.962  19.855  0.00  0.00    +0.000 A 
ATOM     29 CL   UNL     1       1.141  14.071  18.612  0.00  0.00    +0.000 Cl
BRANCH  23  31
ATOM     30  C   UNL     1       1.382   9.895  18.207  0.00  0.00    +0.000 C 
ATOM     31  O   UNL     1       1.739  11.176  18.715  0.00  0.00    +0.000 OA
ENDBRANCH  23  31
BRANCH  25  32
ATOM     32  O   UNL     1      -0.729  10.170  22.560  0.00  0.00    +0.000 OA
ATOM     33  C   UNL     1       0.096   9.407  23.403  0.00  0.00    +0.000 C 
ENDBRANCH  25  32
ENDBRANCH  21  26
ENDBRANCH  18  21
ENDBRANCH   1  18
TORSDOF 6
ENDMDL
MODEL 9
REMARK VINA RESULT:      -6.3      3.757      8.556
REMARK  Name = 
REMARK  12 active torsions:
REMARK  status: ('A' for Active; 'I' for Inactive)
REMARK    1  A    between atoms: C_1  and  O_2
REMARK    2  A    between atoms: O_2  and  C_3
REMARK    3  A    between atoms: C_5  and  O_6
REMARK    4  A    between atoms: O_6  and  C_7
REMARK    5  A    between atoms: C_8  and  N_9
REMARK    6  A    between atoms: N_9  and  S_10
REMARK    7  A    between atoms: S_10  and  C_13
REMARK    8  A    between atoms: C_14  and  C_15
REMARK    9  A    between atoms: C_20  and  C_21
REMARK   10  A    between atoms: C_24  and  C_25
REMARK   11  A    between atoms: N_26  and  C_27
REMARK   12  A    between atoms: C_28  and  C_29
REMARK                            x       y       z     vdW  Elec       q    Type
REMARK                         _______ _______ _______ _____ _____    ______ ____
ROOT
ATOM      1  C   UNL     1       1.071  10.189  19.746  0.00  0.00    +0.000 A 
ATOM      2  C   UNL     1       0.555  11.535  19.982  0.00  0.00    +0.000 A 
ATOM      3  C   UNL     1       0.004  11.508  21.277  0.00  0.00    +0.000 A 
ATOM      4  C   UNL     1      -0.558  12.588  22.143  0.00  0.00    +0.000 C 
ATOM      5  N   UNL     1       0.043  10.218  21.749  0.00  0.00    +0.000 N 
ATOM      6  C   UNL     1      -0.541   9.756  22.997  0.00  0.00    +0.000 C 
ATOM      7  C   UNL     1       0.744   9.425  20.877  0.00  0.00    +0.000 A 
ATOM      8  C   UNL     1       1.028   7.984  21.176  0.00  0.00    +0.000 C 
ENDROOT
BRANCH   2   9
ATOM      9  C   UNL     1       0.697  12.746  19.148  0.00  0.00    +0.000 C 
ATOM     10  O   UNL     1      -0.104  12.954  18.242  0.00  0.00    +0.000 OA
ATOM     11  N   UNL     1       1.817  13.585  19.311  0.00  0.00    +0.000 N 
ATOM     12  C   UNL     1       2.219  14.428  18.186  0.00  0.00    +0.000 C 
ATOM     13  C   UNL     1       3.738  14.580  18.152  0.00  0.00    +0.000 C 
ATOM     14  C   UNL     1       4.304  15.123  19.472  0.00  0.00    +0.000 C 
ATOM     15  C   UNL     1       5.837  15.044  19.447  0.00  0.00    +0.000 C 
ATOM     16  C   UNL     1       3.741  14.368  20.688  0.00  0.00    +0.000 C 
ATOM     17  C   UNL     1       2.225  14.114  20.613  0.00  0.00    +0.000 C 
ENDBRANCH   2   9
BRANCH   1  18
ATOM     18  S   UNL     1       1.812   9.405  18.336  0.00  0.00    +0.000 S 
ATOM     19  O   UNL     1       2.378  10.567  17.668  0.00  0.00    +0.000 OA
ATOM     20  O   UNL     1       0.708   8.683  17.734  0.00  0.00    +0.000 OA
BRANCH  18  21
ATOM     21  N   UNL     1       3.082   8.343  18.469  0.00  0.00    +0.000 N 
ATOM     22  H   UNL     1       3.914   8.683  18.940  0.00  0.00    +0.000 HD
BRANCH  21  26
ATOM     23  C   UNL     1       2.884   4.097  18.139  0.00  0.00    +0.000 A 
ATOM     24  C   UNL     1       3.712   4.802  17.265  0.00  0.00    +0.000 A 
ATOM     25  C   UNL     1       3.816   6.213  17.290  0.00  0.00    +0.000 A 
ATOM     26  C   UNL     1       2.985   6.947  18.176  0.00  0.00    +0.000 A 
ATOM     27  C   UNL     1       2.125   6.222  19.007  0.00  0.00    +0.000 A 
ATOM     28  C   UNL     1       2.072   4.827  19.003  0.00  0.00    +0.000 A 
ATOM     29 CL   UNL     1       1.046   4.054  20.159  0.00  0.00    +0.000 Cl
BRANCH  23  31
ATOM     30  C   UNL     1       3.821   2.111  19.013  0.00  0.00    +0.000 C 
ATOM     31  O   UNL     1       2.827   2.729  18.203  0.00  0.00    +0.000 OA
ENDBRANCH  23  31
BRANCH  25  32
ATOM     32  O   UNL     1       4.859   6.586  16.503  0.00  0.00    +0.000 OA
ATOM     33  C   UNL     1       5.516   5.693  15.641  0.00  0.00    +0.000 C 
ENDBRANCH  25  32
ENDBRANCH  21  26
ENDBRANCH  18  21
ENDBRANCH   1  18
TORSDOF 6
ENDMDL
