MODEL 1
REMARK VINA RESULT:      -8.1      0.000      0.000
REMARK  Name = 
REMARK  5 active torsions:
REMARK  status: ('A' for Active; 'I' for Inactive)
REMARK    1  A    between atoms: N_1  and  S_2
REMARK    2  A    between atoms: S_2  and  C_5
REMARK    3  A    between atoms: C_8  and  N_9
REMARK    4  A    between atoms: C_13  and  C_14
REMARK    5  A    between atoms: N_20  and  C_21
REMARK                            x       y       z     vdW  Elec       q    Type
REMARK                         _______ _______ _______ _____ _____    ______ ____
ROOT
ATOM      1  N   UNL     1       0.887   7.710  20.817  0.00  0.00    +0.000 NA
ATOM      2  C   UNL     1       1.706   7.550  19.819  0.00  0.00    +0.000 A 
ATOM      3  S   UNL     1       2.170   8.885  18.690  0.00  0.00    +0.000 S 
ATOM      4  C   UNL     1       3.371   7.909  17.933  0.00  0.00    +0.000 A 
ATOM      5  C   UNL     1       3.327   6.644  18.371  0.00  0.00    +0.000 A 
ATOM      6  N   UNL     1       2.381   6.370  19.395  0.00  0.00    +0.000 N 
ENDROOT
BRANCH   1  10
ATOM      7  C   UNL     1      -1.021  11.255  22.133  0.00  0.00    +0.000 A 
ATOM      8  C   UNL     1      -0.524  10.327  23.046  0.00  0.00    +0.000 A 
ATOM      9  C   UNL     1       0.091   9.160  22.567  0.00  0.00    +0.000 A 
ATOM     10  C   UNL     1       0.224   8.899  21.190  0.00  0.00    +0.000 A 
ATOM     11  C   UNL     1      -0.210   9.892  20.311  0.00  0.00    +0.000 A 
ATOM     12  C   UNL     1      -0.877  11.037  20.765  0.00  0.00    +0.000 A 
BRANCH   7  13
ATOM     13  S   UNL     1      -1.829  12.728  22.688  0.00  0.00    +0.000 S 
ATOM     14  O   UNL     1      -2.370  13.432  21.548  0.00  0.00    +0.000 OA
ATOM     15  O   UNL     1      -1.010  13.384  23.686  0.00  0.00    +0.000 OA
BRANCH  13  16
ATOM     16  N   UNL     1      -3.137  12.107  23.532  0.00  0.00    +0.000 NA
ATOM     17  H   UNL     1      -3.523  12.828  24.142  0.00  0.00    +0.000 HD
ATOM     18  H   UNL     1      -2.866  11.255  24.025  0.00  0.00    +0.000 HD
ENDBRANCH  13  16
ENDBRANCH   7  13
ENDBRANCH   1  10
BRANCH   5  19
ATOM     19  C   UNL     1       4.264   5.683  17.770  0.00  0.00    +0.000 A 
ATOM     20  C   UNL     1       3.871   4.793  16.765  0.00  0.00    +0.000 A 
ATOM     21  C   UNL     1       4.812   3.935  16.187  0.00  0.00    +0.000 A 
ATOM     22  C   UNL     1       6.147   3.978  16.597  0.00  0.00    +0.000 A 
ATOM     23  C   UNL     1       6.536   4.834  17.622  0.00  0.00    +0.000 A 
ATOM     24  C   UNL     1       5.589   5.651  18.237  0.00  0.00    +0.000 A 
ENDBRANCH   5  19
BRANCH   6  25
ATOM     25  C   UNL     1       2.105   5.065  19.936  0.00  0.00    +0.000 A 
ATOM     26  C   UNL     1       1.335   4.107  19.259  0.00  0.00    +0.000 A 
ATOM     27  C   UNL     1       1.025   2.862  19.835  0.00  0.00    +0.000 A 
ATOM     28  C   UNL     1       1.460   2.544  21.116  0.00  0.00    +0.000 A 
ATOM     29  C   UNL     1       2.257   3.446  21.797  0.00  0.00    +0.000 A 
ATOM     30  C   UNL     1       2.599   4.660  21.193  0.00  0.00    +0.000 A 
ENDBRANCH   6  25
TORSDOF 5
ENDMDL
MODEL 2
REMARK VINA RESULT:      -8.0      0.864      1.331
REMARK  Name = 
REMARK  5 active torsions:
REMARK  status: ('A' for Active; 'I' for Inactive)
REMARK    1  A    between atoms: N_1  and  S_2
REMARK    2  A    between atoms: S_2  and  C_5
REMARK    3  A    between atoms: C_8  and  N_9
REMARK    4  A    between atoms: C_13  and  C_14
REMARK    5  A    between atoms: N_20  and  C_21
REMARK                            x       y       z     vdW  Elec       q    Type
REMARK                         _______ _______ _______ _____ _____    ______ ____
ROOT
ATOM      1  N   UNL     1       0.805   7.841  20.925  0.00  0.00    +0.000 NA
ATOM      2  C   UNL     1       1.528   7.675  19.856  0.00  0.00    +0.000 A 
ATOM      3  S   UNL     1       1.875   9.002  18.675  0.00  0.00    +0.000 S 
ATOM      4  C   UNL     1       3.006   8.027  17.818  0.00  0.00    +0.000 A 
ATOM      5  C   UNL     1       3.014   6.765  18.271  0.00  0.00    +0.000 A 
ATOM      6  N   UNL     1       2.170   6.496  19.382  0.00  0.00    +0.000 N 
ENDROOT
BRANCH   1  10
ATOM      7  C   UNL     1      -1.037  11.361  22.392  0.00  0.00    +0.000 A 
ATOM      8  C   UNL     1      -0.676  10.327  23.254  0.00  0.00    +0.000 A 
ATOM      9  C   UNL     1      -0.078   9.173  22.725  0.00  0.00    +0.000 A 
ATOM     10  C   UNL     1       0.171   9.028  21.346  0.00  0.00    +0.000 A 
ATOM     11  C   UNL     1      -0.128  10.120  20.530  0.00  0.00    +0.000 A 
ATOM     12  C   UNL     1      -0.776  11.257  21.027  0.00  0.00    +0.000 A 
BRANCH   7  13
ATOM     13  S   UNL     1      -1.818  12.823  23.007  0.00  0.00    +0.000 S 
ATOM     14  O   UNL     1      -0.836  13.639  23.684  0.00  0.00    +0.000 OA
ATOM     15  O   UNL     1      -3.087  12.478  23.613  0.00  0.00    +0.000 OA
BRANCH  13  16
ATOM     16  N   UNL     1      -2.213  13.627  21.590  0.00  0.00    +0.000 NA
ATOM     17  H   UNL     1      -2.381  14.612  21.792  0.00  0.00    +0.000 HD
ATOM     18  H   UNL     1      -2.996  13.163  21.129  0.00  0.00    +0.000 HD
ENDBRANCH  13  16
ENDBRANCH   7  13
ENDBRANCH   1  10
BRANCH   5  19
ATOM     19  C   UNL     1       3.897   5.805  17.594  0.00  0.00    +0.000 A 
ATOM     20  C   UNL     1       3.591   4.442  17.516  0.00  0.00    +0.000 A 
ATOM     21  C   UNL     1       4.437   3.577  16.814  0.00  0.00    +0.000 A 
ATOM     22  C   UNL     1       5.576   4.072  16.176  0.00  0.00    +0.000 A 
ATOM     23  C   UNL     1       5.906   5.420  16.282  0.00  0.00    +0.000 A 
ATOM     24  C   UNL     1       5.094   6.274  17.026  0.00  0.00    +0.000 A 
ENDBRANCH   5  19
BRANCH   6  25
ATOM     25  C   UNL     1       1.956   5.195  19.959  0.00  0.00    +0.000 A 
ATOM     26  C   UNL     1       2.644   4.745  21.097  0.00  0.00    +0.000 A 
ATOM     27  C   UNL     1       2.466   3.446  21.607  0.00  0.00    +0.000 A 
ATOM     28  C   UNL     1       1.609   2.549  20.981  0.00  0.00    +0.000 A 
ATOM     29  C   UNL     1       0.882   2.970  19.882  0.00  0.00    +0.000 A 
ATOM     30  C   UNL     1       1.032   4.281  19.416  0.00  0.00    +0.000 A 
ENDBRANCH   6  25
TORSDOF 5
ENDMDL
MODEL 3
REMARK VINA RESULT:      -8.0      0.936      1.397
REMARK  Name = 
REMARK  5 active torsions:
REMARK  status: ('A' for Active; 'I' for Inactive)
REMARK    1  A    between atoms: N_1  and  S_2
REMARK    2  A    between atoms: S_2  and  C_5
REMARK    3  A    between atoms: C_8  and  N_9
REMARK    4  A    between atoms: C_13  and  C_14
REMARK    5  A    between atoms: N_20  and  C_21
REMARK                            x       y       z     vdW  Elec       q    Type
REMARK                         _______ _______ _______ _____ _____    ______ ____
ROOT
ATOM      1  N   UNL     1       0.926   7.711  20.985  0.00  0.00    +0.000 NA
ATOM      2  C   UNL     1       1.613   7.601  19.885  0.00  0.00    +0.000 A 
ATOM      3  S   UNL     1       1.935   8.989  18.772  0.00  0.00    +0.000 S 
ATOM      4  C   UNL     1       3.030   8.055  17.825  0.00  0.00    +0.000 A 
ATOM      5  C   UNL     1       3.039   6.770  18.205  0.00  0.00    +0.000 A 
ATOM      6  N   UNL     1       2.228   6.445  19.325  0.00  0.00    +0.000 N 
ENDROOT
BRANCH   1  10
ATOM      7  C   UNL     1      -0.980  11.252  22.313  0.00  0.00    +0.000 A 
ATOM      8  C   UNL     1      -0.784  11.009  20.955  0.00  0.00    +0.000 A 
ATOM      9  C   UNL     1      -0.138   9.828  20.559  0.00  0.00    +0.000 A 
ATOM     10  C   UNL     1       0.317   8.878  21.493  0.00  0.00    +0.000 A 
ATOM     11  C   UNL     1       0.025   9.119  22.836  0.00  0.00    +0.000 A 
ATOM     12  C   UNL     1      -0.567  10.315  23.258  0.00  0.00    +0.000 A 
BRANCH   7  13
ATOM     13  S   UNL     1      -1.765  12.738  22.863  0.00  0.00    +0.000 S 
ATOM     14  O   UNL     1      -0.804  13.549  23.575  0.00  0.00    +0.000 OA
ATOM     15  O   UNL     1      -3.069  12.426  23.409  0.00  0.00    +0.000 OA
BRANCH  13  16
ATOM     16  N   UNL     1      -2.073  13.523  21.414  0.00  0.00    +0.000 NA
ATOM     17  H   UNL     1      -1.525  13.092  20.669  0.00  0.00    +0.000 HD
ATOM     18  H   UNL     1      -1.913  14.526  21.515  0.00  0.00    +0.000 HD
ENDBRANCH  13  16
ENDBRANCH   7  13
ENDBRANCH   1  10
BRANCH   5  19
ATOM     19  C   UNL     1       3.891   5.843  17.447  0.00  0.00    +0.000 A 
ATOM     20  C   UNL     1       3.771   4.454  17.571  0.00  0.00    +0.000 A 
ATOM     21  C   UNL     1       4.568   3.613  16.788  0.00  0.00    +0.000 A 
ATOM     22  C   UNL     1       5.469   4.154  15.869  0.00  0.00    +0.000 A 
ATOM     23  C   UNL     1       5.621   5.534  15.768  0.00  0.00    +0.000 A 
ATOM     24  C   UNL     1       4.866   6.373  16.586  0.00  0.00    +0.000 A 
ENDBRANCH   5  19
BRANCH   6  25
ATOM     25  C   UNL     1       2.020   5.115  19.834  0.00  0.00    +0.000 A 
ATOM     26  C   UNL     1       1.163   4.190  19.218  0.00  0.00    +0.000 A 
ATOM     27  C   UNL     1       0.925   2.917  19.770  0.00  0.00    +0.000 A 
ATOM     28  C   UNL     1       1.523   2.538  20.965  0.00  0.00    +0.000 A 
ATOM     29  C   UNL     1       2.407   3.408  21.579  0.00  0.00    +0.000 A 
ATOM     30  C   UNL     1       2.672   4.651  20.994  0.00  0.00    +0.000 A 
ENDBRANCH   6  25
TORSDOF 5
ENDMDL
MODEL 4
REMARK VINA RESULT:      -7.9      0.359      1.288
REMARK  Name = 
REMARK  5 active torsions:
REMARK  status: ('A' for Active; 'I' for Inactive)
REMARK    1  A    between atoms: N_1  and  S_2
REMARK    2  A    between atoms: S_2  and  C_5
REMARK    3  A    between atoms: C_8  and  N_9
REMARK    4  A    between atoms: C_13  and  C_14
REMARK    5  A    between atoms: N_20  and  C_21
REMARK                            x       y       z     vdW  Elec       q    Type
REMARK                         _______ _______ _______ _____ _____    ______ ____
ROOT
ATOM      1  N   UNL     1       0.729   7.833  20.915  0.00  0.00    +0.000 NA
ATOM      2  C   UNL     1       1.508   7.672  19.886  0.00  0.00    +0.000 A 
ATOM      3  S   UNL     1       1.895   8.996  18.716  0.00  0.00    +0.000 S 
ATOM      4  C   UNL     1       3.084   8.033  17.924  0.00  0.00    +0.000 A 
ATOM      5  C   UNL     1       3.087   6.775  18.385  0.00  0.00    +0.000 A 
ATOM      6  N   UNL     1       2.191   6.500  19.454  0.00  0.00    +0.000 N 
ENDROOT
BRANCH   1  10
ATOM      7  C   UNL     1      -1.222  11.344  22.258  0.00  0.00    +0.000 A 
ATOM      8  C   UNL     1      -0.796  10.370  23.159  0.00  0.00    +0.000 A 
ATOM      9  C   UNL     1      -0.164   9.216  22.671  0.00  0.00    +0.000 A 
ATOM     10  C   UNL     1       0.056   9.013  21.296  0.00  0.00    +0.000 A 
ATOM     11  C   UNL     1      -0.308  10.050  20.435  0.00  0.00    +0.000 A 
ATOM     12  C   UNL     1      -0.990  11.183  20.894  0.00  0.00    +0.000 A 
BRANCH   7  13
ATOM     13  S   UNL     1      -2.047  12.802  22.823  0.00  0.00    +0.000 S 
ATOM     14  O   UNL     1      -2.597  13.508  21.688  0.00  0.00    +0.000 OA
ATOM     15  O   UNL     1      -1.238  13.461  23.826  0.00  0.00    +0.000 OA
BRANCH  13  16
ATOM     16  N   UNL     1      -3.349  12.159  23.662  0.00  0.00    +0.000 NA
ATOM     17  H   UNL     1      -3.937  11.625  23.022  0.00  0.00    +0.000 HD
ATOM     18  H   UNL     1      -3.848  12.898  24.158  0.00  0.00    +0.000 HD
ENDBRANCH  13  16
ENDBRANCH   7  13
ENDBRANCH   1  10
BRANCH   5  19
ATOM     19  C   UNL     1       4.018   5.824  17.762  0.00  0.00    +0.000 A 
ATOM     20  C   UNL     1       5.388   6.087  17.656  0.00  0.00    +0.000 A 
ATOM     21  C   UNL     1       6.242   5.128  17.104  0.00  0.00    +0.000 A 
ATOM     22  C   UNL     1       5.734   3.900  16.673  0.00  0.00    +0.000 A 
ATOM     23  C   UNL     1       4.368   3.647  16.740  0.00  0.00    +0.000 A 
ATOM     24  C   UNL     1       3.508   4.623  17.241  0.00  0.00    +0.000 A 
ENDBRANCH   5  19
BRANCH   6  25
ATOM     25  C   UNL     1       1.968   5.199  20.028  0.00  0.00    +0.000 A 
ATOM     26  C   UNL     1       2.608   4.765  21.200  0.00  0.00    +0.000 A 
ATOM     27  C   UNL     1       2.423   3.466  21.708  0.00  0.00    +0.000 A 
ATOM     28  C   UNL     1       1.607   2.554  21.049  0.00  0.00    +0.000 A 
ATOM     29  C   UNL     1       0.927   2.960  19.915  0.00  0.00    +0.000 A 
ATOM     30  C   UNL     1       1.081   4.270  19.448  0.00  0.00    +0.000 A 
ENDBRANCH   6  25
TORSDOF 5
ENDMDL
MODEL 5
REMARK VINA RESULT:      -7.9      0.495      1.364
REMARK  Name = 
REMARK  5 active torsions:
REMARK  status: ('A' for Active; 'I' for Inactive)
REMARK    1  A    between atoms: N_1  and  S_2
REMARK    2  A    between atoms: S_2  and  C_5
REMARK    3  A    between atoms: C_8  and  N_9
REMARK    4  A    between atoms: C_13  and  C_14
REMARK    5  A    between atoms: N_20  and  C_21
REMARK                            x       y       z     vdW  Elec       q    Type
REMARK                         _______ _______ _______ _____ _____    ______ ____
ROOT
ATOM      1  N   UNL     1       0.838   7.776  20.998  0.00  0.00    +0.000 NA
ATOM      2  C   UNL     1       1.565   7.635  19.927  0.00  0.00    +0.000 A 
ATOM      3  S   UNL     1       1.908   8.986  18.775  0.00  0.00    +0.000 S 
ATOM      4  C   UNL     1       3.047   8.034  17.902  0.00  0.00    +0.000 A 
ATOM      5  C   UNL     1       3.059   6.764  18.329  0.00  0.00    +0.000 A 
ATOM      6  N   UNL     1       2.213   6.468  19.432  0.00  0.00    +0.000 N 
ENDROOT
BRANCH   1  10
ATOM      7  C   UNL     1      -1.168  11.330  22.130  0.00  0.00    +0.000 A 
ATOM      8  C   UNL     1      -0.973  11.012  20.787  0.00  0.00    +0.000 A 
ATOM      9  C   UNL     1      -0.293   9.830  20.456  0.00  0.00    +0.000 A 
ATOM     10  C   UNL     1       0.197   8.952  21.441  0.00  0.00    +0.000 A 
ATOM     11  C   UNL     1      -0.094   9.264  22.770  0.00  0.00    +0.000 A 
ATOM     12  C   UNL     1      -0.719  10.464  23.125  0.00  0.00    +0.000 A 
BRANCH   7  13
ATOM     13  S   UNL     1      -1.995  12.822  22.597  0.00  0.00    +0.000 S 
ATOM     14  O   UNL     1      -2.493  13.482  21.412  0.00  0.00    +0.000 OA
ATOM     15  O   UNL     1      -1.214  13.516  23.599  0.00  0.00    +0.000 OA
BRANCH  13  16
ATOM     16  N   UNL     1      -3.334  12.232  23.415  0.00  0.00    +0.000 NA
ATOM     17  H   UNL     1      -3.341  12.599  24.367  0.00  0.00    +0.000 HD
ATOM     18  H   UNL     1      -3.356  11.213  23.367  0.00  0.00    +0.000 HD
ENDBRANCH  13  16
ENDBRANCH   7  13
ENDBRANCH   1  10
BRANCH   5  19
ATOM     19  C   UNL     1       3.949   5.822  17.636  0.00  0.00    +0.000 A 
ATOM     20  C   UNL     1       3.606   4.478  17.448  0.00  0.00    +0.000 A 
ATOM     21  C   UNL     1       4.463   3.633  16.735  0.00  0.00    +0.000 A 
ATOM     22  C   UNL     1       5.650   4.131  16.193  0.00  0.00    +0.000 A 
ATOM     23  C   UNL     1       6.015   5.456  16.410  0.00  0.00    +0.000 A 
ATOM     24  C   UNL     1       5.189   6.286  17.166  0.00  0.00    +0.000 A 
ENDBRANCH   5  19
BRANCH   6  25
ATOM     25  C   UNL     1       2.004   5.155  19.983  0.00  0.00    +0.000 A 
ATOM     26  C   UNL     1       2.706   4.679  21.102  0.00  0.00    +0.000 A 
ATOM     27  C   UNL     1       2.532   3.368  21.584  0.00  0.00    +0.000 A 
ATOM     28  C   UNL     1       1.664   2.488  20.949  0.00  0.00    +0.000 A 
ATOM     29  C   UNL     1       0.924   2.935  19.870  0.00  0.00    +0.000 A 
ATOM     30  C   UNL     1       1.070   4.256  19.431  0.00  0.00    +0.000 A 
ENDBRANCH   6  25
TORSDOF 5
ENDMDL
MODEL 6
REMARK VINA RESULT:      -7.8      0.496      1.274
REMARK  Name = 
REMARK  5 active torsions:
REMARK  status: ('A' for Active; 'I' for Inactive)
REMARK    1  A    between atoms: N_1  and  S_2
REMARK    2  A    between atoms: S_2  and  C_5
REMARK    3  A    between atoms: C_8  and  N_9
REMARK    4  A    between atoms: C_13  and  C_14
REMARK    5  A    between atoms: N_20  and  C_21
REMARK                            x       y       z     vdW  Elec       q    Type
REMARK                         _______ _______ _______ _____ _____    ______ ____
ROOT
ATOM      1  N   UNL     1       0.827   7.760  20.969  0.00  0.00    +0.000 NA
ATOM      2  C   UNL     1       1.550   7.644  19.893  0.00  0.00    +0.000 A 
ATOM      3  S   UNL     1       1.877   9.018  18.762  0.00  0.00    +0.000 S 
ATOM      4  C   UNL     1       3.020   8.091  17.868  0.00  0.00    +0.000 A 
ATOM      5  C   UNL     1       3.045   6.814  18.273  0.00  0.00    +0.000 A 
ATOM      6  N   UNL     1       2.207   6.492  19.375  0.00  0.00    +0.000 N 
ENDROOT
BRANCH   1  10
ATOM      7  C   UNL     1      -1.198  11.281  22.168  0.00  0.00    +0.000 A 
ATOM      8  C   UNL     1      -0.967  11.009  20.821  0.00  0.00    +0.000 A 
ATOM      9  C   UNL     1      -0.282   9.837  20.468  0.00  0.00    +0.000 A 
ATOM     10  C   UNL     1       0.178   8.923  21.435  0.00  0.00    +0.000 A 
ATOM     11  C   UNL     1      -0.148   9.189  22.765  0.00  0.00    +0.000 A 
ATOM     12  C   UNL     1      -0.780  10.379  23.145  0.00  0.00    +0.000 A 
BRANCH   7  13
ATOM     13  S   UNL     1      -2.033  12.759  22.664  0.00  0.00    +0.000 S 
ATOM     14  O   UNL     1      -2.635  13.377  21.506  0.00  0.00    +0.000 OA
ATOM     15  O   UNL     1      -1.203  13.497  23.592  0.00  0.00    +0.000 OA
BRANCH  13  16
ATOM     16  N   UNL     1      -3.291  12.150  23.590  0.00  0.00    +0.000 NA
ATOM     17  H   UNL     1      -4.026  12.853  23.672  0.00  0.00    +0.000 HD
ATOM     18  H   UNL     1      -2.939  11.818  24.489  0.00  0.00    +0.000 HD
ENDBRANCH  13  16
ENDBRANCH   7  13
ENDBRANCH   1  10
BRANCH   5  19
ATOM     19  C   UNL     1       3.940   5.892  17.561  0.00  0.00    +0.000 A 
ATOM     20  C   UNL     1       5.180   6.300  17.057  0.00  0.00    +0.000 A 
ATOM     21  C   UNL     1       6.020   5.372  16.434  0.00  0.00    +0.000 A 
ATOM     22  C   UNL     1       5.633   4.035  16.329  0.00  0.00    +0.000 A 
ATOM     23  C   UNL     1       4.386   3.629  16.793  0.00  0.00    +0.000 A 
ATOM     24  C   UNL     1       3.525   4.563  17.366  0.00  0.00    +0.000 A 
ENDBRANCH   5  19
BRANCH   6  25
ATOM     25  C   UNL     1       2.012   5.168  19.904  0.00  0.00    +0.000 A 
ATOM     26  C   UNL     1       1.132   4.239  19.326  0.00  0.00    +0.000 A 
ATOM     27  C   UNL     1       0.909   2.973  19.897  0.00  0.00    +0.000 A 
ATOM     28  C   UNL     1       1.547   2.603  21.076  0.00  0.00    +0.000 A 
ATOM     29  C   UNL     1       2.453   3.476  21.651  0.00  0.00    +0.000 A 
ATOM     30  C   UNL     1       2.702   4.712  21.045  0.00  0.00    +0.000 A 
ENDBRANCH   6  25
TORSDOF 5
ENDMDL
MODEL 7
REMARK VINA RESULT:      -7.8      0.800      1.242
REMARK  Name = 
REMARK  5 active torsions:
REMARK  status: ('A' for Active; 'I' for Inactive)
REMARK    1  A    between atoms: N_1  and  S_2
REMARK    2  A    between atoms: S_2  and  C_5
REMARK    3  A    between atoms: C_8  and  N_9
REMARK    4  A    between atoms: C_13  and  C_14
REMARK    5  A    between atoms: N_20  and  C_21
REMARK                            x       y       z     vdW  Elec       q    Type
REMARK                         _______ _______ _______ _____ _____    ______ ____
ROOT
ATOM      1  N   UNL     1       0.744   7.898  20.814  0.00  0.00    +0.000 NA
ATOM      2  C   UNL     1       1.508   7.743  19.772  0.00  0.00    +0.000 A 
ATOM      3  S   UNL     1       1.867   9.069  18.596  0.00  0.00    +0.000 S 
ATOM      4  C   UNL     1       3.050   8.115  17.786  0.00  0.00    +0.000 A 
ATOM      5  C   UNL     1       3.070   6.857  18.248  0.00  0.00    +0.000 A 
ATOM      6  N   UNL     1       2.193   6.575  19.330  0.00  0.00    +0.000 N 
ENDROOT
BRANCH   1  10
ATOM      7  C   UNL     1      -1.216  11.393  22.185  0.00  0.00    +0.000 A 
ATOM      8  C   UNL     1      -0.783  10.416  23.079  0.00  0.00    +0.000 A 
ATOM      9  C   UNL     1      -0.147   9.267  22.581  0.00  0.00    +0.000 A 
ATOM     10  C   UNL     1       0.068   9.074  21.204  0.00  0.00    +0.000 A 
ATOM     11  C   UNL     1      -0.304  10.113  20.351  0.00  0.00    +0.000 A 
ATOM     12  C   UNL     1      -0.990  11.241  20.819  0.00  0.00    +0.000 A 
BRANCH   7  13
ATOM     13  S   UNL     1      -2.045  12.844  22.762  0.00  0.00    +0.000 S 
ATOM     14  O   UNL     1      -3.036  12.468  23.745  0.00  0.00    +0.000 OA
ATOM     15  O   UNL     1      -2.357  13.704  21.640  0.00  0.00    +0.000 OA
BRANCH  13  16
ATOM     16  N   UNL     1      -0.822  13.634  23.593  0.00  0.00    +0.000 NA
ATOM     17  H   UNL     1      -0.479  14.415  23.034  0.00  0.00    +0.000 HD
ATOM     18  H   UNL     1      -0.095  12.971  23.864  0.00  0.00    +0.000 HD
ENDBRANCH  13  16
ENDBRANCH   7  13
ENDBRANCH   1  10
BRANCH   5  19
ATOM     19  C   UNL     1       3.999   5.913  17.611  0.00  0.00    +0.000 A 
ATOM     20  C   UNL     1       5.320   6.262  17.308  0.00  0.00    +0.000 A 
ATOM     21  C   UNL     1       6.182   5.311  16.751  0.00  0.00    +0.000 A 
ATOM     22  C   UNL     1       5.733   4.010  16.513  0.00  0.00    +0.000 A 
ATOM     23  C   UNL     1       4.410   3.668  16.776  0.00  0.00    +0.000 A 
ATOM     24  C   UNL     1       3.536   4.629  17.281  0.00  0.00    +0.000 A 
ENDBRANCH   5  19
BRANCH   6  25
ATOM     25  C   UNL     1       1.989   5.274  19.909  0.00  0.00    +0.000 A 
ATOM     26  C   UNL     1       1.139   4.313  19.340  0.00  0.00    +0.000 A 
ATOM     27  C   UNL     1       0.904   3.070  19.957  0.00  0.00    +0.000 A 
ATOM     28  C   UNL     1       1.500   2.758  21.174  0.00  0.00    +0.000 A 
ATOM     29  C   UNL     1       2.377   3.663  21.743  0.00  0.00    +0.000 A 
ATOM     30  C   UNL     1       2.639   4.874  21.094  0.00  0.00    +0.000 A 
ENDBRANCH   6  25
TORSDOF 5
ENDMDL
MODEL 8
REMARK VINA RESULT:      -7.5      1.272      1.365
REMARK  Name = 
REMARK  5 active torsions:
REMARK  status: ('A' for Active; 'I' for Inactive)
REMARK    1  A    between atoms: N_1  and  S_2
REMARK    2  A    between atoms: S_2  and  C_5
REMARK    3  A    between atoms: C_8  and  N_9
REMARK    4  A    between atoms: C_13  and  C_14
REMARK    5  A    between atoms: N_20  and  C_21
REMARK                            x       y       z     vdW  Elec       q    Type
REMARK                         _______ _______ _______ _____ _____    ______ ____
ROOT
ATOM      1  N   UNL     1       1.502   7.313  20.101  0.00  0.00    +0.000 NA
ATOM      2  C   UNL     1       2.338   7.285  19.105  0.00  0.00    +0.000 A 
ATOM      3  S   UNL     1       2.811   8.755  18.162  0.00  0.00    +0.000 S 
ATOM      4  C   UNL     1       4.030   7.890  17.308  0.00  0.00    +0.000 A 
ATOM      5  C   UNL     1       3.989   6.578  17.581  0.00  0.00    +0.000 A 
ATOM      6  N   UNL     1       3.028   6.172  18.546  0.00  0.00    +0.000 N 
ENDROOT
BRANCH   1  10
ATOM      7  C   UNL     1      -0.429  10.670  21.816  0.00  0.00    +0.000 A 
ATOM      8  C   UNL     1       0.204   9.720  22.615  0.00  0.00    +0.000 A 
ATOM      9  C   UNL     1       0.822   8.617  22.007  0.00  0.00    +0.000 A 
ATOM     10  C   UNL     1       0.824   8.442  20.610  0.00  0.00    +0.000 A 
ATOM     11  C   UNL     1       0.255   9.458  19.842  0.00  0.00    +0.000 A 
ATOM     12  C   UNL     1      -0.417  10.537  20.429  0.00  0.00    +0.000 A 
BRANCH   7  13
ATOM     13  S   UNL     1      -1.245  12.063  22.537  0.00  0.00    +0.000 S 
ATOM     14  O   UNL     1      -0.255  13.020  22.976  0.00  0.00    +0.000 OA
ATOM     15  O   UNL     1      -2.316  11.607  23.398  0.00  0.00    +0.000 OA
BRANCH  13  16
ATOM     16  N   UNL     1      -2.010  12.742  21.209  0.00  0.00    +0.000 NA
ATOM     17  H   UNL     1      -1.802  13.740  21.168  0.00  0.00    +0.000 HD
ATOM     18  H   UNL     1      -3.008  12.531  21.231  0.00  0.00    +0.000 HD
ENDBRANCH  13  16
ENDBRANCH   7  13
ENDBRANCH   1  10
BRANCH   5  19
ATOM     19  C   UNL     1       4.942   5.707  16.879  0.00  0.00    +0.000 A 
ATOM     20  C   UNL     1       4.732   5.285  15.562  0.00  0.00    +0.000 A 
ATOM     21  C   UNL     1       5.694   4.501  14.919  0.00  0.00    +0.000 A 
ATOM     22  C   UNL     1       6.873   4.152  15.581  0.00  0.00    +0.000 A 
ATOM     23  C   UNL     1       7.072   4.536  16.904  0.00  0.00    +0.000 A 
ATOM     24  C   UNL     1       6.090   5.272  17.564  0.00  0.00    +0.000 A 
ENDBRANCH   5  19
BRANCH   6  25
ATOM     25  C   UNL     1       2.754   4.808  18.913  0.00  0.00    +0.000 A 
ATOM     26  C   UNL     1       1.860   3.993  18.200  0.00  0.00    +0.000 A 
ATOM     27  C   UNL     1       1.558   2.683  18.614  0.00  0.00    +0.000 A 
ATOM     28  C   UNL     1       2.127   2.154  19.766  0.00  0.00    +0.000 A 
ATOM     29  C   UNL     1       3.045   2.911  20.471  0.00  0.00    +0.000 A 
ATOM     30  C   UNL     1       3.373   4.195  20.020  0.00  0.00    +0.000 A 
ENDBRANCH   6  25
TORSDOF 5
ENDMDL
MODEL 9
REMARK VINA RESULT:      -7.4      1.315      1.858
REMARK  Name = 
REMARK  5 active torsions:
REMARK  status: ('A' for Active; 'I' for Inactive)
REMARK    1  A    between atoms: N_1  and  S_2
REMARK    2  A    between atoms: S_2  and  C_5
REMARK    3  A    between atoms: C_8  and  N_9
REMARK    4  A    between atoms: C_13  and  C_14
REMARK    5  A    between atoms: N_20  and  C_21
REMARK                            x       y       z     vdW  Elec       q    Type
REMARK                         _______ _______ _______ _____ _____    ______ ____
ROOT
ATOM      1  N   UNL     1       1.507   7.434  20.114  0.00  0.00    +0.000 NA
ATOM      2  C   UNL     1       2.343   7.434  19.118  0.00  0.00    +0.000 A 
ATOM      3  S   UNL     1       2.791   8.924  18.196  0.00  0.00    +0.000 S 
ATOM      4  C   UNL     1       4.026   8.092  17.329  0.00  0.00    +0.000 A 
ATOM      5  C   UNL     1       4.007   6.776  17.585  0.00  0.00    +0.000 A 
ATOM      6  N   UNL     1       3.053   6.340  18.544  0.00  0.00    +0.000 N 
ENDROOT
BRANCH   1  10
ATOM      7  C   UNL     1      -0.489  10.727  21.878  0.00  0.00    +0.000 A 
ATOM      8  C   UNL     1       0.110   9.745  22.665  0.00  0.00    +0.000 A 
ATOM      9  C   UNL     1       0.751   8.664  22.040  0.00  0.00    +0.000 A 
ATOM     10  C   UNL     1       0.810   8.543  20.639  0.00  0.00    +0.000 A 
ATOM     11  C   UNL     1       0.274   9.590  19.888  0.00  0.00    +0.000 A 
ATOM     12  C   UNL     1      -0.419  10.648  20.489  0.00  0.00    +0.000 A 
BRANCH   7  13
ATOM     13  S   UNL     1      -1.332  12.093  22.619  0.00  0.00    +0.000 S 
ATOM     14  O   UNL     1      -0.361  13.051  23.096  0.00  0.00    +0.000 OA
ATOM     15  O   UNL     1      -2.410  11.604  23.453  0.00  0.00    +0.000 OA
BRANCH  13  16
ATOM     16  N   UNL     1      -2.085  12.793  21.296  0.00  0.00    +0.000 NA
ATOM     17  H   UNL     1      -1.508  12.662  20.465  0.00  0.00    +0.000 HD
ATOM     18  H   UNL     1      -2.306  13.770  21.492  0.00  0.00    +0.000 HD
ENDBRANCH  13  16
ENDBRANCH   7  13
ENDBRANCH   1  10
BRANCH   5  19
ATOM     19  C   UNL     1       4.974   5.931  16.871  0.00  0.00    +0.000 A 
ATOM     20  C   UNL     1       6.014   5.270  17.535  0.00  0.00    +0.000 A 
ATOM     21  C   UNL     1       6.877   4.433  16.820  0.00  0.00    +0.000 A 
ATOM     22  C   UNL     1       6.692   4.241  15.449  0.00  0.00    +0.000 A 
ATOM     23  C   UNL     1       5.685   4.925  14.776  0.00  0.00    +0.000 A 
ATOM     24  C   UNL     1       4.857   5.801  15.477  0.00  0.00    +0.000 A 
ENDBRANCH   5  19
BRANCH   6  25
ATOM     25  C   UNL     1       2.802   4.967  18.892  0.00  0.00    +0.000 A 
ATOM     26  C   UNL     1       3.392   4.342  20.001  0.00  0.00    +0.000 A 
ATOM     27  C   UNL     1       3.183   2.980  20.285  0.00  0.00    +0.000 A 
ATOM     28  C   UNL     1       2.389   2.196  19.456  0.00  0.00    +0.000 A 
ATOM     29  C   UNL     1       1.757   2.787  18.377  0.00  0.00    +0.000 A 
ATOM     30  C   UNL     1       1.935   4.153  18.135  0.00  0.00    +0.000 A 
ENDBRANCH   6  25
TORSDOF 5
ENDMDL
