MODEL 1
REMARK VINA RESULT:      -7.1      0.000      0.000
REMARK  Name = 
REMARK  3 active torsions:
REMARK  status: ('A' for Active; 'I' for Inactive)
REMARK    1  A    between atoms: C_2  and  C_15
REMARK    2  A    between atoms: C_7  and  C_8
REMARK    3  A    between atoms: C_18  and  O_19
REMARK                            x       y       z     vdW  Elec       q    Type
REMARK                         _______ _______ _______ _____ _____    ______ ____
ROOT
ATOM      1  O   UNL     1       3.318   6.072  19.020  0.00  0.00    +0.000 OA
ATOM      2  C   UNL     1       3.638   6.701  18.018  0.00  0.00    +0.000 C 
ATOM      3  N   UNL     1       3.096   7.885  17.570  0.00  0.00    +0.000 N 
ATOM      4  C   UNL     1       2.157   8.635  18.239  0.00  0.00    +0.000 A 
ATOM      5  N   UNL     1       1.527   9.645  17.684  0.00  0.00    +0.000 NA
ATOM      6  N   UNL     1       0.658  10.262  18.567  0.00  0.00    +0.000 NA
ATOM      7  C   UNL     1       0.676   9.703  19.763  0.00  0.00    +0.000 A 
ATOM      8  S   UNL     1       1.776   8.387  19.877  0.00  0.00    +0.000 S 
ATOM      9  H   UNL     1       3.271   8.209  16.628  0.00  0.00    +0.000 HD
ENDROOT
BRANCH   7  10
ATOM     10  C   UNL     1      -0.088  10.168  20.929  0.00  0.00    +0.000 A 
ATOM     11  C   UNL     1      -0.090   9.487  22.152  0.00  0.00    +0.000 A 
ATOM     12  C   UNL     1      -0.812  10.016  23.210  0.00  0.00    +0.000 A 
ATOM     13  N   UNL     1      -1.526  11.157  23.133  0.00  0.00    +0.000 NA
ATOM     14  C   UNL     1      -1.528  11.793  21.944  0.00  0.00    +0.000 A 
ATOM     15  C   UNL     1      -0.842  11.343  20.828  0.00  0.00    +0.000 A 
ENDBRANCH   7  10
BRANCH   2  16
ATOM     16  C   UNL     1       4.671   6.105  17.145  0.00  0.00    +0.000 A 
ATOM     17  C   UNL     1       4.507   4.800  16.676  0.00  0.00    +0.000 A 
ATOM     18  C   UNL     1       5.492   4.234  15.869  0.00  0.00    +0.000 A 
ATOM     19  C   UNL     1       6.608   4.999  15.575  0.00  0.00    +0.000 A 
ATOM     20  N   UNL     1       6.804   6.252  16.024  0.00  0.00    +0.000 NA
ATOM     21  C   UNL     1       5.837   6.778  16.812  0.00  0.00    +0.000 A 
BRANCH  19  22
ATOM     22  O   UNL     1       7.609   4.511  14.791  0.00  0.00    +0.000 OA
ATOM     23  H   UNL     1       8.445   4.606  15.269  0.00  0.00    +0.000 HD
ENDBRANCH  19  22
ENDBRANCH   2  16
TORSDOF 3
ENDMDL
MODEL 2
REMARK VINA RESULT:      -7.1      0.953      1.215
REMARK  Name = 
REMARK  3 active torsions:
REMARK  status: ('A' for Active; 'I' for Inactive)
REMARK    1  A    between atoms: C_2  and  C_15
REMARK    2  A    between atoms: C_7  and  C_8
REMARK    3  A    between atoms: C_18  and  O_19
REMARK                            x       y       z     vdW  Elec       q    Type
REMARK                         _______ _______ _______ _____ _____    ______ ____
ROOT
ATOM      1  O   UNL     1       3.030   5.567  18.729  0.00  0.00    +0.000 OA
ATOM      2  C   UNL     1       3.444   6.215  17.776  0.00  0.00    +0.000 C 
ATOM      3  N   UNL     1       3.094   7.499  17.425  0.00  0.00    +0.000 N 
ATOM      4  C   UNL     1       2.282   8.332  18.160  0.00  0.00    +0.000 A 
ATOM      5  N   UNL     1       1.818   9.468  17.692  0.00  0.00    +0.000 NA
ATOM      6  N   UNL     1       1.054  10.141  18.629  0.00  0.00    +0.000 NA
ATOM      7  C   UNL     1       0.983   9.495  19.779  0.00  0.00    +0.000 A 
ATOM      8  S   UNL     1       1.865   8.020  19.779  0.00  0.00    +0.000 S 
ATOM      9  H   UNL     1       3.319   7.865  16.510  0.00  0.00    +0.000 HD
ENDROOT
BRANCH   7  10
ATOM     10  C   UNL     1       0.300   9.981  20.985  0.00  0.00    +0.000 A 
ATOM     11  C   UNL     1       0.236   9.238  22.169  0.00  0.00    +0.000 A 
ATOM     12  C   UNL     1      -0.400   9.788  23.270  0.00  0.00    +0.000 A 
ATOM     13  N   UNL     1      -0.974  11.008  23.271  0.00  0.00    +0.000 NA
ATOM     14  C   UNL     1      -0.920  11.706  22.118  0.00  0.00    +0.000 A 
ATOM     15  C   UNL     1      -0.310  11.241  20.965  0.00  0.00    +0.000 A 
ENDBRANCH   7  10
BRANCH   2  16
ATOM     16  C   UNL     1       4.373   5.535  16.848  0.00  0.00    +0.000 A 
ATOM     17  C   UNL     1       5.125   6.294  15.949  0.00  0.00    +0.000 A 
ATOM     18  C   UNL     1       5.986   5.649  15.062  0.00  0.00    +0.000 A 
ATOM     19  C   UNL     1       6.048   4.266  15.108  0.00  0.00    +0.000 A 
ATOM     20  N   UNL     1       5.325   3.506  15.951  0.00  0.00    +0.000 NA
ATOM     21  C   UNL     1       4.491   4.154  16.797  0.00  0.00    +0.000 A 
BRANCH  19  22
ATOM     22  O   UNL     1       6.868   3.570  14.274  0.00  0.00    +0.000 OA
ATOM     23  H   UNL     1       6.708   3.871  13.368  0.00  0.00    +0.000 HD
ENDBRANCH  19  22
ENDBRANCH   2  16
TORSDOF 3
ENDMDL
MODEL 3
REMARK VINA RESULT:      -7.0      2.816      8.857
REMARK  Name = 
REMARK  3 active torsions:
REMARK  status: ('A' for Active; 'I' for Inactive)
REMARK    1  A    between atoms: C_2  and  C_15
REMARK    2  A    between atoms: C_7  and  C_8
REMARK    3  A    between atoms: C_18  and  O_19
REMARK                            x       y       z     vdW  Elec       q    Type
REMARK                         _______ _______ _______ _____ _____    ______ ____
ROOT
ATOM      1  O   UNL     1       1.518   9.063  18.928  0.00  0.00    +0.000 OA
ATOM      2  C   UNL     1       1.321   8.620  20.053  0.00  0.00    +0.000 C 
ATOM      3  N   UNL     1       1.729   7.404  20.552  0.00  0.00    +0.000 N 
ATOM      4  C   UNL     1       2.535   6.503  19.896  0.00  0.00    +0.000 A 
ATOM      5  N   UNL     1       2.732   5.278  20.327  0.00  0.00    +0.000 NA
ATOM      6  N   UNL     1       3.608   4.578  19.517  0.00  0.00    +0.000 NA
ATOM      7  C   UNL     1       4.053   5.306  18.509  0.00  0.00    +0.000 A 
ATOM      8  S   UNL     1       3.427   6.907  18.506  0.00  0.00    +0.000 S 
ATOM      9  H   UNL     1       1.334   7.038  21.409  0.00  0.00    +0.000 HD
ENDROOT
BRANCH   7  10
ATOM     10  C   UNL     1       5.039   4.866  17.514  0.00  0.00    +0.000 A 
ATOM     11  C   UNL     1       4.676   4.390  16.248  0.00  0.00    +0.000 A 
ATOM     12  C   UNL     1       5.675   4.027  15.359  0.00  0.00    +0.000 A 
ATOM     13  N   UNL     1       6.991   4.099  15.641  0.00  0.00    +0.000 NA
ATOM     14  C   UNL     1       7.326   4.544  16.870  0.00  0.00    +0.000 A 
ATOM     15  C   UNL     1       6.402   4.926  17.828  0.00  0.00    +0.000 A 
ENDBRANCH   7  10
BRANCH   2  16
ATOM     16  C   UNL     1       0.498   9.438  20.968  0.00  0.00    +0.000 A 
ATOM     17  C   UNL     1       0.346   9.040  22.298  0.00  0.00    +0.000 A 
ATOM     18  C   UNL     1      -0.446   9.803  23.154  0.00  0.00    +0.000 A 
ATOM     19  C   UNL     1      -1.064  10.929  22.636  0.00  0.00    +0.000 A 
ATOM     20  N   UNL     1      -0.951  11.330  21.357  0.00  0.00    +0.000 NA
ATOM     21  C   UNL     1      -0.182  10.569  20.542  0.00  0.00    +0.000 A 
BRANCH  19  22
ATOM     22  O   UNL     1      -1.850  11.723  23.415  0.00  0.00    +0.000 OA
ATOM     23  H   UNL     1      -2.632  11.973  22.902  0.00  0.00    +0.000 HD
ENDBRANCH  19  22
ENDBRANCH   2  16
TORSDOF 3
ENDMDL
MODEL 4
REMARK VINA RESULT:      -7.0      1.195      1.728
REMARK  Name = 
REMARK  3 active torsions:
REMARK  status: ('A' for Active; 'I' for Inactive)
REMARK    1  A    between atoms: C_2  and  C_15
REMARK    2  A    between atoms: C_7  and  C_8
REMARK    3  A    between atoms: C_18  and  O_19
REMARK                            x       y       z     vdW  Elec       q    Type
REMARK                         _______ _______ _______ _____ _____    ______ ____
ROOT
ATOM      1  O   UNL     1       2.465   5.965  19.387  0.00  0.00    +0.000 OA
ATOM      2  C   UNL     1       2.966   6.475  18.392  0.00  0.00    +0.000 C 
ATOM      3  N   UNL     1       2.747   7.745  17.907  0.00  0.00    +0.000 N 
ATOM      4  C   UNL     1       1.995   8.715  18.527  0.00  0.00    +0.000 A 
ATOM      5  N   UNL     1       1.652   9.836  17.934  0.00  0.00    +0.000 NA
ATOM      6  N   UNL     1       0.927  10.665  18.772  0.00  0.00    +0.000 NA
ATOM      7  C   UNL     1       0.762  10.145  19.975  0.00  0.00    +0.000 A 
ATOM      8  S   UNL     1       1.503   8.604  20.151  0.00  0.00    +0.000 S 
ATOM      9  H   UNL     1       3.032   7.996  16.970  0.00  0.00    +0.000 HD
ENDROOT
BRANCH   7  10
ATOM     10  C   UNL     1       0.092  10.807  21.102  0.00  0.00    +0.000 A 
ATOM     11  C   UNL     1      -0.062  12.196  21.180  0.00  0.00    +0.000 A 
ATOM     12  C   UNL     1      -0.738  12.734  22.263  0.00  0.00    +0.000 A 
ATOM     13  N   UNL     1      -1.259  11.994  23.262  0.00  0.00    +0.000 NA
ATOM     14  C   UNL     1      -1.089  10.659  23.183  0.00  0.00    +0.000 A 
ATOM     15  C   UNL     1      -0.426  10.028  22.143  0.00  0.00    +0.000 A 
ENDBRANCH   7  10
BRANCH   2  16
ATOM     16  C   UNL     1       3.855   5.626  17.571  0.00  0.00    +0.000 A 
ATOM     17  C   UNL     1       4.730   6.224  16.662  0.00  0.00    +0.000 A 
ATOM     18  C   UNL     1       5.553   5.421  15.875  0.00  0.00    +0.000 A 
ATOM     19  C   UNL     1       5.455   4.048  16.025  0.00  0.00    +0.000 A 
ATOM     20  N   UNL     1       4.612   3.441  16.879  0.00  0.00    +0.000 NA
ATOM     21  C   UNL     1       3.817   4.241  17.628  0.00  0.00    +0.000 A 
BRANCH  19  22
ATOM     22  O   UNL     1       6.230   3.202  15.291  0.00  0.00    +0.000 OA
ATOM     23  H   UNL     1       6.147   3.445  14.358  0.00  0.00    +0.000 HD
ENDBRANCH  19  22
ENDBRANCH   2  16
TORSDOF 3
ENDMDL
MODEL 5
REMARK VINA RESULT:      -7.0      0.151      1.036
REMARK  Name = 
REMARK  3 active torsions:
REMARK  status: ('A' for Active; 'I' for Inactive)
REMARK    1  A    between atoms: C_2  and  C_15
REMARK    2  A    between atoms: C_7  and  C_8
REMARK    3  A    between atoms: C_18  and  O_19
REMARK                            x       y       z     vdW  Elec       q    Type
REMARK                         _______ _______ _______ _____ _____    ______ ____
ROOT
ATOM      1  O   UNL     1       3.322   6.227  19.155  0.00  0.00    +0.000 OA
ATOM      2  C   UNL     1       3.589   6.803  18.107  0.00  0.00    +0.000 C 
ATOM      3  N   UNL     1       2.995   7.938  17.605  0.00  0.00    +0.000 N 
ATOM      4  C   UNL     1       2.051   8.698  18.256  0.00  0.00    +0.000 A 
ATOM      5  N   UNL     1       1.371   9.651  17.662  0.00  0.00    +0.000 NA
ATOM      6  N   UNL     1       0.509  10.294  18.533  0.00  0.00    +0.000 NA
ATOM      7  C   UNL     1       0.581   9.811  19.760  0.00  0.00    +0.000 A 
ATOM      8  S   UNL     1       1.728   8.541  19.918  0.00  0.00    +0.000 S 
ATOM      9  H   UNL     1       3.130   8.209  16.640  0.00  0.00    +0.000 HD
ENDROOT
BRANCH   7  10
ATOM     10  C   UNL     1      -0.162  10.323  20.919  0.00  0.00    +0.000 A 
ATOM     11  C   UNL     1      -0.936  11.488  20.866  0.00  0.00    +0.000 A 
ATOM     12  C   UNL     1      -1.632  11.880  21.999  0.00  0.00    +0.000 A 
ATOM     13  N   UNL     1      -1.605  11.204  23.165  0.00  0.00    +0.000 NA
ATOM     14  C   UNL     1      -0.842  10.093  23.206  0.00  0.00    +0.000 A 
ATOM     15  C   UNL     1      -0.109   9.622  22.130  0.00  0.00    +0.000 A 
ENDBRANCH   7  10
BRANCH   2  16
ATOM     16  C   UNL     1       4.615   6.187  17.239  0.00  0.00    +0.000 A 
ATOM     17  C   UNL     1       4.389   4.919  16.699  0.00  0.00    +0.000 A 
ATOM     18  C   UNL     1       5.366   4.333  15.897  0.00  0.00    +0.000 A 
ATOM     19  C   UNL     1       6.537   5.040  15.679  0.00  0.00    +0.000 A 
ATOM     20  N   UNL     1       6.792   6.255  16.198  0.00  0.00    +0.000 NA
ATOM     21  C   UNL     1       5.831   6.801  16.980  0.00  0.00    +0.000 A 
BRANCH  19  22
ATOM     22  O   UNL     1       7.534   4.530  14.904  0.00  0.00    +0.000 OA
ATOM     23  H   UNL     1       7.410   3.573  14.840  0.00  0.00    +0.000 HD
ENDBRANCH  19  22
ENDBRANCH   2  16
TORSDOF 3
ENDMDL
MODEL 6
REMARK VINA RESULT:      -7.0      2.563      3.535
REMARK  Name = 
REMARK  3 active torsions:
REMARK  status: ('A' for Active; 'I' for Inactive)
REMARK    1  A    between atoms: C_2  and  C_15
REMARK    2  A    between atoms: C_7  and  C_8
REMARK    3  A    between atoms: C_18  and  O_19
REMARK                            x       y       z     vdW  Elec       q    Type
REMARK                         _______ _______ _______ _____ _____    ______ ____
ROOT
ATOM      1  O   UNL     1       1.624   8.511  18.633  0.00  0.00    +0.000 OA
ATOM      2  C   UNL     1       2.024   7.784  19.534  0.00  0.00    +0.000 C 
ATOM      3  N   UNL     1       1.853   7.964  20.888  0.00  0.00    +0.000 N 
ATOM      4  C   UNL     1       1.096   8.954  21.471  0.00  0.00    +0.000 A 
ATOM      5  N   UNL     1       1.124   9.205  22.759  0.00  0.00    +0.000 NA
ATOM      6  N   UNL     1       0.252  10.222  23.108  0.00  0.00    +0.000 NA
ATOM      7  C   UNL     1      -0.415  10.691  22.069  0.00  0.00    +0.000 A 
ATOM      8  S   UNL     1      -0.016   9.899  20.597  0.00  0.00    +0.000 S 
ATOM      9  H   UNL     1       2.401   7.435  21.553  0.00  0.00    +0.000 HD
ENDROOT
BRANCH   7  10
ATOM     10  C   UNL     1      -1.454  11.728  22.126  0.00  0.00    +0.000 A 
ATOM     11  C   UNL     1      -1.657  12.653  21.095  0.00  0.00    +0.000 A 
ATOM     12  C   UNL     1      -2.683  13.575  21.217  0.00  0.00    +0.000 A 
ATOM     13  N   UNL     1      -3.507  13.642  22.282  0.00  0.00    +0.000 NA
ATOM     14  C   UNL     1      -3.290  12.756  23.275  0.00  0.00    +0.000 A 
ATOM     15  C   UNL     1      -2.289  11.799  23.247  0.00  0.00    +0.000 A 
ENDBRANCH   7  10
BRANCH   2  16
ATOM     16  C   UNL     1       2.842   6.615  19.148  0.00  0.00    +0.000 A 
ATOM     17  C   UNL     1       3.523   6.623  17.928  0.00  0.00    +0.000 A 
ATOM     18  C   UNL     1       4.277   5.512  17.558  0.00  0.00    +0.000 A 
ATOM     19  C   UNL     1       4.309   4.431  18.424  0.00  0.00    +0.000 A 
ATOM     20  N   UNL     1       3.652   4.386  19.597  0.00  0.00    +0.000 NA
ATOM     21  C   UNL     1       2.920   5.474  19.932  0.00  0.00    +0.000 A 
BRANCH  19  22
ATOM     22  O   UNL     1       5.027   3.313  18.129  0.00  0.00    +0.000 OA
ATOM     23  H   UNL     1       4.431   2.665  17.727  0.00  0.00    +0.000 HD
ENDBRANCH  19  22
ENDBRANCH   2  16
TORSDOF 3
ENDMDL
MODEL 7
REMARK VINA RESULT:      -7.0      3.118      3.696
REMARK  Name = 
REMARK  3 active torsions:
REMARK  status: ('A' for Active; 'I' for Inactive)
REMARK    1  A    between atoms: C_2  and  C_15
REMARK    2  A    between atoms: C_7  and  C_8
REMARK    3  A    between atoms: C_18  and  O_19
REMARK                            x       y       z     vdW  Elec       q    Type
REMARK                         _______ _______ _______ _____ _____    ______ ____
ROOT
ATOM      1  O   UNL     1       1.499   6.283  20.695  0.00  0.00    +0.000 OA
ATOM      2  C   UNL     1       2.362   6.088  19.847  0.00  0.00    +0.000 C 
ATOM      3  N   UNL     1       2.697   6.909  18.794  0.00  0.00    +0.000 N 
ATOM      4  C   UNL     1       2.184   8.165  18.569  0.00  0.00    +0.000 A 
ATOM      5  N   UNL     1       2.381   8.824  17.450  0.00  0.00    +0.000 NA
ATOM      6  N   UNL     1       1.794  10.077  17.476  0.00  0.00    +0.000 NA
ATOM      7  C   UNL     1       1.186  10.324  18.622  0.00  0.00    +0.000 A 
ATOM      8  S   UNL     1       1.311   9.029  19.745  0.00  0.00    +0.000 S 
ATOM      9  H   UNL     1       3.262   6.564  18.030  0.00  0.00    +0.000 HD
ENDROOT
BRANCH   7  10
ATOM     10  C   UNL     1       0.525  11.586  18.978  0.00  0.00    +0.000 A 
ATOM     11  C   UNL     1       1.129  12.835  18.791  0.00  0.00    +0.000 A 
ATOM     12  C   UNL     1       0.419  13.978  19.123  0.00  0.00    +0.000 A 
ATOM     13  N   UNL     1      -0.831  13.962  19.626  0.00  0.00    +0.000 NA
ATOM     14  C   UNL     1      -1.395  12.752  19.816  0.00  0.00    +0.000 A 
ATOM     15  C   UNL     1      -0.766  11.554  19.519  0.00  0.00    +0.000 A 
ENDBRANCH   7  10
BRANCH   2  16
ATOM     16  C   UNL     1       3.088   4.802  19.905  0.00  0.00    +0.000 A 
ATOM     17  C   UNL     1       2.534   3.729  20.606  0.00  0.00    +0.000 A 
ATOM     18  C   UNL     1       3.230   2.523  20.675  0.00  0.00    +0.000 A 
ATOM     19  C   UNL     1       4.462   2.449  20.046  0.00  0.00    +0.000 A 
ATOM     20  N   UNL     1       5.031   3.469  19.378  0.00  0.00    +0.000 NA
ATOM     21  C   UNL     1       4.339   4.631  19.330  0.00  0.00    +0.000 A 
BRANCH  19  22
ATOM     22  O   UNL     1       5.197   1.303  20.071  0.00  0.00    +0.000 OA
ATOM     23  H   UNL     1       6.127   1.534  19.941  0.00  0.00    +0.000 HD
ENDBRANCH  19  22
ENDBRANCH   2  16
TORSDOF 3
ENDMDL
MODEL 8
REMARK VINA RESULT:      -7.0      3.071      3.620
REMARK  Name = 
REMARK  3 active torsions:
REMARK  status: ('A' for Active; 'I' for Inactive)
REMARK    1  A    between atoms: C_2  and  C_15
REMARK    2  A    between atoms: C_7  and  C_8
REMARK    3  A    between atoms: C_18  and  O_19
REMARK                            x       y       z     vdW  Elec       q    Type
REMARK                         _______ _______ _______ _____ _____    ______ ____
ROOT
ATOM      1  O   UNL     1       1.442   6.251  20.691  0.00  0.00    +0.000 OA
ATOM      2  C   UNL     1       2.331   6.084  19.864  0.00  0.00    +0.000 C 
ATOM      3  N   UNL     1       2.684   6.931  18.839  0.00  0.00    +0.000 N 
ATOM      4  C   UNL     1       2.161   8.185  18.625  0.00  0.00    +0.000 A 
ATOM      5  N   UNL     1       2.381   8.870  17.526  0.00  0.00    +0.000 NA
ATOM      6  N   UNL     1       1.777  10.114  17.561  0.00  0.00    +0.000 NA
ATOM      7  C   UNL     1       1.133  10.329  18.694  0.00  0.00    +0.000 A 
ATOM      8  S   UNL     1       1.244   9.013  19.794  0.00  0.00    +0.000 S 
ATOM      9  H   UNL     1       3.276   6.610  18.084  0.00  0.00    +0.000 HD
ENDROOT
BRANCH   7  10
ATOM     10  C   UNL     1       0.446  11.576  19.057  0.00  0.00    +0.000 A 
ATOM     11  C   UNL     1      -0.746  11.597  19.791  0.00  0.00    +0.000 A 
ATOM     12  C   UNL     1      -1.308  12.820  20.118  0.00  0.00    +0.000 A 
ATOM     13  N   UNL     1      -0.776  14.007  19.764  0.00  0.00    +0.000 NA
ATOM     14  C   UNL     1       0.363  13.972  19.043  0.00  0.00    +0.000 A 
ATOM     15  C   UNL     1       0.998  12.801  18.665  0.00  0.00    +0.000 A 
ENDBRANCH   7  10
BRANCH   2  16
ATOM     16  C   UNL     1       3.072   4.806  19.916  0.00  0.00    +0.000 A 
ATOM     17  C   UNL     1       2.531   3.723  20.612  0.00  0.00    +0.000 A 
ATOM     18  C   UNL     1       3.241   2.526  20.676  0.00  0.00    +0.000 A 
ATOM     19  C   UNL     1       4.474   2.469  20.046  0.00  0.00    +0.000 A 
ATOM     20  N   UNL     1       5.030   3.498  19.383  0.00  0.00    +0.000 NA
ATOM     21  C   UNL     1       4.325   4.653  19.340  0.00  0.00    +0.000 A 
BRANCH  19  22
ATOM     22  O   UNL     1       5.222   1.331  20.065  0.00  0.00    +0.000 OA
ATOM     23  H   UNL     1       4.901   0.768  20.784  0.00  0.00    +0.000 HD
ENDBRANCH  19  22
ENDBRANCH   2  16
TORSDOF 3
ENDMDL
MODEL 9
REMARK VINA RESULT:      -7.0      2.678      8.837
REMARK  Name = 
REMARK  3 active torsions:
REMARK  status: ('A' for Active; 'I' for Inactive)
REMARK    1  A    between atoms: C_2  and  C_15
REMARK    2  A    between atoms: C_7  and  C_8
REMARK    3  A    between atoms: C_18  and  O_19
REMARK                            x       y       z     vdW  Elec       q    Type
REMARK                         _______ _______ _______ _____ _____    ______ ____
ROOT
ATOM      1  O   UNL     1       1.550   8.955  18.555  0.00  0.00    +0.000 OA
ATOM      2  C   UNL     1       1.552   8.547  19.710  0.00  0.00    +0.000 C 
ATOM      3  N   UNL     1       2.135   7.394  20.186  0.00  0.00    +0.000 N 
ATOM      4  C   UNL     1       2.921   6.537  19.451  0.00  0.00    +0.000 A 
ATOM      5  N   UNL     1       3.287   5.354  19.890  0.00  0.00    +0.000 NA
ATOM      6  N   UNL     1       4.101   4.695  18.986  0.00  0.00    +0.000 NA
ATOM      7  C   UNL     1       4.334   5.413  17.902  0.00  0.00    +0.000 A 
ATOM      8  S   UNL     1       3.571   6.953  17.936  0.00  0.00    +0.000 S 
ATOM      9  H   UNL     1       1.898   7.035  21.101  0.00  0.00    +0.000 HD
ENDROOT
BRANCH   7  10
ATOM     10  C   UNL     1       5.208   5.014  16.791  0.00  0.00    +0.000 A 
ATOM     11  C   UNL     1       4.738   4.323  15.668  0.00  0.00    +0.000 A 
ATOM     12  C   UNL     1       5.627   4.016  14.651  0.00  0.00    +0.000 A 
ATOM     13  N   UNL     1       6.935   4.340  14.678  0.00  0.00    +0.000 NA
ATOM     14  C   UNL     1       7.379   4.991  15.773  0.00  0.00    +0.000 A 
ATOM     15  C   UNL     1       6.569   5.339  16.842  0.00  0.00    +0.000 A 
ENDBRANCH   7  10
BRANCH   2  16
ATOM     16  C   UNL     1       0.793   9.332  20.706  0.00  0.00    +0.000 A 
ATOM     17  C   UNL     1      -0.160  10.256  20.274  0.00  0.00    +0.000 A 
ATOM     18  C   UNL     1      -0.861  11.008  21.214  0.00  0.00    +0.000 A 
ATOM     19  C   UNL     1      -0.566  10.810  22.553  0.00  0.00    +0.000 A 
ATOM     20  N   UNL     1       0.358   9.941  23.002  0.00  0.00    +0.000 NA
ATOM     21  C   UNL     1       1.030   9.226  22.069  0.00  0.00    +0.000 A 
BRANCH  19  22
ATOM     22  O   UNL     1      -1.212  11.508  23.527  0.00  0.00    +0.000 OA
ATOM     23  H   UNL     1      -2.068  11.796  23.179  0.00  0.00    +0.000 HD
ENDBRANCH  19  22
ENDBRANCH   2  16
TORSDOF 3
ENDMDL
