MODEL 1
REMARK VINA RESULT:      -8.5      0.000      0.000
REMARK  Name = 
REMARK  13 active torsions:
REMARK  status: ('A' for Active; 'I' for Inactive)
REMARK    1  A    between atoms: C_1  and  C_2
REMARK    2  A    between atoms: C_2  and  O_4
REMARK    3  A    between atoms: O_4  and  C_5
REMARK    4  A    between atoms: C_5  and  C_6
REMARK    5  A    between atoms: C_5  and  C_14
REMARK    6  A    between atoms: C_6  and  C_7
REMARK    7  A    between atoms: C_14  and  C_15
REMARK    8  A    between atoms: C_15  and  O_16
REMARK    9  A    between atoms: C_15  and  C_17
REMARK   10  A    between atoms: C_17  and  C_18
REMARK   11  A    between atoms: C_18  and  O_19
REMARK   12  A    between atoms: C_18  and  C_20
REMARK   13  A    between atoms: C_21  and  C_22
REMARK                            x       y       z     vdW  Elec       q    Type
REMARK                         _______ _______ _______ _____ _____    ______ ____
ROOT
ATOM      1  C   UNL     1       7.388   5.188  18.670  0.00  0.00    +0.000 C 
ENDROOT
BRANCH   1   2
ATOM      2  O   UNL     1       7.687   4.672  17.370  0.00  0.00    +0.000 OA
ATOM      3  H   UNL     1       7.497   3.718  17.369  0.00  0.00    +0.000 HD
ENDBRANCH   1   2
BRANCH   1   4
ATOM      4  C   UNL     1       5.870   5.182  18.879  0.00  0.00    +0.000 C 
BRANCH   4   5
ATOM      5  C   UNL     1       5.089   5.922  17.774  0.00  0.00    +0.000 C 
BRANCH   5   6
ATOM      6  O   UNL     1       4.921   5.000  16.669  0.00  0.00    +0.000 OA
BRANCH   6   8
ATOM      7  C   UNL     1       5.600   4.329  14.522  0.00  0.00    +0.000 C 
ATOM      8  C   UNL     1       5.256   5.469  15.435  0.00  0.00    +0.000 C 
ATOM      9  O   UNL     1       5.302   6.646  15.109  0.00  0.00    +0.000 OA
ENDBRANCH   6   8
ENDBRANCH   5   6
BRANCH   5  10
ATOM     10  C   UNL     1       3.697   6.345  18.286  0.00  0.00    +0.000 C 
BRANCH  10  11
ATOM     11  C   UNL     1       2.624   5.301  18.096  0.00  0.00    +0.000 C 
ATOM     12  C   UNL     1       2.218   4.474  19.064  0.00  0.00    +0.000 C 
ATOM     13  C   UNL     1       1.237   3.453  18.961  0.00  0.00    +0.000 C 
ATOM     14  C   UNL     1       1.099   2.868  20.143  0.00  0.00    +0.000 C 
ATOM     15  C   UNL     1       2.034   3.550  21.037  0.00  0.00    +0.000 C 
ATOM     16  O   UNL     1       2.165   3.289  22.220  0.00  0.00    +0.000 OA
ATOM     17  O   UNL     1       2.722   4.519  20.357  0.00  0.00    +0.000 OA
ENDBRANCH  10  11
ENDBRANCH   5  10
ENDBRANCH   4   5
ENDBRANCH   1   4
BRANCH   1  18
ATOM     18  C   UNL     1       8.008   6.590  18.772  0.00  0.00    +0.000 C 
BRANCH  18  19
ATOM     19  C   UNL     1       7.533   7.594  17.720  0.00  0.00    +0.000 C 
BRANCH  19  20
ATOM     20  O   UNL     1       7.976   7.158  16.437  0.00  0.00    +0.000 OA
ATOM     21  H   UNL     1       7.237   6.700  16.005  0.00  0.00    +0.000 HD
ENDBRANCH  19  20
BRANCH  19  22
ATOM     22  C   UNL     1       8.076   8.969  17.953  0.00  0.00    +0.000 C 
ATOM     23  C   UNL     1       8.961   9.265  18.917  0.00  0.00    +0.000 C 
BRANCH  23  24
ATOM     24  C   UNL     1       9.451  10.629  19.091  0.00  0.00    +0.000 A 
ATOM     25  C   UNL     1       9.560  11.165  20.378  0.00  0.00    +0.000 A 
ATOM     26  C   UNL     1       9.992  12.480  20.555  0.00  0.00    +0.000 A 
ATOM     27  C   UNL     1      10.316  13.262  19.446  0.00  0.00    +0.000 A 
ATOM     28  C   UNL     1      10.213  12.729  18.161  0.00  0.00    +0.000 A 
ATOM     29  C   UNL     1       9.778  11.414  17.982  0.00  0.00    +0.000 A 
ENDBRANCH  23  24
ENDBRANCH  19  22
ENDBRANCH  18  19
ENDBRANCH   1  18
TORSDOF 12
ENDMDL
MODEL 2
REMARK VINA RESULT:      -8.4      1.581      4.678
REMARK  Name = 
REMARK  13 active torsions:
REMARK  status: ('A' for Active; 'I' for Inactive)
REMARK    1  A    between atoms: C_1  and  C_2
REMARK    2  A    between atoms: C_2  and  O_4
REMARK    3  A    between atoms: O_4  and  C_5
REMARK    4  A    between atoms: C_5  and  C_6
REMARK    5  A    between atoms: C_5  and  C_14
REMARK    6  A    between atoms: C_6  and  C_7
REMARK    7  A    between atoms: C_14  and  C_15
REMARK    8  A    between atoms: C_15  and  O_16
REMARK    9  A    between atoms: C_15  and  C_17
REMARK   10  A    between atoms: C_17  and  C_18
REMARK   11  A    between atoms: C_18  and  O_19
REMARK   12  A    between atoms: C_18  and  C_20
REMARK   13  A    between atoms: C_21  and  C_22
REMARK                            x       y       z     vdW  Elec       q    Type
REMARK                         _______ _______ _______ _____ _____    ______ ____
ROOT
ATOM      1  C   UNL     1       7.334   5.795  19.402  0.00  0.00    +0.000 C 
ENDROOT
BRANCH   1   2
ATOM      2  O   UNL     1       7.938   5.256  20.580  0.00  0.00    +0.000 OA
ATOM      3  H   UNL     1       7.327   4.604  20.966  0.00  0.00    +0.000 HD
ENDBRANCH   1   2
BRANCH   1   4
ATOM      4  C   UNL     1       7.037   4.656  18.420  0.00  0.00    +0.000 C 
BRANCH   4   5
ATOM      5  C   UNL     1       5.533   4.392  18.212  0.00  0.00    +0.000 C 
BRANCH   5   6
ATOM      6  O   UNL     1       4.839   4.878  19.388  0.00  0.00    +0.000 OA
BRANCH   6   8
ATOM      7  C   UNL     1       3.669   2.873  19.750  0.00  0.00    +0.000 C 
ATOM      8  C   UNL     1       3.597   4.364  19.612  0.00  0.00    +0.000 C 
ATOM      9  O   UNL     1       2.561   5.009  19.668  0.00  0.00    +0.000 OA
ENDBRANCH   6   8
ENDBRANCH   5   6
BRANCH   5  10
ATOM     10  C   UNL     1       5.015   5.160  16.977  0.00  0.00    +0.000 C 
BRANCH  10  11
ATOM     11  C   UNL     1       4.979   4.341  15.710  0.00  0.00    +0.000 C 
ATOM     12  C   UNL     1       5.855   4.488  14.712  0.00  0.00    +0.000 C 
ATOM     13  C   UNL     1       5.876   3.779  13.481  0.00  0.00    +0.000 C 
ATOM     14  C   UNL     1       6.912   4.192  12.765  0.00  0.00    +0.000 C 
ATOM     15  C   UNL     1       7.579   5.207  13.577  0.00  0.00    +0.000 C 
ATOM     16  O   UNL     1       8.593   5.796  13.242  0.00  0.00    +0.000 OA
ATOM     17  O   UNL     1       6.910   5.389  14.758  0.00  0.00    +0.000 OA
ENDBRANCH  10  11
ENDBRANCH   5  10
ENDBRANCH   4   5
ENDBRANCH   1   4
BRANCH   1  18
ATOM     18  C   UNL     1       8.287   6.855  18.829  0.00  0.00    +0.000 C 
BRANCH  18  19
ATOM     19  C   UNL     1       7.659   7.828  17.828  0.00  0.00    +0.000 C 
BRANCH  19  20
ATOM     20  O   UNL     1       7.884   7.336  16.508  0.00  0.00    +0.000 OA
ATOM     21  H   UNL     1       8.479   7.955  16.056  0.00  0.00    +0.000 HD
ENDBRANCH  19  20
BRANCH  19  22
ATOM     22  C   UNL     1       8.248   9.200  17.914  0.00  0.00    +0.000 C 
ATOM     23  C   UNL     1       8.993   9.626  18.946  0.00  0.00    +0.000 C 
BRANCH  23  24
ATOM     24  C   UNL     1       9.538  10.979  18.969  0.00  0.00    +0.000 A 
ATOM     25  C   UNL     1       9.330  11.826  17.875  0.00  0.00    +0.000 A 
ATOM     26  C   UNL     1       9.876  13.109  17.870  0.00  0.00    +0.000 A 
ATOM     27  C   UNL     1      10.631  13.551  18.956  0.00  0.00    +0.000 A 
ATOM     28  C   UNL     1      10.837  12.711  20.051  0.00  0.00    +0.000 A 
ATOM     29  C   UNL     1      10.293  11.425  20.057  0.00  0.00    +0.000 A 
ENDBRANCH  23  24
ENDBRANCH  19  22
ENDBRANCH  18  19
ENDBRANCH   1  18
TORSDOF 12
ENDMDL
MODEL 3
REMARK VINA RESULT:      -8.0      2.388      3.838
REMARK  Name = 
REMARK  13 active torsions:
REMARK  status: ('A' for Active; 'I' for Inactive)
REMARK    1  A    between atoms: C_1  and  C_2
REMARK    2  A    between atoms: C_2  and  O_4
REMARK    3  A    between atoms: O_4  and  C_5
REMARK    4  A    between atoms: C_5  and  C_6
REMARK    5  A    between atoms: C_5  and  C_14
REMARK    6  A    between atoms: C_6  and  C_7
REMARK    7  A    between atoms: C_14  and  C_15
REMARK    8  A    between atoms: C_15  and  O_16
REMARK    9  A    between atoms: C_15  and  C_17
REMARK   10  A    between atoms: C_17  and  C_18
REMARK   11  A    between atoms: C_18  and  O_19
REMARK   12  A    between atoms: C_18  and  C_20
REMARK   13  A    between atoms: C_21  and  C_22
REMARK                            x       y       z     vdW  Elec       q    Type
REMARK                         _______ _______ _______ _____ _____    ______ ____
ROOT
ATOM      1  C   UNL     1       6.266   4.932  18.196  0.00  0.00    +0.000 C 
ENDROOT
BRANCH   1   2
ATOM      2  O   UNL     1       6.786   4.173  17.101  0.00  0.00    +0.000 OA
ATOM      3  H   UNL     1       6.908   3.254  17.397  0.00  0.00    +0.000 HD
ENDBRANCH   1   2
BRANCH   1   4
ATOM      4  C   UNL     1       4.938   5.574  17.779  0.00  0.00    +0.000 C 
BRANCH   4   5
ATOM      5  C   UNL     1       3.701   4.906  18.412  0.00  0.00    +0.000 C 
BRANCH   5   6
ATOM      6  O   UNL     1       4.167   4.066  19.496  0.00  0.00    +0.000 OA
BRANCH   6   8
ATOM      7  C   UNL     1       2.755   2.823  20.905  0.00  0.00    +0.000 C 
ATOM      8  C   UNL     1       3.549   2.859  19.633  0.00  0.00    +0.000 C 
ATOM      9  O   UNL     1       3.640   1.921  18.855  0.00  0.00    +0.000 OA
ENDBRANCH   6   8
ENDBRANCH   5   6
BRANCH   5  10
ATOM     10  C   UNL     1       2.745   5.973  18.986  0.00  0.00    +0.000 C 
BRANCH  10  11
ATOM     11  C   UNL     1       2.633   7.221  18.144  0.00  0.00    +0.000 C 
ATOM     12  C   UNL     1       2.026   8.337  18.557  0.00  0.00    +0.000 C 
ATOM     13  C   UNL     1       1.856   9.541  17.822  0.00  0.00    +0.000 C 
ATOM     14  C   UNL     1       1.225  10.424  18.583  0.00  0.00    +0.000 C 
ATOM     15  C   UNL     1       0.984   9.752  19.859  0.00  0.00    +0.000 C 
ATOM     16  O   UNL     1       0.439  10.274  20.817  0.00  0.00    +0.000 OA
ATOM     17  O   UNL     1       1.466   8.471  19.821  0.00  0.00    +0.000 OA
ENDBRANCH  10  11
ENDBRANCH   5  10
ENDBRANCH   4   5
ENDBRANCH   1   4
BRANCH   1  18
ATOM     18  C   UNL     1       7.333   5.958  18.605  0.00  0.00    +0.000 C 
BRANCH  18  19
ATOM     19  C   UNL     1       7.400   7.215  17.734  0.00  0.00    +0.000 C 
BRANCH  19  20
ATOM     20  O   UNL     1       7.768   6.837  16.410  0.00  0.00    +0.000 OA
ATOM     21  H   UNL     1       8.399   7.495  16.075  0.00  0.00    +0.000 HD
ENDBRANCH  19  20
BRANCH  19  22
ATOM     22  C   UNL     1       8.409   8.203  18.229  0.00  0.00    +0.000 C 
ATOM     23  C   UNL     1       8.234   9.533  18.178  0.00  0.00    +0.000 C 
BRANCH  23  24
ATOM     24  C   UNL     1       9.261  10.442  18.678  0.00  0.00    +0.000 A 
ATOM     25  C   UNL     1      10.174  11.011  17.785  0.00  0.00    +0.000 A 
ATOM     26  C   UNL     1      11.182  11.853  18.255  0.00  0.00    +0.000 A 
ATOM     27  C   UNL     1      11.280  12.128  19.619  0.00  0.00    +0.000 A 
ATOM     28  C   UNL     1      10.368  11.566  20.513  0.00  0.00    +0.000 A 
ATOM     29  C   UNL     1       9.360  10.721  20.044  0.00  0.00    +0.000 A 
ENDBRANCH  23  24
ENDBRANCH  19  22
ENDBRANCH  18  19
ENDBRANCH   1  18
TORSDOF 12
ENDMDL
MODEL 4
REMARK VINA RESULT:      -8.0      3.348      7.000
REMARK  Name = 
REMARK  13 active torsions:
REMARK  status: ('A' for Active; 'I' for Inactive)
REMARK    1  A    between atoms: C_1  and  C_2
REMARK    2  A    between atoms: C_2  and  O_4
REMARK    3  A    between atoms: O_4  and  C_5
REMARK    4  A    between atoms: C_5  and  C_6
REMARK    5  A    between atoms: C_5  and  C_14
REMARK    6  A    between atoms: C_6  and  C_7
REMARK    7  A    between atoms: C_14  and  C_15
REMARK    8  A    between atoms: C_15  and  O_16
REMARK    9  A    between atoms: C_15  and  C_17
REMARK   10  A    between atoms: C_17  and  C_18
REMARK   11  A    between atoms: C_18  and  O_19
REMARK   12  A    between atoms: C_18  and  C_20
REMARK   13  A    between atoms: C_21  and  C_22
REMARK                            x       y       z     vdW  Elec       q    Type
REMARK                         _______ _______ _______ _____ _____    ______ ____
ROOT
ATOM      1  C   UNL     1       4.143   2.348  19.456  0.00  0.00    +0.000 C 
ENDROOT
BRANCH   1   2
ATOM      2  O   UNL     1       5.184   1.716  20.205  0.00  0.00    +0.000 OA
ATOM      3  H   UNL     1       6.022   1.839  19.727  0.00  0.00    +0.000 HD
ENDBRANCH   1   2
BRANCH   1   4
ATOM      4  C   UNL     1       4.753   3.047  18.236  0.00  0.00    +0.000 C 
BRANCH   4   5
ATOM      5  C   UNL     1       5.156   4.512  18.497  0.00  0.00    +0.000 C 
BRANCH   5   6
ATOM      6  O   UNL     1       6.450   4.497  19.149  0.00  0.00    +0.000 OA
BRANCH   6   8
ATOM      7  C   UNL     1       7.744   6.363  18.542  0.00  0.00    +0.000 C 
ATOM      8  C   UNL     1       7.513   4.889  18.391  0.00  0.00    +0.000 C 
ATOM      9  O   UNL     1       8.176   4.162  17.666  0.00  0.00    +0.000 OA
ENDBRANCH   6   8
ENDBRANCH   5   6
BRANCH   5  10
ATOM     10  C   UNL     1       5.278   5.285  17.167  0.00  0.00    +0.000 C 
BRANCH  10  11
ATOM     11  C   UNL     1       5.114   4.428  15.936  0.00  0.00    +0.000 C 
ATOM     12  C   UNL     1       5.897   4.528  14.857  0.00  0.00    +0.000 C 
ATOM     13  C   UNL     1       5.795   3.780  13.654  0.00  0.00    +0.000 C 
ATOM     14  C   UNL     1       6.767   4.152  12.833  0.00  0.00    +0.000 C 
ATOM     15  C   UNL     1       7.521   5.181  13.547  0.00  0.00    +0.000 C 
ATOM     16  O   UNL     1       8.508   5.741  13.102  0.00  0.00    +0.000 OA
ATOM     17  O   UNL     1       6.965   5.411  14.778  0.00  0.00    +0.000 OA
ENDBRANCH  10  11
ENDBRANCH   5  10
ENDBRANCH   4   5
ENDBRANCH   1   4
BRANCH   1  18
ATOM     18  C   UNL     1       3.406   3.311  20.399  0.00  0.00    +0.000 C 
BRANCH  18  19
ATOM     19  C   UNL     1       1.922   3.522  20.090  0.00  0.00    +0.000 C 
BRANCH  19  20
ATOM     20  O   UNL     1       1.550   2.660  19.017  0.00  0.00    +0.000 OA
ATOM     21  H   UNL     1       0.870   2.049  19.347  0.00  0.00    +0.000 HD
ENDBRANCH  19  20
BRANCH  19  22
ATOM     22  C   UNL     1       1.616   4.928  19.679  0.00  0.00    +0.000 C 
ATOM     23  C   UNL     1       2.380   5.981  20.006  0.00  0.00    +0.000 C 
BRANCH  23  24
ATOM     24  C   UNL     1       2.023   7.328  19.573  0.00  0.00    +0.000 A 
ATOM     25  C   UNL     1       1.402   8.202  20.472  0.00  0.00    +0.000 A 
ATOM     26  C   UNL     1       1.023   9.479  20.059  0.00  0.00    +0.000 A 
ATOM     27  C   UNL     1       1.264   9.888  18.748  0.00  0.00    +0.000 A 
ATOM     28  C   UNL     1       1.888   9.022  17.849  0.00  0.00    +0.000 A 
ATOM     29  C   UNL     1       2.265   7.742  18.260  0.00  0.00    +0.000 A 
ENDBRANCH  23  24
ENDBRANCH  19  22
ENDBRANCH  18  19
ENDBRANCH   1  18
TORSDOF 12
ENDMDL
MODEL 5
REMARK VINA RESULT:      -7.9      1.331      1.718
REMARK  Name = 
REMARK  13 active torsions:
REMARK  status: ('A' for Active; 'I' for Inactive)
REMARK    1  A    between atoms: C_1  and  C_2
REMARK    2  A    between atoms: C_2  and  O_4
REMARK    3  A    between atoms: O_4  and  C_5
REMARK    4  A    between atoms: C_5  and  C_6
REMARK    5  A    between atoms: C_5  and  C_14
REMARK    6  A    between atoms: C_6  and  C_7
REMARK    7  A    between atoms: C_14  and  C_15
REMARK    8  A    between atoms: C_15  and  O_16
REMARK    9  A    between atoms: C_15  and  C_17
REMARK   10  A    between atoms: C_17  and  C_18
REMARK   11  A    between atoms: C_18  and  O_19
REMARK   12  A    between atoms: C_18  and  C_20
REMARK   13  A    between atoms: C_21  and  C_22
REMARK                            x       y       z     vdW  Elec       q    Type
REMARK                         _______ _______ _______ _____ _____    ______ ____
ROOT
ATOM      1  C   UNL     1       6.419   5.477  18.753  0.00  0.00    +0.000 C 
ENDROOT
BRANCH   1   2
ATOM      2  O   UNL     1       6.442   5.001  20.101  0.00  0.00    +0.000 OA
ATOM      3  H   UNL     1       6.260   5.751  20.693  0.00  0.00    +0.000 HD
ENDBRANCH   1   2
BRANCH   1   4
ATOM      4  C   UNL     1       6.535   4.286  17.795  0.00  0.00    +0.000 C 
BRANCH   4   5
ATOM      5  C   UNL     1       5.360   4.173  16.802  0.00  0.00    +0.000 C 
BRANCH   5   6
ATOM      6  O   UNL     1       5.909   3.765  15.525  0.00  0.00    +0.000 OA
BRANCH   6   8
ATOM      7  C   UNL     1       5.254   5.935  14.905  0.00  0.00    +0.000 C 
ATOM      8  C   UNL     1       6.140   4.758  14.621  0.00  0.00    +0.000 C 
ATOM      9  O   UNL     1       6.932   4.705  13.692  0.00  0.00    +0.000 OA
ENDBRANCH   6   8
ENDBRANCH   5   6
BRANCH   5  10
ATOM     10  C   UNL     1       4.353   3.103  17.275  0.00  0.00    +0.000 C 
BRANCH  10  11
ATOM     11  C   UNL     1       3.013   3.657  17.694  0.00  0.00    +0.000 C 
ATOM     12  C   UNL     1       2.514   3.528  18.927  0.00  0.00    +0.000 C 
ATOM     13  C   UNL     1       1.257   3.996  19.394  0.00  0.00    +0.000 C 
ATOM     14  C   UNL     1       1.138   3.695  20.680  0.00  0.00    +0.000 C 
ATOM     15  C   UNL     1       2.374   3.006  21.045  0.00  0.00    +0.000 C 
ATOM     16  O   UNL     1       2.627   2.600  22.167  0.00  0.00    +0.000 OA
ATOM     17  O   UNL     1       3.199   2.898  19.958  0.00  0.00    +0.000 OA
ENDBRANCH  10  11
ENDBRANCH   5  10
ENDBRANCH   4   5
ENDBRANCH   1   4
BRANCH   1  18
ATOM     18  C   UNL     1       7.561   6.493  18.595  0.00  0.00    +0.000 C 
BRANCH  18  19
ATOM     19  C   UNL     1       7.370   7.525  17.481  0.00  0.00    +0.000 C 
BRANCH  19  20
ATOM     20  O   UNL     1       8.035   7.062  16.308  0.00  0.00    +0.000 OA
ATOM     21  H   UNL     1       7.391   6.569  15.774  0.00  0.00    +0.000 HD
ENDBRANCH  19  20
BRANCH  19  22
ATOM     22  C   UNL     1       7.937   8.864  17.835  0.00  0.00    +0.000 C 
ATOM     23  C   UNL     1       8.856   9.051  18.794  0.00  0.00    +0.000 C 
BRANCH  23  24
ATOM     24  C   UNL     1       9.368  10.385  19.091  0.00  0.00    +0.000 A 
ATOM     25  C   UNL     1       9.772  11.219  18.043  0.00  0.00    +0.000 A 
ATOM     26  C   UNL     1      10.296  12.483  18.316  0.00  0.00    +0.000 A 
ATOM     27  C   UNL     1      10.418  12.917  19.636  0.00  0.00    +0.000 A 
ATOM     28  C   UNL     1      10.012  12.090  20.683  0.00  0.00    +0.000 A 
ATOM     29  C   UNL     1       9.489  10.824  20.413  0.00  0.00    +0.000 A 
ENDBRANCH  23  24
ENDBRANCH  19  22
ENDBRANCH  18  19
ENDBRANCH   1  18
TORSDOF 12
ENDMDL
MODEL 6
REMARK VINA RESULT:      -7.7      1.454      1.878
REMARK  Name = 
REMARK  13 active torsions:
REMARK  status: ('A' for Active; 'I' for Inactive)
REMARK    1  A    between atoms: C_1  and  C_2
REMARK    2  A    between atoms: C_2  and  O_4
REMARK    3  A    between atoms: O_4  and  C_5
REMARK    4  A    between atoms: C_5  and  C_6
REMARK    5  A    between atoms: C_5  and  C_14
REMARK    6  A    between atoms: C_6  and  C_7
REMARK    7  A    between atoms: C_14  and  C_15
REMARK    8  A    between atoms: C_15  and  O_16
REMARK    9  A    between atoms: C_15  and  C_17
REMARK   10  A    between atoms: C_17  and  C_18
REMARK   11  A    between atoms: C_18  and  O_19
REMARK   12  A    between atoms: C_18  and  C_20
REMARK   13  A    between atoms: C_21  and  C_22
REMARK                            x       y       z     vdW  Elec       q    Type
REMARK                         _______ _______ _______ _____ _____    ______ ____
ROOT
ATOM      1  C   UNL     1       5.752   5.949  18.182  0.00  0.00    +0.000 C 
ENDROOT
BRANCH   1   2
ATOM      2  O   UNL     1       6.060   5.609  19.537  0.00  0.00    +0.000 OA
ATOM      3  H   UNL     1       7.008   5.773  19.685  0.00  0.00    +0.000 HD
ENDBRANCH   1   2
BRANCH   1   4
ATOM      4  C   UNL     1       6.361   4.898  17.247  0.00  0.00    +0.000 C 
BRANCH   4   5
ATOM      5  C   UNL     1       5.336   4.239  16.304  0.00  0.00    +0.000 C 
BRANCH   5   6
ATOM      6  O   UNL     1       6.079   3.528  15.283  0.00  0.00    +0.000 OA
BRANCH   6   8
ATOM      7  C   UNL     1       5.668   3.648  12.972  0.00  0.00    +0.000 C 
ATOM      8  C   UNL     1       6.381   4.231  14.156  0.00  0.00    +0.000 C 
ATOM      9  O   UNL     1       7.142   5.185  14.096  0.00  0.00    +0.000 OA
ENDBRANCH   6   8
ENDBRANCH   5   6
BRANCH   5  10
ATOM     10  C   UNL     1       4.461   3.229  17.076  0.00  0.00    +0.000 C 
BRANCH  10  11
ATOM     11  C   UNL     1       3.117   3.771  17.499  0.00  0.00    +0.000 C 
ATOM     12  C   UNL     1       2.617   3.627  18.729  0.00  0.00    +0.000 C 
ATOM     13  C   UNL     1       1.357   4.082  19.199  0.00  0.00    +0.000 C 
ATOM     14  C   UNL     1       1.237   3.768  20.482  0.00  0.00    +0.000 C 
ATOM     15  C   UNL     1       2.478   3.084  20.843  0.00  0.00    +0.000 C 
ATOM     16  O   UNL     1       2.731   2.668  21.960  0.00  0.00    +0.000 OA
ATOM     17  O   UNL     1       3.305   2.991  19.755  0.00  0.00    +0.000 OA
ENDBRANCH  10  11
ENDBRANCH   5  10
ENDBRANCH   4   5
ENDBRANCH   1   4
BRANCH   1  18
ATOM     18  C   UNL     1       6.281   7.368  17.924  0.00  0.00    +0.000 C 
BRANCH  18  19
ATOM     19  C   UNL     1       7.805   7.508  17.916  0.00  0.00    +0.000 C 
BRANCH  19  20
ATOM     20  O   UNL     1       8.337   6.792  19.028  0.00  0.00    +0.000 OA
ATOM     21  H   UNL     1       9.135   7.257  19.330  0.00  0.00    +0.000 HD
ENDBRANCH  19  20
BRANCH  19  22
ATOM     22  C   UNL     1       8.251   8.932  18.030  0.00  0.00    +0.000 C 
ATOM     23  C   UNL     1       9.028   9.391  19.023  0.00  0.00    +0.000 C 
BRANCH  23  24
ATOM     24  C   UNL     1       9.426  10.794  19.074  0.00  0.00    +0.000 A 
ATOM     25  C   UNL     1       9.417  11.559  17.903  0.00  0.00    +0.000 A 
ATOM     26  C   UNL     1       9.830  12.890  17.933  0.00  0.00    +0.000 A 
ATOM     27  C   UNL     1      10.253  13.462  19.133  0.00  0.00    +0.000 A 
ATOM     28  C   UNL     1      10.258  12.705  20.305  0.00  0.00    +0.000 A 
ATOM     29  C   UNL     1       9.848  11.371  20.276  0.00  0.00    +0.000 A 
ENDBRANCH  23  24
ENDBRANCH  19  22
ENDBRANCH  18  19
ENDBRANCH   1  18
TORSDOF 12
ENDMDL
MODEL 7
REMARK VINA RESULT:      -7.7      3.170      7.047
REMARK  Name = 
REMARK  13 active torsions:
REMARK  status: ('A' for Active; 'I' for Inactive)
REMARK    1  A    between atoms: C_1  and  C_2
REMARK    2  A    between atoms: C_2  and  O_4
REMARK    3  A    between atoms: O_4  and  C_5
REMARK    4  A    between atoms: C_5  and  C_6
REMARK    5  A    between atoms: C_5  and  C_14
REMARK    6  A    between atoms: C_6  and  C_7
REMARK    7  A    between atoms: C_14  and  C_15
REMARK    8  A    between atoms: C_15  and  O_16
REMARK    9  A    between atoms: C_15  and  C_17
REMARK   10  A    between atoms: C_17  and  C_18
REMARK   11  A    between atoms: C_18  and  O_19
REMARK   12  A    between atoms: C_18  and  C_20
REMARK   13  A    between atoms: C_21  and  C_22
REMARK                            x       y       z     vdW  Elec       q    Type
REMARK                         _______ _______ _______ _____ _____    ______ ____
ROOT
ATOM      1  C   UNL     1       4.204   2.879  19.032  0.00  0.00    +0.000 C 
ENDROOT
BRANCH   1   2
ATOM      2  O   UNL     1       5.036   1.938  19.715  0.00  0.00    +0.000 OA
ATOM      3  H   UNL     1       5.965   2.192  19.572  0.00  0.00    +0.000 HD
ENDBRANCH   1   2
BRANCH   1   4
ATOM      4  C   UNL     1       4.869   3.274  17.709  0.00  0.00    +0.000 C 
BRANCH   4   5
ATOM      5  C   UNL     1       5.326   4.746  17.660  0.00  0.00    +0.000 C 
BRANCH   5   6
ATOM      6  O   UNL     1       6.763   4.761  17.846  0.00  0.00    +0.000 OA
BRANCH   6   8
ATOM      7  C   UNL     1       7.809   6.820  18.281  0.00  0.00    +0.000 C 
ATOM      8  C   UNL     1       7.235   5.555  18.848  0.00  0.00    +0.000 C 
ATOM      9  O   UNL     1       7.223   5.280  20.038  0.00  0.00    +0.000 OA
ENDBRANCH   6   8
ENDBRANCH   5   6
BRANCH   5  10
ATOM     10  C   UNL     1       4.996   5.370  16.288  0.00  0.00    +0.000 C 
BRANCH  10  11
ATOM     11  C   UNL     1       6.176   5.465  15.351  0.00  0.00    +0.000 C 
ATOM     12  C   UNL     1       6.263   4.785  14.204  0.00  0.00    +0.000 C 
ATOM     13  C   UNL     1       7.343   4.799  13.282  0.00  0.00    +0.000 C 
ATOM     14  C   UNL     1       7.043   4.015  12.256  0.00  0.00    +0.000 C 
ATOM     15  C   UNL     1       5.712   3.480  12.539  0.00  0.00    +0.000 C 
ATOM     16  O   UNL     1       5.103   2.730  11.795  0.00  0.00    +0.000 OA
ATOM     17  O   UNL     1       5.256   3.948  13.742  0.00  0.00    +0.000 OA
ENDBRANCH  10  11
ENDBRANCH   5  10
ENDBRANCH   4   5
ENDBRANCH   1   4
BRANCH   1  18
ATOM     18  C   UNL     1       3.973   4.071  19.974  0.00  0.00    +0.000 C 
BRANCH  18  19
ATOM     19  C   UNL     1       2.541   4.231  20.489  0.00  0.00    +0.000 C 
BRANCH  19  20
ATOM     20  O   UNL     1       1.699   3.312  19.797  0.00  0.00    +0.000 OA
ATOM     21  H   UNL     1       2.246   2.560  19.515  0.00  0.00    +0.000 HD
ENDBRANCH  19  20
BRANCH  19  22
ATOM     22  C   UNL     1       2.002   5.608  20.265  0.00  0.00    +0.000 C 
ATOM     23  C   UNL     1       2.594   6.520  19.479  0.00  0.00    +0.000 C 
BRANCH  23  24
ATOM     24  C   UNL     1       2.015   7.848  19.304  0.00  0.00    +0.000 A 
ATOM     25  C   UNL     1       2.175   8.518  18.087  0.00  0.00    +0.000 A 
ATOM     26  C   UNL     1       1.657   9.802  17.921  0.00  0.00    +0.000 A 
ATOM     27  C   UNL     1       0.978  10.421  18.970  0.00  0.00    +0.000 A 
ATOM     28  C   UNL     1       0.812   9.755  20.185  0.00  0.00    +0.000 A 
ATOM     29  C   UNL     1       1.332   8.470  20.354  0.00  0.00    +0.000 A 
ENDBRANCH  23  24
ENDBRANCH  19  22
ENDBRANCH  18  19
ENDBRANCH   1  18
TORSDOF 12
ENDMDL
MODEL 8
REMARK VINA RESULT:      -7.7      1.928      4.854
REMARK  Name = 
REMARK  13 active torsions:
REMARK  status: ('A' for Active; 'I' for Inactive)
REMARK    1  A    between atoms: C_1  and  C_2
REMARK    2  A    between atoms: C_2  and  O_4
REMARK    3  A    between atoms: O_4  and  C_5
REMARK    4  A    between atoms: C_5  and  C_6
REMARK    5  A    between atoms: C_5  and  C_14
REMARK    6  A    between atoms: C_6  and  C_7
REMARK    7  A    between atoms: C_14  and  C_15
REMARK    8  A    between atoms: C_15  and  O_16
REMARK    9  A    between atoms: C_15  and  C_17
REMARK   10  A    between atoms: C_17  and  C_18
REMARK   11  A    between atoms: C_18  and  O_19
REMARK   12  A    between atoms: C_18  and  C_20
REMARK   13  A    between atoms: C_21  and  C_22
REMARK                            x       y       z     vdW  Elec       q    Type
REMARK                         _______ _______ _______ _____ _____    ______ ____
ROOT
ATOM      1  C   UNL     1       6.147   5.497  19.133  0.00  0.00    +0.000 C 
ENDROOT
BRANCH   1   2
ATOM      2  O   UNL     1       6.278   4.120  19.495  0.00  0.00    +0.000 OA
ATOM      3  H   UNL     1       5.587   3.908  20.146  0.00  0.00    +0.000 HD
ENDBRANCH   1   2
BRANCH   1   4
ATOM      4  C   UNL     1       5.027   5.641  18.097  0.00  0.00    +0.000 C 
BRANCH   4   5
ATOM      5  C   UNL     1       4.436   4.296  17.631  0.00  0.00    +0.000 C 
BRANCH   5   6
ATOM      6  O   UNL     1       3.089   4.208  18.158  0.00  0.00    +0.000 OA
BRANCH   6   8
ATOM      7  C   UNL     1       1.148   2.996  18.695  0.00  0.00    +0.000 C 
ATOM      8  C   UNL     1       2.621   2.954  18.414  0.00  0.00    +0.000 C 
ATOM      9  O   UNL     1       3.295   1.935  18.441  0.00  0.00    +0.000 OA
ENDBRANCH   6   8
ENDBRANCH   5   6
BRANCH   5  10
ATOM     10  C   UNL     1       4.372   4.236  16.091  0.00  0.00    +0.000 C 
BRANCH  10  11
ATOM     11  C   UNL     1       5.567   4.845  15.398  0.00  0.00    +0.000 C 
ATOM     12  C   UNL     1       6.032   4.419  14.220  0.00  0.00    +0.000 C 
ATOM     13  C   UNL     1       7.160   4.919  13.515  0.00  0.00    +0.000 C 
ATOM     14  C   UNL     1       7.283   4.254  12.375  0.00  0.00    +0.000 C 
ATOM     15  C   UNL     1       6.184   3.290  12.354  0.00  0.00    +0.000 C 
ATOM     16  O   UNL     1       5.968   2.516  11.437  0.00  0.00    +0.000 OA
ATOM     17  O   UNL     1       5.437   3.394  13.498  0.00  0.00    +0.000 OA
ENDBRANCH  10  11
ENDBRANCH   5  10
ENDBRANCH   4   5
ENDBRANCH   1   4
BRANCH   1  18
ATOM     18  C   UNL     1       7.512   5.980  18.621  0.00  0.00    +0.000 C 
BRANCH  18  19
ATOM     19  C   UNL     1       7.496   7.313  17.870  0.00  0.00    +0.000 C 
BRANCH  19  20
ATOM     20  O   UNL     1       7.893   7.084  16.520  0.00  0.00    +0.000 OA
ATOM     21  H   UNL     1       8.205   7.928  16.153  0.00  0.00    +0.000 HD
ENDBRANCH  19  20
BRANCH  19  22
ATOM     22  C   UNL     1       8.433   8.317  18.462  0.00  0.00    +0.000 C 
ATOM     23  C   UNL     1       8.452   9.613  18.114  0.00  0.00    +0.000 C 
BRANCH  23  24
ATOM     24  C   UNL     1       9.395  10.541  18.732  0.00  0.00    +0.000 A 
ATOM     25  C   UNL     1       9.350  10.755  20.113  0.00  0.00    +0.000 A 
ATOM     26  C   UNL     1      10.222  11.666  20.709  0.00  0.00    +0.000 A 
ATOM     27  C   UNL     1      11.141  12.365  19.927  0.00  0.00    +0.000 A 
ATOM     28  C   UNL     1      11.192  12.151  18.549  0.00  0.00    +0.000 A 
ATOM     29  C   UNL     1      10.318  11.242  17.951  0.00  0.00    +0.000 A 
ENDBRANCH  23  24
ENDBRANCH  19  22
ENDBRANCH  18  19
ENDBRANCH   1  18
TORSDOF 12
ENDMDL
MODEL 9
REMARK VINA RESULT:      -7.7      3.501      4.985
REMARK  Name = 
REMARK  13 active torsions:
REMARK  status: ('A' for Active; 'I' for Inactive)
REMARK    1  A    between atoms: C_1  and  C_2
REMARK    2  A    between atoms: C_2  and  O_4
REMARK    3  A    between atoms: O_4  and  C_5
REMARK    4  A    between atoms: C_5  and  C_6
REMARK    5  A    between atoms: C_5  and  C_14
REMARK    6  A    between atoms: C_6  and  C_7
REMARK    7  A    between atoms: C_14  and  C_15
REMARK    8  A    between atoms: C_15  and  O_16
REMARK    9  A    between atoms: C_15  and  C_17
REMARK   10  A    between atoms: C_17  and  C_18
REMARK   11  A    between atoms: C_18  and  O_19
REMARK   12  A    between atoms: C_18  and  C_20
REMARK   13  A    between atoms: C_21  and  C_22
REMARK                            x       y       z     vdW  Elec       q    Type
REMARK                         _______ _______ _______ _____ _____    ______ ____
ROOT
ATOM      1  C   UNL     1       6.712   5.590  18.244  0.00  0.00    +0.000 C 
ENDROOT
BRANCH   1   2
ATOM      2  O   UNL     1       7.958   5.102  17.740  0.00  0.00    +0.000 OA
ATOM      3  H   UNL     1       8.303   5.748  17.100  0.00  0.00    +0.000 HD
ENDBRANCH   1   2
BRANCH   1   4
ATOM      4  C   UNL     1       5.689   4.449  18.251  0.00  0.00    +0.000 C 
BRANCH   4   5
ATOM      5  C   UNL     1       5.125   4.114  16.856  0.00  0.00    +0.000 C 
BRANCH   5   6
ATOM      6  O   UNL     1       6.194   3.506  16.089  0.00  0.00    +0.000 OA
BRANCH   6   8
ATOM      7  C   UNL     1       5.600   3.826  13.838  0.00  0.00    +0.000 C 
ATOM      8  C   UNL     1       6.558   4.150  14.945  0.00  0.00    +0.000 C 
ATOM      9  O   UNL     1       7.536   4.871  14.815  0.00  0.00    +0.000 OA
ENDBRANCH   6   8
ENDBRANCH   5   6
BRANCH   5  10
ATOM     10  C   UNL     1       3.961   3.107  16.970  0.00  0.00    +0.000 C 
BRANCH  10  11
ATOM     11  C   UNL     1       2.699   3.685  17.564  0.00  0.00    +0.000 C 
ATOM     12  C   UNL     1       2.336   3.511  18.838  0.00  0.00    +0.000 C 
ATOM     13  C   UNL     1       1.158   3.998  19.465  0.00  0.00    +0.000 C 
ATOM     14  C   UNL     1       1.170   3.637  20.741  0.00  0.00    +0.000 C 
ATOM     15  C   UNL     1       2.412   2.889  20.932  0.00  0.00    +0.000 C 
ATOM     16  O   UNL     1       2.771   2.418  21.998  0.00  0.00    +0.000 OA
ATOM     17  O   UNL     1       3.105   2.807  19.754  0.00  0.00    +0.000 OA
ENDBRANCH  10  11
ENDBRANCH   5  10
ENDBRANCH   4   5
ENDBRANCH   1   4
BRANCH   1  18
ATOM     18  C   UNL     1       6.287   6.779  17.370  0.00  0.00    +0.000 C 
BRANCH  18  19
ATOM     19  C   UNL     1       4.867   6.700  16.803  0.00  0.00    +0.000 C 
BRANCH  19  20
ATOM     20  O   UNL     1       4.893   7.127  15.443  0.00  0.00    +0.000 OA
ATOM     21  H   UNL     1       3.982   7.339  15.179  0.00  0.00    +0.000 HD
ENDBRANCH  19  20
BRANCH  19  22
ATOM     22  C   UNL     1       3.905   7.575  17.543  0.00  0.00    +0.000 C 
ATOM     23  C   UNL     1       2.923   7.103  18.326  0.00  0.00    +0.000 C 
BRANCH  23  24
ATOM     24  C   UNL     1       2.016   8.012  19.020  0.00  0.00    +0.000 A 
ATOM     25  C   UNL     1       1.488   9.114  18.339  0.00  0.00    +0.000 A 
ATOM     26  C   UNL     1       0.649  10.009  19.002  0.00  0.00    +0.000 A 
ATOM     27  C   UNL     1       0.335   9.807  20.346  0.00  0.00    +0.000 A 
ATOM     28  C   UNL     1       0.856   8.707  21.027  0.00  0.00    +0.000 A 
ATOM     29  C   UNL     1       1.698   7.811  20.366  0.00  0.00    +0.000 A 
ENDBRANCH  23  24
ENDBRANCH  19  22
ENDBRANCH  18  19
ENDBRANCH   1  18
TORSDOF 12
ENDMDL
