MODEL 1
REMARK VINA RESULT:      -9.6      0.000      0.000
REMARK  Name = 
REMARK  5 active torsions:
REMARK  status: ('A' for Active; 'I' for Inactive)
REMARK    1  A    between atoms: S_2  and  N_4
REMARK    2  A    between atoms: S_2  and  C_25
REMARK    3  A    between atoms: N_4  and  C_5
REMARK    4  A    between atoms: N_17  and  C_18
REMARK    5  A    between atoms: C_18  and  C_19
REMARK                            x       y       z     vdW  Elec       q    Type
REMARK                         _______ _______ _______ _____ _____    ______ ____
ROOT
ATOM      1  C   UNL     1       4.691   5.572  17.427  0.00  0.00    +0.000 A 
ATOM      2  C   UNL     1       4.306   6.695  16.726  0.00  0.00    +0.000 A 
ATOM      3  C   UNL     1       3.395   7.399  17.540  0.00  0.00    +0.000 A 
ATOM      4  N   UNL     1       2.743   8.562  17.314  0.00  0.00    +0.000 NA
ATOM      5  C   UNL     1       1.973   8.974  18.337  0.00  0.00    +0.000 A 
ATOM      6  C   UNL     1       1.280  10.169  18.193  0.00  0.00    +0.000 A 
ATOM      7  C   UNL     1       0.470  10.670  19.213  0.00  0.00    +0.000 A 
ATOM      8  C   UNL     1       0.350   9.964  20.402  0.00  0.00    +0.000 A 
ATOM      9  C   UNL     1       1.038   8.759  20.558  0.00  0.00    +0.000 A 
ATOM     10  C   UNL     1       1.849   8.247  19.553  0.00  0.00    +0.000 A 
ATOM     11  N   UNL     1       2.494   7.080  19.773  0.00  0.00    +0.000 NA
ATOM     12  C   UNL     1       3.253   6.695  18.727  0.00  0.00    +0.000 A 
ATOM     13  N   UNL     1       4.022   5.558  18.636  0.00  0.00    +0.000 N 
ENDROOT
BRANCH   1  14
ATOM     14  N   UNL     1       5.605   4.650  16.937  0.00  0.00    +0.000 N 
ATOM     15  H   UNL     1       5.682   3.765  17.420  0.00  0.00    +0.000 HD
BRANCH  14  17
ATOM     16  O   UNL     1       7.180   6.604  16.436  0.00  0.00    +0.000 OA
ATOM     17  S   UNL     1       7.041   5.167  16.341  0.00  0.00    +0.000 S 
ATOM     18  O   UNL     1       8.070   4.298  16.881  0.00  0.00    +0.000 OA
BRANCH  17  19
ATOM     19  C   UNL     1       6.941   4.806  14.593  0.00  0.00    +0.000 A 
ATOM     20  C   UNL     1       7.815   5.445  13.705  0.00  0.00    +0.000 A 
ATOM     21  C   UNL     1       7.783   5.109  12.349  0.00  0.00    +0.000 A 
ATOM     22  C   UNL     1       6.892   4.139  11.887  0.00  0.00    +0.000 A 
ATOM     23  C   UNL     1       6.026   3.500  12.774  0.00  0.00    +0.000 A 
ATOM     24  C   UNL     1       6.047   3.829  14.133  0.00  0.00    +0.000 A 
ENDBRANCH  17  19
ENDBRANCH  14  17
ENDBRANCH   1  14
BRANCH  13  25
ATOM     25  C   UNL     1       4.167   4.596  19.720  0.00  0.00    +0.000 C 
BRANCH  25  26
ATOM     26  C   UNL     1       2.956   3.704  19.821  0.00  0.00    +0.000 A 
ATOM     27  C   UNL     1       2.464   3.025  18.699  0.00  0.00    +0.000 A 
ATOM     28  C   UNL     1       1.286   2.276  18.786  0.00  0.00    +0.000 A 
ATOM     29  C   UNL     1       0.600   2.188  19.995  0.00  0.00    +0.000 A 
ATOM     30  C   UNL     1       1.103   2.822  21.126  0.00  0.00    +0.000 A 
ATOM     31  C   UNL     1       2.275   3.574  21.042  0.00  0.00    +0.000 A 
ENDBRANCH  25  26
ENDBRANCH  13  25
TORSDOF 5
ENDMDL
MODEL 2
REMARK VINA RESULT:      -9.4      0.140      1.257
REMARK  Name = 
REMARK  5 active torsions:
REMARK  status: ('A' for Active; 'I' for Inactive)
REMARK    1  A    between atoms: S_2  and  N_4
REMARK    2  A    between atoms: S_2  and  C_25
REMARK    3  A    between atoms: N_4  and  C_5
REMARK    4  A    between atoms: N_17  and  C_18
REMARK    5  A    between atoms: C_18  and  C_19
REMARK                            x       y       z     vdW  Elec       q    Type
REMARK                         _______ _______ _______ _____ _____    ______ ____
ROOT
ATOM      1  C   UNL     1       4.619   5.691  17.422  0.00  0.00    +0.000 A 
ATOM      2  C   UNL     1       4.223   6.807  16.715  0.00  0.00    +0.000 A 
ATOM      3  C   UNL     1       3.319   7.516  17.534  0.00  0.00    +0.000 A 
ATOM      4  N   UNL     1       2.661   8.675  17.305  0.00  0.00    +0.000 NA
ATOM      5  C   UNL     1       1.902   9.094  18.333  0.00  0.00    +0.000 A 
ATOM      6  C   UNL     1       1.204  10.286  18.187  0.00  0.00    +0.000 A 
ATOM      7  C   UNL     1       0.404  10.794  19.211  0.00  0.00    +0.000 A 
ATOM      8  C   UNL     1       0.299  10.097  20.408  0.00  0.00    +0.000 A 
ATOM      9  C   UNL     1       0.992   8.896  20.566  0.00  0.00    +0.000 A 
ATOM     10  C   UNL     1       1.793   8.376  19.557  0.00  0.00    +0.000 A 
ATOM     11  N   UNL     1       2.443   7.214  19.779  0.00  0.00    +0.000 NA
ATOM     12  C   UNL     1       3.192   6.821  18.728  0.00  0.00    +0.000 A 
ATOM     13  N   UNL     1       3.963   5.685  18.638  0.00  0.00    +0.000 N 
ENDROOT
BRANCH   1  14
ATOM     14  N   UNL     1       5.529   4.767  16.929  0.00  0.00    +0.000 N 
ATOM     15  H   UNL     1       5.579   3.868  17.389  0.00  0.00    +0.000 HD
BRANCH  14  17
ATOM     16  O   UNL     1       7.101   6.718  16.405  0.00  0.00    +0.000 OA
ATOM     17  S   UNL     1       6.989   5.275  16.386  0.00  0.00    +0.000 S 
ATOM     18  O   UNL     1       7.998   4.457  17.032  0.00  0.00    +0.000 OA
BRANCH  17  19
ATOM     19  C   UNL     1       6.994   4.813  14.658  0.00  0.00    +0.000 A 
ATOM     20  C   UNL     1       6.108   3.830  14.203  0.00  0.00    +0.000 A 
ATOM     21  C   UNL     1       6.065   3.521  12.841  0.00  0.00    +0.000 A 
ATOM     22  C   UNL     1       6.893   4.196  11.942  0.00  0.00    +0.000 A 
ATOM     23  C   UNL     1       7.771   5.179  12.397  0.00  0.00    +0.000 A 
ATOM     24  C   UNL     1       7.825   5.495  13.758  0.00  0.00    +0.000 A 
ENDBRANCH  17  19
ENDBRANCH  14  17
ENDBRANCH   1  14
BRANCH  13  25
ATOM     25  C   UNL     1       4.122   4.733  19.728  0.00  0.00    +0.000 C 
BRANCH  25  26
ATOM     26  C   UNL     1       2.909   3.849  19.860  0.00  0.00    +0.000 A 
ATOM     27  C   UNL     1       2.293   3.649  21.103  0.00  0.00    +0.000 A 
ATOM     28  C   UNL     1       1.226   2.752  21.227  0.00  0.00    +0.000 A 
ATOM     29  C   UNL     1       0.758   2.062  20.113  0.00  0.00    +0.000 A 
ATOM     30  C   UNL     1       1.333   2.285  18.865  0.00  0.00    +0.000 A 
ATOM     31  C   UNL     1       2.401   3.175  18.738  0.00  0.00    +0.000 A 
ENDBRANCH  25  26
ENDBRANCH  13  25
TORSDOF 5
ENDMDL
MODEL 3
REMARK VINA RESULT:      -9.2      1.545      2.315
REMARK  Name = 
REMARK  5 active torsions:
REMARK  status: ('A' for Active; 'I' for Inactive)
REMARK    1  A    between atoms: S_2  and  N_4
REMARK    2  A    between atoms: S_2  and  C_25
REMARK    3  A    between atoms: N_4  and  C_5
REMARK    4  A    between atoms: N_17  and  C_18
REMARK    5  A    between atoms: C_18  and  C_19
REMARK                            x       y       z     vdW  Elec       q    Type
REMARK                         _______ _______ _______ _____ _____    ______ ____
ROOT
ATOM      1  C   UNL     1       2.957   6.786  18.289  0.00  0.00    +0.000 A 
ATOM      2  C   UNL     1       2.439   8.003  17.897  0.00  0.00    +0.000 A 
ATOM      3  C   UNL     1       1.746   8.534  19.005  0.00  0.00    +0.000 A 
ATOM      4  N   UNL     1       1.076   9.702  19.136  0.00  0.00    +0.000 NA
ATOM      5  C   UNL     1       0.565   9.913  20.361  0.00  0.00    +0.000 A 
ATOM      6  C   UNL     1      -0.125  11.097  20.586  0.00  0.00    +0.000 A 
ATOM      7  C   UNL     1      -0.676  11.396  21.833  0.00  0.00    +0.000 A 
ATOM      8  C   UNL     1      -0.534  10.494  22.878  0.00  0.00    +0.000 A 
ATOM      9  C   UNL     1       0.154   9.298  22.665  0.00  0.00    +0.000 A 
ATOM     10  C   UNL     1       0.709   8.985  21.430  0.00  0.00    +0.000 A 
ATOM     11  N   UNL     1       1.370   7.815  21.294  0.00  0.00    +0.000 NA
ATOM     12  C   UNL     1       1.867   7.634  20.054  0.00  0.00    +0.000 A 
ATOM     13  N   UNL     1       2.579   6.548  19.597  0.00  0.00    +0.000 N 
ENDROOT
BRANCH   1  14
ATOM     14  N   UNL     1       3.722   5.985  17.454  0.00  0.00    +0.000 N 
ATOM     15  H   UNL     1       3.408   5.037  17.298  0.00  0.00    +0.000 HD
BRANCH  14  17
ATOM     16  O   UNL     1       5.798   7.478  17.345  0.00  0.00    +0.000 OA
ATOM     17  S   UNL     1       5.355   6.107  17.484  0.00  0.00    +0.000 S 
ATOM     18  O   UNL     1       5.828   5.298  18.591  0.00  0.00    +0.000 OA
BRANCH  17  19
ATOM     19  C   UNL     1       5.881   5.277  15.990  0.00  0.00    +0.000 A 
ATOM     20  C   UNL     1       5.011   4.384  15.353  0.00  0.00    +0.000 A 
ATOM     21  C   UNL     1       5.397   3.791  14.148  0.00  0.00    +0.000 A 
ATOM     22  C   UNL     1       6.636   4.094  13.582  0.00  0.00    +0.000 A 
ATOM     23  C   UNL     1       7.498   4.987  14.215  0.00  0.00    +0.000 A 
ATOM     24  C   UNL     1       7.125   5.586  15.422  0.00  0.00    +0.000 A 
ENDBRANCH  17  19
ENDBRANCH  14  17
ENDBRANCH   1  14
BRANCH  13  25
ATOM     25  C   UNL     1       2.951   5.420  20.438  0.00  0.00    +0.000 C 
BRANCH  25  26
ATOM     26  C   UNL     1       2.413   4.126  19.882  0.00  0.00    +0.000 A 
ATOM     27  C   UNL     1       3.278   3.125  19.418  0.00  0.00    +0.000 A 
ATOM     28  C   UNL     1       2.764   1.970  18.818  0.00  0.00    +0.000 A 
ATOM     29  C   UNL     1       1.388   1.799  18.691  0.00  0.00    +0.000 A 
ATOM     30  C   UNL     1       0.520   2.766  19.187  0.00  0.00    +0.000 A 
ATOM     31  C   UNL     1       1.028   3.922  19.781  0.00  0.00    +0.000 A 
ENDBRANCH  25  26
ENDBRANCH  13  25
TORSDOF 5
ENDMDL
MODEL 4
REMARK VINA RESULT:      -8.7      1.398      1.953
REMARK  Name = 
REMARK  5 active torsions:
REMARK  status: ('A' for Active; 'I' for Inactive)
REMARK    1  A    between atoms: S_2  and  N_4
REMARK    2  A    between atoms: S_2  and  C_25
REMARK    3  A    between atoms: N_4  and  C_5
REMARK    4  A    between atoms: N_17  and  C_18
REMARK    5  A    between atoms: C_18  and  C_19
REMARK                            x       y       z     vdW  Elec       q    Type
REMARK                         _______ _______ _______ _____ _____    ______ ____
ROOT
ATOM      1  C   UNL     1       3.191   6.760  18.011  0.00  0.00    +0.000 A 
ATOM      2  C   UNL     1       2.670   7.984  17.647  0.00  0.00    +0.000 A 
ATOM      3  C   UNL     1       1.995   8.498  18.773  0.00  0.00    +0.000 A 
ATOM      4  N   UNL     1       1.330   9.665  18.932  0.00  0.00    +0.000 NA
ATOM      5  C   UNL     1       0.837   9.858  20.168  0.00  0.00    +0.000 A 
ATOM      6  C   UNL     1       0.153  11.039  20.422  0.00  0.00    +0.000 A 
ATOM      7  C   UNL     1      -0.379  11.319  21.681  0.00  0.00    +0.000 A 
ATOM      8  C   UNL     1      -0.223  10.400  22.710  0.00  0.00    +0.000 A 
ATOM      9  C   UNL     1       0.459   9.206  22.468  0.00  0.00    +0.000 A 
ATOM     10  C   UNL     1       0.994   8.912  21.220  0.00  0.00    +0.000 A 
ATOM     11  N   UNL     1       1.651   7.744  21.055  0.00  0.00    +0.000 NA
ATOM     12  C   UNL     1       2.129   7.581  19.805  0.00  0.00    +0.000 A 
ATOM     13  N   UNL     1       2.832   6.502  19.320  0.00  0.00    +0.000 N 
ENDROOT
BRANCH   1  14
ATOM     14  N   UNL     1       3.943   5.971  17.152  0.00  0.00    +0.000 N 
ATOM     15  H   UNL     1       3.644   5.015  17.013  0.00  0.00    +0.000 HD
BRANCH  14  17
ATOM     16  O   UNL     1       5.980   7.516  17.029  0.00  0.00    +0.000 OA
ATOM     17  S   UNL     1       5.573   6.130  17.120  0.00  0.00    +0.000 S 
ATOM     18  O   UNL     1       6.110   5.280  18.165  0.00  0.00    +0.000 OA
BRANCH  17  19
ATOM     19  C   UNL     1       6.052   5.384  15.566  0.00  0.00    +0.000 A 
ATOM     20  C   UNL     1       7.307   5.673  15.020  0.00  0.00    +0.000 A 
ATOM     21  C   UNL     1       7.707   5.035  13.843  0.00  0.00    +0.000 A 
ATOM     22  C   UNL     1       6.864   4.111  13.224  0.00  0.00    +0.000 A 
ATOM     23  C   UNL     1       5.616   3.821  13.774  0.00  0.00    +0.000 A 
ATOM     24  C   UNL     1       5.203   4.454  14.949  0.00  0.00    +0.000 A 
ENDBRANCH  17  19
ENDBRANCH  14  17
ENDBRANCH   1  14
BRANCH  13  25
ATOM     25  C   UNL     1       3.215   5.359  20.137  0.00  0.00    +0.000 C 
BRANCH  25  26
ATOM     26  C   UNL     1       2.616   4.083  19.602  0.00  0.00    +0.000 A 
ATOM     27  C   UNL     1       1.230   3.879  19.607  0.00  0.00    +0.000 A 
ATOM     28  C   UNL     1       0.694   2.654  19.195  0.00  0.00    +0.000 A 
ATOM     29  C   UNL     1       1.535   1.632  18.764  0.00  0.00    +0.000 A 
ATOM     30  C   UNL     1       2.911   1.838  18.714  0.00  0.00    +0.000 A 
ATOM     31  C   UNL     1       3.449   3.057  19.128  0.00  0.00    +0.000 A 
ENDBRANCH  25  26
ENDBRANCH  13  25
TORSDOF 5
ENDMDL
MODEL 5
REMARK VINA RESULT:      -8.6      2.433      3.088
REMARK  Name = 
REMARK  5 active torsions:
REMARK  status: ('A' for Active; 'I' for Inactive)
REMARK    1  A    between atoms: S_2  and  N_4
REMARK    2  A    between atoms: S_2  and  C_25
REMARK    3  A    between atoms: N_4  and  C_5
REMARK    4  A    between atoms: N_17  and  C_18
REMARK    5  A    between atoms: C_18  and  C_19
REMARK                            x       y       z     vdW  Elec       q    Type
REMARK                         _______ _______ _______ _____ _____    ______ ____
ROOT
ATOM      1  C   UNL     1       3.336   6.395  17.729  0.00  0.00    +0.000 A 
ATOM      2  C   UNL     1       2.895   7.570  17.158  0.00  0.00    +0.000 A 
ATOM      3  C   UNL     1       2.211   8.286  18.162  0.00  0.00    +0.000 A 
ATOM      4  N   UNL     1       1.605   9.495  18.111  0.00  0.00    +0.000 NA
ATOM      5  C   UNL     1       1.081   9.902  19.281  0.00  0.00    +0.000 A 
ATOM      6  C   UNL     1       0.454  11.140  19.320  0.00  0.00    +0.000 A 
ATOM      7  C   UNL     1      -0.104  11.638  20.498  0.00  0.00    +0.000 A 
ATOM      8  C   UNL     1      -0.034  10.885  21.662  0.00  0.00    +0.000 A 
ATOM      9  C   UNL     1       0.590   9.636  21.635  0.00  0.00    +0.000 A 
ATOM     10  C   UNL     1       1.151   9.126  20.472  0.00  0.00    +0.000 A 
ATOM     11  N   UNL     1       1.748   7.915  20.517  0.00  0.00    +0.000 NA
ATOM     12  C   UNL     1       2.259   7.536  19.328  0.00  0.00    +0.000 A 
ATOM     13  N   UNL     1       2.918   6.362  19.045  0.00  0.00    +0.000 N 
ENDROOT
BRANCH   1  14
ATOM     14  N   UNL     1       4.072   5.445  17.034  0.00  0.00    +0.000 N 
ATOM     15  H   UNL     1       4.253   4.564  17.495  0.00  0.00    +0.000 HD
BRANCH  14  17
ATOM     16  O   UNL     1       5.866   4.819  15.319  0.00  0.00    +0.000 OA
ATOM     17  S   UNL     1       5.314   5.921  16.078  0.00  0.00    +0.000 S 
ATOM     18  O   UNL     1       4.898   7.135  15.402  0.00  0.00    +0.000 OA
BRANCH  17  19
ATOM     19  C   UNL     1       6.593   6.399  17.233  0.00  0.00    +0.000 A 
ATOM     20  C   UNL     1       7.155   7.678  17.152  0.00  0.00    +0.000 A 
ATOM     21  C   UNL     1       8.103   8.074  18.099  0.00  0.00    +0.000 A 
ATOM     22  C   UNL     1       8.479   7.202  19.122  0.00  0.00    +0.000 A 
ATOM     23  C   UNL     1       7.915   5.930  19.204  0.00  0.00    +0.000 A 
ATOM     24  C   UNL     1       6.967   5.521  18.261  0.00  0.00    +0.000 A 
ENDBRANCH  17  19
ENDBRANCH  14  17
ENDBRANCH   1  14
BRANCH  13  25
ATOM     25  C   UNL     1       3.210   5.344  20.044  0.00  0.00    +0.000 C 
BRANCH  25  26
ATOM     26  C   UNL     1       2.626   4.011  19.649  0.00  0.00    +0.000 A 
ATOM     27  C   UNL     1       3.454   2.933  19.307  0.00  0.00    +0.000 A 
ATOM     28  C   UNL     1       2.899   1.732  18.853  0.00  0.00    +0.000 A 
ATOM     29  C   UNL     1       1.517   1.594  18.750  0.00  0.00    +0.000 A 
ATOM     30  C   UNL     1       0.684   2.642  19.129  0.00  0.00    +0.000 A 
ATOM     31  C   UNL     1       1.234   3.843  19.578  0.00  0.00    +0.000 A 
ENDBRANCH  25  26
ENDBRANCH  13  25
TORSDOF 5
ENDMDL
MODEL 6
REMARK VINA RESULT:      -8.4      1.177      1.337
REMARK  Name = 
REMARK  5 active torsions:
REMARK  status: ('A' for Active; 'I' for Inactive)
REMARK    1  A    between atoms: S_2  and  N_4
REMARK    2  A    between atoms: S_2  and  C_25
REMARK    3  A    between atoms: N_4  and  C_5
REMARK    4  A    between atoms: N_17  and  C_18
REMARK    5  A    between atoms: C_18  and  C_19
REMARK                            x       y       z     vdW  Elec       q    Type
REMARK                         _______ _______ _______ _____ _____    ______ ____
ROOT
ATOM      1  C   UNL     1       4.480   6.545  17.348  0.00  0.00    +0.000 A 
ATOM      2  C   UNL     1       3.907   7.677  16.806  0.00  0.00    +0.000 A 
ATOM      3  C   UNL     1       2.936   8.129  17.724  0.00  0.00    +0.000 A 
ATOM      4  N   UNL     1       2.112   9.200  17.663  0.00  0.00    +0.000 NA
ATOM      5  C   UNL     1       1.332   9.361  18.747  0.00  0.00    +0.000 A 
ATOM      6  C   UNL     1       0.467  10.446  18.773  0.00  0.00    +0.000 A 
ATOM      7  C   UNL     1      -0.366  10.689  19.866  0.00  0.00    +0.000 A 
ATOM      8  C   UNL     1      -0.334   9.830  20.956  0.00  0.00    +0.000 A 
ATOM      9  C   UNL     1       0.528   8.732  20.940  0.00  0.00    +0.000 A 
ATOM     10  C   UNL     1       1.364   8.476  19.861  0.00  0.00    +0.000 A 
ATOM     11  N   UNL     1       2.181   7.402  19.914  0.00  0.00    +0.000 NA
ATOM     12  C   UNL     1       2.946   7.269  18.812  0.00  0.00    +0.000 A 
ATOM     13  N   UNL     1       3.869   6.280  18.558  0.00  0.00    +0.000 N 
ENDROOT
BRANCH   1  14
ATOM     14  N   UNL     1       5.498   5.839  16.723  0.00  0.00    +0.000 N 
ATOM     15  H   UNL     1       6.144   6.361  16.147  0.00  0.00    +0.000 HD
BRANCH  14  17
ATOM     16  O   UNL     1       5.911   3.318  16.883  0.00  0.00    +0.000 OA
ATOM     17  S   UNL     1       5.205   4.338  16.137  0.00  0.00    +0.000 S 
ATOM     18  O   UNL     1       3.773   4.229  15.929  0.00  0.00    +0.000 OA
BRANCH  17  19
ATOM     19  C   UNL     1       5.952   4.352  14.512  0.00  0.00    +0.000 A 
ATOM     20  C   UNL     1       7.118   5.097  14.294  0.00  0.00    +0.000 A 
ATOM     21  C   UNL     1       7.739   5.050  13.044  0.00  0.00    +0.000 A 
ATOM     22  C   UNL     1       7.205   4.260  12.024  0.00  0.00    +0.000 A 
ATOM     23  C   UNL     1       6.047   3.515  12.245  0.00  0.00    +0.000 A 
ATOM     24  C   UNL     1       5.415   3.556  13.491  0.00  0.00    +0.000 A 
ENDBRANCH  17  19
ENDBRANCH  14  17
ENDBRANCH   1  14
BRANCH  13  25
ATOM     25  C   UNL     1       4.196   5.223  19.505  0.00  0.00    +0.000 C 
BRANCH  25  26
ATOM     26  C   UNL     1       3.026   4.294  19.709  0.00  0.00    +0.000 A 
ATOM     27  C   UNL     1       2.376   3.703  18.617  0.00  0.00    +0.000 A 
ATOM     28  C   UNL     1       1.235   2.918  18.815  0.00  0.00    +0.000 A 
ATOM     29  C   UNL     1       0.745   2.706  20.101  0.00  0.00    +0.000 A 
ATOM     30  C   UNL     1       1.408   3.252  21.195  0.00  0.00    +0.000 A 
ATOM     31  C   UNL     1       2.544   4.039  21.002  0.00  0.00    +0.000 A 
ENDBRANCH  25  26
ENDBRANCH  13  25
TORSDOF 5
ENDMDL
MODEL 7
REMARK VINA RESULT:      -8.3      5.937      9.395
REMARK  Name = 
REMARK  5 active torsions:
REMARK  status: ('A' for Active; 'I' for Inactive)
REMARK    1  A    between atoms: S_2  and  N_4
REMARK    2  A    between atoms: S_2  and  C_25
REMARK    3  A    between atoms: N_4  and  C_5
REMARK    4  A    between atoms: N_17  and  C_18
REMARK    5  A    between atoms: C_18  and  C_19
REMARK                            x       y       z     vdW  Elec       q    Type
REMARK                         _______ _______ _______ _____ _____    ______ ____
ROOT
ATOM      1  C   UNL     1      -1.060  11.628  21.722  0.00  0.00    +0.000 A 
ATOM      2  C   UNL     1      -1.637  11.441  22.961  0.00  0.00    +0.000 A 
ATOM      3  C   UNL     1      -2.892  12.085  22.934  0.00  0.00    +0.000 A 
ATOM      4  N   UNL     1      -3.842  12.183  23.892  0.00  0.00    +0.000 NA
ATOM      5  C   UNL     1      -4.950  12.841  23.509  0.00  0.00    +0.000 A 
ATOM      6  C   UNL     1      -5.982  12.973  24.428  0.00  0.00    +0.000 A 
ATOM      7  C   UNL     1      -7.168  13.632  24.104  0.00  0.00    +0.000 A 
ATOM      8  C   UNL     1      -7.328  14.171  22.834  0.00  0.00    +0.000 A 
ATOM      9  C   UNL     1      -6.296  14.049  21.902  0.00  0.00    +0.000 A 
ATOM     10  C   UNL     1      -5.109  13.396  22.208  0.00  0.00    +0.000 A 
ATOM     11  N   UNL     1      -4.155  13.305  21.257  0.00  0.00    +0.000 NA
ATOM     12  C   UNL     1      -3.057  12.642  21.674  0.00  0.00    +0.000 A 
ATOM     13  N   UNL     1      -1.915  12.389  20.949  0.00  0.00    +0.000 N 
ENDROOT
BRANCH   1  14
ATOM     14  N   UNL     1       0.180  11.109  21.378  0.00  0.00    +0.000 N 
ATOM     15  H   UNL     1       0.584  11.404  20.500  0.00  0.00    +0.000 HD
BRANCH  14  17
ATOM     16  O   UNL     1       1.517   9.455  22.804  0.00  0.00    +0.000 OA
ATOM     17  S   UNL     1       0.538   9.552  21.742  0.00  0.00    +0.000 S 
ATOM     18  O   UNL     1      -0.718   8.833  21.842  0.00  0.00    +0.000 OA
BRANCH  17  19
ATOM     19  C   UNL     1       1.355   8.940  20.274  0.00  0.00    +0.000 A 
ATOM     20  C   UNL     1       1.861   7.634  20.259  0.00  0.00    +0.000 A 
ATOM     21  C   UNL     1       2.436   7.134  19.088  0.00  0.00    +0.000 A 
ATOM     22  C   UNL     1       2.497   7.928  17.942  0.00  0.00    +0.000 A 
ATOM     23  C   UNL     1       1.989   9.226  17.958  0.00  0.00    +0.000 A 
ATOM     24  C   UNL     1       1.413   9.739  19.124  0.00  0.00    +0.000 A 
ENDBRANCH  17  19
ENDBRANCH  14  17
ENDBRANCH   1  14
BRANCH  13  25
ATOM     25  C   UNL     1      -1.746  12.777  19.556  0.00  0.00    +0.000 C 
BRANCH  25  26
ATOM     26  C   UNL     1      -2.258  11.706  18.627  0.00  0.00    +0.000 A 
ATOM     27  C   UNL     1      -1.380  10.803  18.012  0.00  0.00    +0.000 A 
ATOM     28  C   UNL     1      -1.858   9.876  17.080  0.00  0.00    +0.000 A 
ATOM     29  C   UNL     1      -3.214   9.832  16.768  0.00  0.00    +0.000 A 
ATOM     30  C   UNL     1      -4.102  10.694  17.404  0.00  0.00    +0.000 A 
ATOM     31  C   UNL     1      -3.628  11.624  18.331  0.00  0.00    +0.000 A 
ENDBRANCH  25  26
ENDBRANCH  13  25
TORSDOF 5
ENDMDL
MODEL 8
REMARK VINA RESULT:      -8.3      3.240      5.115
REMARK  Name = 
REMARK  5 active torsions:
REMARK  status: ('A' for Active; 'I' for Inactive)
REMARK    1  A    between atoms: S_2  and  N_4
REMARK    2  A    between atoms: S_2  and  C_25
REMARK    3  A    between atoms: N_4  and  C_5
REMARK    4  A    between atoms: N_17  and  C_18
REMARK    5  A    between atoms: C_18  and  C_19
REMARK                            x       y       z     vdW  Elec       q    Type
REMARK                         _______ _______ _______ _____ _____    ______ ____
ROOT
ATOM      1  C   UNL     1       6.232   4.099  16.310  0.00  0.00    +0.000 A 
ATOM      2  C   UNL     1       4.976   3.648  15.963  0.00  0.00    +0.000 A 
ATOM      3  C   UNL     1       4.204   3.623  17.144  0.00  0.00    +0.000 A 
ATOM      4  N   UNL     1       2.912   3.269  17.332  0.00  0.00    +0.000 NA
ATOM      5  C   UNL     1       2.479   3.409  18.598  0.00  0.00    +0.000 A 
ATOM      6  C   UNL     1       1.159   3.083  18.876  0.00  0.00    +0.000 A 
ATOM      7  C   UNL     1       0.630   3.211  20.161  0.00  0.00    +0.000 A 
ATOM      8  C   UNL     1       1.437   3.677  21.190  0.00  0.00    +0.000 A 
ATOM      9  C   UNL     1       2.768   4.004  20.925  0.00  0.00    +0.000 A 
ATOM     10  C   UNL     1       3.310   3.883  19.652  0.00  0.00    +0.000 A 
ATOM     11  N   UNL     1       4.602   4.226  19.462  0.00  0.00    +0.000 NA
ATOM     12  C   UNL     1       5.005   4.071  18.184  0.00  0.00    +0.000 A 
ATOM     13  N   UNL     1       6.256   4.326  17.673  0.00  0.00    +0.000 N 
ENDROOT
BRANCH   1  14
ATOM     14  N   UNL     1       7.256   4.271  15.389  0.00  0.00    +0.000 N 
ATOM     15  H   UNL     1       8.195   4.376  15.748  0.00  0.00    +0.000 HD
BRANCH  14  17
ATOM     16  O   UNL     1       5.892   6.088  14.210  0.00  0.00    +0.000 OA
ATOM     17  S   UNL     1       6.995   5.165  14.042  0.00  0.00    +0.000 S 
ATOM     18  O   UNL     1       8.285   5.648  13.588  0.00  0.00    +0.000 OA
BRANCH  17  19
ATOM     19  C   UNL     1       6.446   3.973  12.828  0.00  0.00    +0.000 A 
ATOM     20  C   UNL     1       7.382   3.137  12.208  0.00  0.00    +0.000 A 
ATOM     21  C   UNL     1       6.943   2.159  11.312  0.00  0.00    +0.000 A 
ATOM     22  C   UNL     1       5.580   2.012  11.047  0.00  0.00    +0.000 A 
ATOM     23  C   UNL     1       4.649   2.841  11.670  0.00  0.00    +0.000 A 
ATOM     24  C   UNL     1       5.076   3.826  12.566  0.00  0.00    +0.000 A 
ENDBRANCH  17  19
ENDBRANCH  14  17
ENDBRANCH   1  14
BRANCH  13  25
ATOM     25  C   UNL     1       7.353   4.866  18.464  0.00  0.00    +0.000 C 
BRANCH  25  26
ATOM     26  C   UNL     1       7.477   6.357  18.274  0.00  0.00    +0.000 A 
ATOM     27  C   UNL     1       6.646   7.042  17.378  0.00  0.00    +0.000 A 
ATOM     28  C   UNL     1       6.835   8.408  17.143  0.00  0.00    +0.000 A 
ATOM     29  C   UNL     1       7.842   9.101  17.809  0.00  0.00    +0.000 A 
ATOM     30  C   UNL     1       8.645   8.440  18.734  0.00  0.00    +0.000 A 
ATOM     31  C   UNL     1       8.463   7.077  18.968  0.00  0.00    +0.000 A 
ENDBRANCH  25  26
ENDBRANCH  13  25
TORSDOF 5
ENDMDL
MODEL 9
REMARK VINA RESULT:      -8.3      4.144      9.414
REMARK  Name = 
REMARK  5 active torsions:
REMARK  status: ('A' for Active; 'I' for Inactive)
REMARK    1  A    between atoms: S_2  and  N_4
REMARK    2  A    between atoms: S_2  and  C_25
REMARK    3  A    between atoms: N_4  and  C_5
REMARK    4  A    between atoms: N_17  and  C_18
REMARK    5  A    between atoms: C_18  and  C_19
REMARK                            x       y       z     vdW  Elec       q    Type
REMARK                         _______ _______ _______ _____ _____    ______ ____
ROOT
ATOM      1  C   UNL     1       0.759   8.709  20.421  0.00  0.00    +0.000 A 
ATOM      2  C   UNL     1       1.267   7.486  20.806  0.00  0.00    +0.000 A 
ATOM      3  C   UNL     1       2.161   7.073  19.795  0.00  0.00    +0.000 A 
ATOM      4  N   UNL     1       2.918   5.956  19.706  0.00  0.00    +0.000 NA
ATOM      5  C   UNL     1       3.699   5.902  18.613  0.00  0.00    +0.000 A 
ATOM      6  C   UNL     1       4.521   4.795  18.451  0.00  0.00    +0.000 A 
ATOM      7  C   UNL     1       5.369   4.669  17.350  0.00  0.00    +0.000 A 
ATOM      8  C   UNL     1       5.399   5.672  16.390  0.00  0.00    +0.000 A 
ATOM      9  C   UNL     1       4.574   6.789  16.539  0.00  0.00    +0.000 A 
ATOM     10  C   UNL     1       3.724   6.929  17.628  0.00  0.00    +0.000 A 
ATOM     11  N   UNL     1       2.960   8.039  17.716  0.00  0.00    +0.000 NA
ATOM     12  C   UNL     1       2.187   8.060  18.821  0.00  0.00    +0.000 A 
ATOM     13  N   UNL     1       1.298   9.042  19.193  0.00  0.00    +0.000 N 
ENDROOT
BRANCH   1  14
ATOM     14  N   UNL     1      -0.143   9.431  21.190  0.00  0.00    +0.000 N 
ATOM     15  H   UNL     1      -0.972   9.782  20.732  0.00  0.00    +0.000 HD
BRANCH  14  17
ATOM     16  O   UNL     1       0.505   9.789  23.640  0.00  0.00    +0.000 OA
ATOM     17  S   UNL     1       0.410  10.444  22.353  0.00  0.00    +0.000 S 
ATOM     18  O   UNL     1       1.556  11.145  21.805  0.00  0.00    +0.000 OA
BRANCH  17  19
ATOM     19  C   UNL     1      -0.891  11.659  22.524  0.00  0.00    +0.000 A 
ATOM     20  C   UNL     1      -0.749  12.913  21.920  0.00  0.00    +0.000 A 
ATOM     21  C   UNL     1      -1.796  13.835  21.995  0.00  0.00    +0.000 A 
ATOM     22  C   UNL     1      -2.977  13.502  22.662  0.00  0.00    +0.000 A 
ATOM     23  C   UNL     1      -3.118  12.251  23.259  0.00  0.00    +0.000 A 
ATOM     24  C   UNL     1      -2.077  11.320  23.193  0.00  0.00    +0.000 A 
ENDBRANCH  17  19
ENDBRANCH  14  17
ENDBRANCH   1  14
BRANCH  13  25
ATOM     25  C   UNL     1       1.095  10.270  18.437  0.00  0.00    +0.000 C 
BRANCH  25  26
ATOM     26  C   UNL     1      -0.372  10.537  18.216  0.00  0.00    +0.000 A 
ATOM     27  C   UNL     1      -0.994  11.659  18.779  0.00  0.00    +0.000 A 
ATOM     28  C   UNL     1      -2.374  11.844  18.644  0.00  0.00    +0.000 A 
ATOM     29  C   UNL     1      -3.139  10.920  17.936  0.00  0.00    +0.000 A 
ATOM     30  C   UNL     1      -2.525   9.825  17.336  0.00  0.00    +0.000 A 
ATOM     31  C   UNL     1      -1.149   9.635  17.473  0.00  0.00    +0.000 A 
ENDBRANCH  25  26
ENDBRANCH  13  25
TORSDOF 5
ENDMDL
