MODEL 1
REMARK VINA RESULT:      -8.4      0.000      0.000
REMARK  Name = 
REMARK  6 active torsions:
REMARK  status: ('A' for Active; 'I' for Inactive)
REMARK    1  A    between atoms: C_1  and  C_2
REMARK    2  A    between atoms: N_4  and  C_5
REMARK    3  A    between atoms: C_8  and  C_9
REMARK    4  A    between atoms: N_14  and  C_15
REMARK    5  A    between atoms: C_19  and  N_20
REMARK    6  A    between atoms: C_21  and  C_23
REMARK                            x       y       z     vdW  Elec       q    Type
REMARK                         _______ _______ _______ _____ _____    ______ ____
ROOT
ATOM      1  C   UNL     1       2.756   7.112  18.775  0.00  0.00    +0.000 A 
ATOM      2  C   UNL     1       2.463   6.534  20.000  0.00  0.00    +0.000 A 
ATOM      3  C   UNL     1       1.669   7.267  20.840  0.00  0.00    +0.000 A 
ATOM      4  N   UNL     1       1.202   8.482  20.531  0.00  0.00    +0.000 NA
ATOM      5  C   UNL     1       1.540   8.990  19.338  0.00  0.00    +0.000 A 
ATOM      6  N   UNL     1       1.079  10.248  18.958  0.00  0.00    +0.000 N 
ATOM      7  N   UNL     1       2.317   8.351  18.452  0.00  0.00    +0.000 NA
ATOM      8  H   UNL     1       1.694  10.539  18.206  0.00  0.00    +0.000 HD
ENDROOT
BRANCH   1  12
ATOM      9  C   UNL     1       4.876   4.923  15.702  0.00  0.00    +0.000 A 
ATOM     10  C   UNL     1       4.031   4.276  16.599  0.00  0.00    +0.000 A 
ATOM     11  C   UNL     1       3.359   4.987  17.594  0.00  0.00    +0.000 A 
ATOM     12  C   UNL     1       3.508   6.378  17.735  0.00  0.00    +0.000 A 
ATOM     13  C   UNL     1       4.377   7.021  16.838  0.00  0.00    +0.000 A 
ATOM     14  C   UNL     1       5.059   6.300  15.841  0.00  0.00    +0.000 A 
BRANCH   9  18
ATOM     15  C   UNL     1       7.166   3.732  12.954  0.00  0.00    +0.000 C 
ATOM     16  C   UNL     1       6.766   4.611  14.106  0.00  0.00    +0.000 C 
ATOM     17  O   UNL     1       7.485   5.545  14.454  0.00  0.00    +0.000 OA
ATOM     18  N   UNL     1       5.554   4.241  14.671  0.00  0.00    +0.000 N 
ATOM     19  H   UNL     1       5.163   3.351  14.385  0.00  0.00    +0.000 HD
ENDBRANCH   9  18
ENDBRANCH   1  12
BRANCH   6  20
ATOM     20  C   UNL     1       0.888  11.208  20.045  0.00  0.00    +0.000 C 
ATOM     21  C   UNL     1       1.679  12.495  19.766  0.00  0.00    +0.000 C 
ATOM     22  C   UNL     1       1.152  13.293  18.574  0.00  0.00    +0.000 C 
ATOM     23  C   UNL     1      -0.349  13.538  18.621  0.00  0.00    +0.000 C 
ATOM     24  C   UNL     1      -1.182  12.324  19.051  0.00  0.00    +0.000 C 
ATOM     25  C   UNL     1      -0.591  11.554  20.237  0.00  0.00    +0.000 C 
BRANCH  24  26
ATOM     26  N   UNL     1      -2.575  12.707  19.300  0.00  0.00    +0.000 N 
ATOM     27  C   UNL     1      -3.653  11.899  18.985  0.00  0.00    +0.000 C 
ATOM     28  O   UNL     1      -3.530  10.793  18.473  0.00  0.00    +0.000 OA
ATOM     29  H   UNL     1      -2.745  13.688  19.485  0.00  0.00    +0.000 HD
BRANCH  27  30
ATOM     30  C   UNL     1      -5.009  12.418  19.305  0.00  0.00    +0.000 A 
ATOM     31  C   UNL     1      -5.413  12.696  20.626  0.00  0.00    +0.000 A 
ATOM     32 CL   UNL     1      -4.385  12.511  22.008  0.00  0.00    +0.000 Cl
ATOM     33  C   UNL     1      -6.702  13.179  20.888  0.00  0.00    +0.000 A 
ATOM     34  C   UNL     1      -7.591  13.427  19.850  0.00  0.00    +0.000 A 
ATOM     35  C   UNL     1      -7.199  13.178  18.538  0.00  0.00    +0.000 A 
ATOM     36  C   UNL     1      -5.926  12.671  18.264  0.00  0.00    +0.000 A 
ATOM     37 CL   UNL     1      -5.608  12.334  16.590  0.00  0.00    +0.000 Cl
ENDBRANCH  27  30
ENDBRANCH  24  26
ENDBRANCH   6  20
TORSDOF 5
ENDMDL
MODEL 2
REMARK VINA RESULT:      -8.4      1.029      1.052
REMARK  Name = 
REMARK  6 active torsions:
REMARK  status: ('A' for Active; 'I' for Inactive)
REMARK    1  A    between atoms: C_1  and  C_2
REMARK    2  A    between atoms: N_4  and  C_5
REMARK    3  A    between atoms: C_8  and  C_9
REMARK    4  A    between atoms: N_14  and  C_15
REMARK    5  A    between atoms: C_19  and  N_20
REMARK    6  A    between atoms: C_21  and  C_23
REMARK                            x       y       z     vdW  Elec       q    Type
REMARK                         _______ _______ _______ _____ _____    ______ ____
ROOT
ATOM      1  C   UNL     1       3.222   6.801  18.285  0.00  0.00    +0.000 A 
ATOM      2  C   UNL     1       2.893   6.156  19.467  0.00  0.00    +0.000 A 
ATOM      3  C   UNL     1       2.038   6.824  20.301  0.00  0.00    +0.000 A 
ATOM      4  N   UNL     1       1.546   8.038  20.027  0.00  0.00    +0.000 NA
ATOM      5  C   UNL     1       1.922   8.612  18.876  0.00  0.00    +0.000 A 
ATOM      6  N   UNL     1       1.438   9.872  18.533  0.00  0.00    +0.000 N 
ATOM      7  N   UNL     1       2.758   8.041  17.999  0.00  0.00    +0.000 NA
ATOM      8  H   UNL     1       2.077  10.218  17.825  0.00  0.00    +0.000 HD
ENDROOT
BRANCH   1  12
ATOM      9  C   UNL     1       5.555   4.814  15.229  0.00  0.00    +0.000 A 
ATOM     10  C   UNL     1       4.859   4.090  16.193  0.00  0.00    +0.000 A 
ATOM     11  C   UNL     1       4.118   4.738  17.182  0.00  0.00    +0.000 A 
ATOM     12  C   UNL     1       4.045   6.141  17.249  0.00  0.00    +0.000 A 
ATOM     13  C   UNL     1       4.764   6.864  16.283  0.00  0.00    +0.000 A 
ATOM     14  C   UNL     1       5.518   6.208  15.293  0.00  0.00    +0.000 A 
BRANCH   9  18
ATOM     15  C   UNL     1       6.822   3.009  12.171  0.00  0.00    +0.000 C 
ATOM     16  C   UNL     1       5.787   3.709  13.005  0.00  0.00    +0.000 C 
ATOM     17  O   UNL     1       4.628   3.803  12.608  0.00  0.00    +0.000 OA
ATOM     18  N   UNL     1       6.296   4.193  14.202  0.00  0.00    +0.000 N 
ATOM     19  H   UNL     1       7.303   4.187  14.312  0.00  0.00    +0.000 HD
ENDBRANCH   9  18
ENDBRANCH   1  12
BRANCH   6  20
ATOM     20  C   UNL     1       1.166  10.773  19.654  0.00  0.00    +0.000 C 
ATOM     21  C   UNL     1       1.994  12.060  19.517  0.00  0.00    +0.000 C 
ATOM     22  C   UNL     1       1.582  12.933  18.332  0.00  0.00    +0.000 C 
ATOM     23  C   UNL     1       0.086  13.200  18.265  0.00  0.00    +0.000 C 
ATOM     24  C   UNL     1      -0.796  11.979  18.553  0.00  0.00    +0.000 C 
ATOM     25  C   UNL     1      -0.320  11.134  19.738  0.00  0.00    +0.000 C 
BRANCH  24  26
ATOM     26  N   UNL     1      -2.201  12.372  18.703  0.00  0.00    +0.000 N 
ATOM     27  C   UNL     1      -3.256  11.488  18.562  0.00  0.00    +0.000 C 
ATOM     28  O   UNL     1      -3.102  10.302  18.302  0.00  0.00    +0.000 OA
ATOM     29  H   UNL     1      -2.395  13.365  18.671  0.00  0.00    +0.000 HD
BRANCH  27  30
ATOM     30  C   UNL     1      -4.628  12.030  18.755  0.00  0.00    +0.000 A 
ATOM     31  C   UNL     1      -5.087  12.485  20.007  0.00  0.00    +0.000 A 
ATOM     32 CL   UNL     1      -4.114  12.506  21.440  0.00  0.00    +0.000 Cl
ATOM     33  C   UNL     1      -6.388  12.983  20.148  0.00  0.00    +0.000 A 
ATOM     34  C   UNL     1      -7.236  13.073  19.052  0.00  0.00    +0.000 A 
ATOM     35  C   UNL     1      -6.790  12.649  17.804  0.00  0.00    +0.000 A 
ATOM     36  C   UNL     1      -5.503  12.125  17.653  0.00  0.00    +0.000 A 
ATOM     37 CL   UNL     1      -5.116  11.562  16.056  0.00  0.00    +0.000 Cl
ENDBRANCH  27  30
ENDBRANCH  24  26
ENDBRANCH   6  20
TORSDOF 5
ENDMDL
MODEL 3
REMARK VINA RESULT:      -8.3      1.236      2.022
REMARK  Name = 
REMARK  6 active torsions:
REMARK  status: ('A' for Active; 'I' for Inactive)
REMARK    1  A    between atoms: C_1  and  C_2
REMARK    2  A    between atoms: N_4  and  C_5
REMARK    3  A    between atoms: C_8  and  C_9
REMARK    4  A    between atoms: N_14  and  C_15
REMARK    5  A    between atoms: C_19  and  N_20
REMARK    6  A    between atoms: C_21  and  C_23
REMARK                            x       y       z     vdW  Elec       q    Type
REMARK                         _______ _______ _______ _____ _____    ______ ____
ROOT
ATOM      1  C   UNL     1       3.250   6.653  18.309  0.00  0.00    +0.000 A 
ATOM      2  C   UNL     1       3.000   5.994  19.503  0.00  0.00    +0.000 A 
ATOM      3  C   UNL     1       2.121   6.604  20.356  0.00  0.00    +0.000 A 
ATOM      4  N   UNL     1       1.535   7.777  20.090  0.00  0.00    +0.000 NA
ATOM      5  C   UNL     1       1.836   8.368  18.925  0.00  0.00    +0.000 A 
ATOM      6  N   UNL     1       1.252   9.586  18.589  0.00  0.00    +0.000 N 
ATOM      7  N   UNL     1       2.689   7.852  18.029  0.00  0.00    +0.000 NA
ATOM      8  H   UNL     1       1.845   9.972  17.862  0.00  0.00    +0.000 HD
ENDROOT
BRANCH   1  12
ATOM      9  C   UNL     1       5.635   4.828  15.192  0.00  0.00    +0.000 A 
ATOM     10  C   UNL     1       4.888   4.056  16.078  0.00  0.00    +0.000 A 
ATOM     11  C   UNL     1       4.130   4.651  17.087  0.00  0.00    +0.000 A 
ATOM     12  C   UNL     1       4.090   6.047  17.254  0.00  0.00    +0.000 A 
ATOM     13  C   UNL     1       4.861   6.817  16.368  0.00  0.00    +0.000 A 
ATOM     14  C   UNL     1       5.631   6.215  15.357  0.00  0.00    +0.000 A 
BRANCH   9  18
ATOM     15  C   UNL     1       6.960   3.091  12.120  0.00  0.00    +0.000 C 
ATOM     16  C   UNL     1       5.891   3.699  12.984  0.00  0.00    +0.000 C 
ATOM     17  O   UNL     1       4.714   3.662  12.635  0.00  0.00    +0.000 OA
ATOM     18  N   UNL     1       6.395   4.263  14.147  0.00  0.00    +0.000 N 
ATOM     19  H   UNL     1       7.401   4.365  14.214  0.00  0.00    +0.000 HD
ENDBRANCH   9  18
ENDBRANCH   1  12
BRANCH   6  20
ATOM     20  C   UNL     1       0.945  10.474  19.712  0.00  0.00    +0.000 C 
ATOM     21  C   UNL     1       1.515  11.877  19.454  0.00  0.00    +0.000 C 
ATOM     22  C   UNL     1       0.833  12.615  18.303  0.00  0.00    +0.000 C 
ATOM     23  C   UNL     1      -0.685  12.617  18.396  0.00  0.00    +0.000 C 
ATOM     24  C   UNL     1      -1.303  11.275  18.807  0.00  0.00    +0.000 C 
ATOM     25  C   UNL     1      -0.564  10.576  19.952  0.00  0.00    +0.000 C 
BRANCH  24  26
ATOM     26  N   UNL     1      -2.731  11.427  19.104  0.00  0.00    +0.000 N 
ATOM     27  C   UNL     1      -3.249  12.489  19.825  0.00  0.00    +0.000 C 
ATOM     28  O   UNL     1      -2.554  13.391  20.273  0.00  0.00    +0.000 OA
ATOM     29  H   UNL     1      -3.306  10.603  18.978  0.00  0.00    +0.000 HD
BRANCH  27  30
ATOM     30  C   UNL     1      -4.721  12.513  20.038  0.00  0.00    +0.000 A 
ATOM     31  C   UNL     1      -5.635  12.418  18.971  0.00  0.00    +0.000 A 
ATOM     32 CL   UNL     1      -5.166  12.224  17.314  0.00  0.00    +0.000 Cl
ATOM     33  C   UNL     1      -7.014  12.451  19.211  0.00  0.00    +0.000 A 
ATOM     34  C   UNL     1      -7.506  12.539  20.507  0.00  0.00    +0.000 A 
ATOM     35  C   UNL     1      -6.615  12.611  21.575  0.00  0.00    +0.000 A 
ATOM     36  C   UNL     1      -5.237  12.606  21.347  0.00  0.00    +0.000 A 
ATOM     37 CL   UNL     1      -4.252  12.784  22.767  0.00  0.00    +0.000 Cl
ENDBRANCH  27  30
ENDBRANCH  24  26
ENDBRANCH   6  20
TORSDOF 5
ENDMDL
MODEL 4
REMARK VINA RESULT:      -8.3      1.244      1.278
REMARK  Name = 
REMARK  6 active torsions:
REMARK  status: ('A' for Active; 'I' for Inactive)
REMARK    1  A    between atoms: C_1  and  C_2
REMARK    2  A    between atoms: N_4  and  C_5
REMARK    3  A    between atoms: C_8  and  C_9
REMARK    4  A    between atoms: N_14  and  C_15
REMARK    5  A    between atoms: C_19  and  N_20
REMARK    6  A    between atoms: C_21  and  C_23
REMARK                            x       y       z     vdW  Elec       q    Type
REMARK                         _______ _______ _______ _____ _____    ______ ____
ROOT
ATOM      1  C   UNL     1       3.287   6.636  18.295  0.00  0.00    +0.000 A 
ATOM      2  C   UNL     1       3.054   5.998  19.504  0.00  0.00    +0.000 A 
ATOM      3  C   UNL     1       2.184   6.620  20.358  0.00  0.00    +0.000 A 
ATOM      4  N   UNL     1       1.591   7.786  20.077  0.00  0.00    +0.000 NA
ATOM      5  C   UNL     1       1.876   8.358  18.899  0.00  0.00    +0.000 A 
ATOM      6  N   UNL     1       1.284   9.569  18.549  0.00  0.00    +0.000 N 
ATOM      7  N   UNL     1       2.718   7.829  18.001  0.00  0.00    +0.000 NA
ATOM      8  H   UNL     1       1.866   9.943  17.808  0.00  0.00    +0.000 HD
ENDROOT
BRANCH   1  12
ATOM      9  C   UNL     1       5.639   4.758  15.186  0.00  0.00    +0.000 A 
ATOM     10  C   UNL     1       4.967   4.001  16.141  0.00  0.00    +0.000 A 
ATOM     11  C   UNL     1       4.220   4.614  17.148  0.00  0.00    +0.000 A 
ATOM     12  C   UNL     1       4.115   6.013  17.241  0.00  0.00    +0.000 A 
ATOM     13  C   UNL     1       4.811   6.770  16.284  0.00  0.00    +0.000 A 
ATOM     14  C   UNL     1       5.571   6.150  15.276  0.00  0.00    +0.000 A 
BRANCH   9  18
ATOM     15  C   UNL     1       6.923   3.035  12.087  0.00  0.00    +0.000 C 
ATOM     16  C   UNL     1       5.878   3.695  12.943  0.00  0.00    +0.000 C 
ATOM     17  O   UNL     1       4.713   3.764  12.558  0.00  0.00    +0.000 OA
ATOM     18  N   UNL     1       6.386   4.173  14.142  0.00  0.00    +0.000 N 
ATOM     19  H   UNL     1       7.394   4.193  14.242  0.00  0.00    +0.000 HD
ENDBRANCH   9  18
ENDBRANCH   1  12
BRANCH   6  20
ATOM     20  C   UNL     1       0.989  10.475  19.659  0.00  0.00    +0.000 C 
ATOM     21  C   UNL     1       1.542  11.877  19.366  0.00  0.00    +0.000 C 
ATOM     22  C   UNL     1       0.835  12.587  18.212  0.00  0.00    +0.000 C 
ATOM     23  C   UNL     1      -0.682  12.579  18.331  0.00  0.00    +0.000 C 
ATOM     24  C   UNL     1      -1.281  11.241  18.778  0.00  0.00    +0.000 C 
ATOM     25  C   UNL     1      -0.517  10.569  19.923  0.00  0.00    +0.000 C 
BRANCH  24  26
ATOM     26  N   UNL     1      -2.706  11.386  19.096  0.00  0.00    +0.000 N 
ATOM     27  C   UNL     1      -3.219  12.455  19.810  0.00  0.00    +0.000 C 
ATOM     28  O   UNL     1      -2.524  13.370  20.232  0.00  0.00    +0.000 OA
ATOM     29  H   UNL     1      -3.276  10.557  18.992  0.00  0.00    +0.000 HD
BRANCH  27  30
ATOM     30  C   UNL     1      -4.687  12.472  20.047  0.00  0.00    +0.000 A 
ATOM     31  C   UNL     1      -5.238  12.596  21.337  0.00  0.00    +0.000 A 
ATOM     32 CL   UNL     1      -4.290  12.783  22.776  0.00  0.00    +0.000 Cl
ATOM     33  C   UNL     1      -6.626  12.603  21.520  0.00  0.00    +0.000 A 
ATOM     34  C   UNL     1      -7.485  12.524  20.431  0.00  0.00    +0.000 A 
ATOM     35  C   UNL     1      -6.956  12.423  19.147  0.00  0.00    +0.000 A 
ATOM     36  C   UNL     1      -5.573  12.389  18.953  0.00  0.00    +0.000 A 
ATOM     37 CL   UNL     1      -5.062  12.179  17.306  0.00  0.00    +0.000 Cl
ENDBRANCH  27  30
ENDBRANCH  24  26
ENDBRANCH   6  20
TORSDOF 5
ENDMDL
MODEL 5
REMARK VINA RESULT:      -8.2      0.626      1.884
REMARK  Name = 
REMARK  6 active torsions:
REMARK  status: ('A' for Active; 'I' for Inactive)
REMARK    1  A    between atoms: C_1  and  C_2
REMARK    2  A    between atoms: N_4  and  C_5
REMARK    3  A    between atoms: C_8  and  C_9
REMARK    4  A    between atoms: N_14  and  C_15
REMARK    5  A    between atoms: C_19  and  N_20
REMARK    6  A    between atoms: C_21  and  C_23
REMARK                            x       y       z     vdW  Elec       q    Type
REMARK                         _______ _______ _______ _____ _____    ______ ____
ROOT
ATOM      1  C   UNL     1       2.346   7.351  19.191  0.00  0.00    +0.000 A 
ATOM      2  C   UNL     1       2.017   6.849  20.441  0.00  0.00    +0.000 A 
ATOM      3  C   UNL     1       1.265   7.665  21.241  0.00  0.00    +0.000 A 
ATOM      4  N   UNL     1       0.869   8.890  20.873  0.00  0.00    +0.000 NA
ATOM      5  C   UNL     1       1.239   9.320  19.659  0.00  0.00    +0.000 A 
ATOM      6  N   UNL     1       0.852  10.583  19.218  0.00  0.00    +0.000 N 
ATOM      7  N   UNL     1       1.980   8.597  18.808  0.00  0.00    +0.000 NA
ATOM      8  H   UNL     1       1.485  10.803  18.456  0.00  0.00    +0.000 HD
ENDROOT
BRANCH   1  12
ATOM      9  C   UNL     1       4.510   4.968  16.298  0.00  0.00    +0.000 A 
ATOM     10  C   UNL     1       4.785   6.322  16.471  0.00  0.00    +0.000 A 
ATOM     11  C   UNL     1       4.075   7.086  17.399  0.00  0.00    +0.000 A 
ATOM     12  C   UNL     1       3.057   6.527  18.191  0.00  0.00    +0.000 A 
ATOM     13  C   UNL     1       2.774   5.165  17.997  0.00  0.00    +0.000 A 
ATOM     14  C   UNL     1       3.484   4.399  17.056  0.00  0.00    +0.000 A 
BRANCH   9  18
ATOM     15  C   UNL     1       6.702   3.496  13.607  0.00  0.00    +0.000 C 
ATOM     16  C   UNL     1       6.219   4.585  14.523  0.00  0.00    +0.000 C 
ATOM     17  O   UNL     1       6.702   5.713  14.456  0.00  0.00    +0.000 OA
ATOM     18  N   UNL     1       5.221   4.159  15.387  0.00  0.00    +0.000 N 
ATOM     19  H   UNL     1       5.048   3.162  15.439  0.00  0.00    +0.000 HD
ENDBRANCH   9  18
ENDBRANCH   1  12
BRANCH   6  20
ATOM     20  C   UNL     1       0.714  11.603  20.258  0.00  0.00    +0.000 C 
ATOM     21  C   UNL     1       1.474  12.877  19.860  0.00  0.00    +0.000 C 
ATOM     22  C   UNL     1       0.871  13.602  18.657  0.00  0.00    +0.000 C 
ATOM     23  C   UNL     1      -0.627  13.838  18.777  0.00  0.00    +0.000 C 
ATOM     24  C   UNL     1      -1.421  12.645  19.323  0.00  0.00    +0.000 C 
ATOM     25  C   UNL     1      -0.756  11.949  20.515  0.00  0.00    +0.000 C 
BRANCH  24  26
ATOM     26  N   UNL     1      -2.802  13.032  19.630  0.00  0.00    +0.000 N 
ATOM     27  C   UNL     1      -3.900  12.261  19.292  0.00  0.00    +0.000 C 
ATOM     28  O   UNL     1      -3.807  11.188  18.709  0.00  0.00    +0.000 OA
ATOM     29  H   UNL     1      -2.951  14.002  19.880  0.00  0.00    +0.000 HD
BRANCH  27  30
ATOM     30  C   UNL     1      -5.239  12.779  19.678  0.00  0.00    +0.000 A 
ATOM     31  C   UNL     1      -6.226  13.095  18.724  0.00  0.00    +0.000 A 
ATOM     32 CL   UNL     1      -6.018  12.884  17.017  0.00  0.00    +0.000 Cl
ATOM     33  C   UNL     1      -7.474  13.586  19.127  0.00  0.00    +0.000 A 
ATOM     34  C   UNL     1      -7.775  13.735  20.475  0.00  0.00    +0.000 A 
ATOM     35  C   UNL     1      -6.819  13.405  21.431  0.00  0.00    +0.000 A 
ATOM     36  C   UNL     1      -5.560  12.940  21.042  0.00  0.00    +0.000 A 
ATOM     37 CL   UNL     1      -4.445  12.648  22.341  0.00  0.00    +0.000 Cl
ENDBRANCH  27  30
ENDBRANCH  24  26
ENDBRANCH   6  20
TORSDOF 5
ENDMDL
MODEL 6
REMARK VINA RESULT:      -8.0      1.037      1.041
REMARK  Name = 
REMARK  6 active torsions:
REMARK  status: ('A' for Active; 'I' for Inactive)
REMARK    1  A    between atoms: C_1  and  C_2
REMARK    2  A    between atoms: N_4  and  C_5
REMARK    3  A    between atoms: C_8  and  C_9
REMARK    4  A    between atoms: N_14  and  C_15
REMARK    5  A    between atoms: C_19  and  N_20
REMARK    6  A    between atoms: C_21  and  C_23
REMARK                            x       y       z     vdW  Elec       q    Type
REMARK                         _______ _______ _______ _____ _____    ______ ____
ROOT
ATOM      1  C   UNL     1       2.679   6.973  19.037  0.00  0.00    +0.000 A 
ATOM      2  C   UNL     1       2.411   6.270  20.201  0.00  0.00    +0.000 A 
ATOM      3  C   UNL     1       1.610   6.900  21.116  0.00  0.00    +0.000 A 
ATOM      4  N   UNL     1       1.115   8.129  20.932  0.00  0.00    +0.000 NA
ATOM      5  C   UNL     1       1.430   8.759  19.792  0.00  0.00    +0.000 A 
ATOM      6  N   UNL     1       0.939  10.038  19.542  0.00  0.00    +0.000 N 
ATOM      7  N   UNL     1       2.211   8.228  18.841  0.00  0.00    +0.000 NA
ATOM      8  H   UNL     1       1.540  10.415  18.817  0.00  0.00    +0.000 HD
ENDROOT
BRANCH   1  12
ATOM      9  C   UNL     1       4.815   5.137  15.751  0.00  0.00    +0.000 A 
ATOM     10  C   UNL     1       4.082   4.373  16.655  0.00  0.00    +0.000 A 
ATOM     11  C   UNL     1       3.405   4.971  17.718  0.00  0.00    +0.000 A 
ATOM     12  C   UNL     1       3.435   6.362  17.924  0.00  0.00    +0.000 A 
ATOM     13  C   UNL     1       4.192   7.123  17.018  0.00  0.00    +0.000 A 
ATOM     14  C   UNL     1       4.881   6.517  15.952  0.00  0.00    +0.000 A 
BRANCH   9  18
ATOM     15  C   UNL     1       7.215   4.109  13.031  0.00  0.00    +0.000 C 
ATOM     16  C   UNL     1       6.826   4.773  14.322  0.00  0.00    +0.000 C 
ATOM     17  O   UNL     1       7.653   5.415  14.965  0.00  0.00    +0.000 OA
ATOM     18  N   UNL     1       5.494   4.570  14.652  0.00  0.00    +0.000 N 
ATOM     19  H   UNL     1       4.983   3.880  14.113  0.00  0.00    +0.000 HD
ENDBRANCH   9  18
ENDBRANCH   1  12
BRANCH   6  20
ATOM     20  C   UNL     1       0.739  10.882  20.720  0.00  0.00    +0.000 C 
ATOM     21  C   UNL     1       1.468  12.223  20.546  0.00  0.00    +0.000 C 
ATOM     22  C   UNL     1       0.875  13.106  19.449  0.00  0.00    +0.000 C 
ATOM     23  C   UNL     1      -0.633  13.279  19.555  0.00  0.00    +0.000 C 
ATOM     24  C   UNL     1      -1.402  11.995  19.888  0.00  0.00    +0.000 C 
ATOM     25  C   UNL     1      -0.748  11.143  20.980  0.00  0.00    +0.000 C 
BRANCH  24  26
ATOM     26  N   UNL     1      -2.803  12.292  20.205  0.00  0.00    +0.000 N 
ATOM     27  C   UNL     1      -3.820  12.244  19.268  0.00  0.00    +0.000 C 
ATOM     28  O   UNL     1      -3.633  11.947  18.096  0.00  0.00    +0.000 OA
ATOM     29  H   UNL     1      -2.973  12.774  21.078  0.00  0.00    +0.000 HD
BRANCH  27  30
ATOM     30  C   UNL     1      -5.195  12.561  19.741  0.00  0.00    +0.000 A 
ATOM     31  C   UNL     1      -5.501  13.763  20.408  0.00  0.00    +0.000 A 
ATOM     32 CL   UNL     1      -4.344  15.015  20.717  0.00  0.00    +0.000 Cl
ATOM     33  C   UNL     1      -6.807  14.022  20.842  0.00  0.00    +0.000 A 
ATOM     34  C   UNL     1      -7.830  13.117  20.592  0.00  0.00    +0.000 A 
ATOM     35  C   UNL     1      -7.548  11.934  19.914  0.00  0.00    +0.000 A 
ATOM     36  C   UNL     1      -6.245  11.651  19.498  0.00  0.00    +0.000 A 
ATOM     37 CL   UNL     1      -6.030  10.104  18.738  0.00  0.00    +0.000 Cl
ENDBRANCH  27  30
ENDBRANCH  24  26
ENDBRANCH   6  20
TORSDOF 5
ENDMDL
MODEL 7
REMARK VINA RESULT:      -8.0      1.068      1.521
REMARK  Name = 
REMARK  6 active torsions:
REMARK  status: ('A' for Active; 'I' for Inactive)
REMARK    1  A    between atoms: C_1  and  C_2
REMARK    2  A    between atoms: N_4  and  C_5
REMARK    3  A    between atoms: C_8  and  C_9
REMARK    4  A    between atoms: N_14  and  C_15
REMARK    5  A    between atoms: C_19  and  N_20
REMARK    6  A    between atoms: C_21  and  C_23
REMARK                            x       y       z     vdW  Elec       q    Type
REMARK                         _______ _______ _______ _____ _____    ______ ____
ROOT
ATOM      1  C   UNL     1       2.876   6.592  18.870  0.00  0.00    +0.000 A 
ATOM      2  C   UNL     1       2.653   5.849  20.018  0.00  0.00    +0.000 A 
ATOM      3  C   UNL     1       1.846   6.424  20.962  0.00  0.00    +0.000 A 
ATOM      4  N   UNL     1       1.303   7.639  20.821  0.00  0.00    +0.000 NA
ATOM      5  C   UNL     1       1.576   8.310  19.693  0.00  0.00    +0.000 A 
ATOM      6  N   UNL     1       1.034   9.576  19.486  0.00  0.00    +0.000 N 
ATOM      7  N   UNL     1       2.359   7.833  18.715  0.00  0.00    +0.000 NA
ATOM      8  H   UNL     1       1.608   9.994  18.762  0.00  0.00    +0.000 HD
ENDROOT
BRANCH   1  12
ATOM      9  C   UNL     1       5.022   4.921  15.503  0.00  0.00    +0.000 A 
ATOM     10  C   UNL     1       4.367   4.105  16.421  0.00  0.00    +0.000 A 
ATOM     11  C   UNL     1       3.686   4.650  17.510  0.00  0.00    +0.000 A 
ATOM     12  C   UNL     1       3.635   6.039  17.728  0.00  0.00    +0.000 A 
ATOM     13  C   UNL     1       4.315   6.854  16.808  0.00  0.00    +0.000 A 
ATOM     14  C   UNL     1       5.007   6.301  15.716  0.00  0.00    +0.000 A 
BRANCH   9  18
ATOM     15  C   UNL     1       7.365   4.116  12.661  0.00  0.00    +0.000 C 
ATOM     16  C   UNL     1       6.972   4.771  13.955  0.00  0.00    +0.000 C 
ATOM     17  O   UNL     1       7.744   5.540  14.523  0.00  0.00    +0.000 OA
ATOM     18  N   UNL     1       5.701   4.407  14.379  0.00  0.00    +0.000 N 
ATOM     19  H   UNL     1       5.255   3.637  13.895  0.00  0.00    +0.000 HD
ENDBRANCH   9  18
ENDBRANCH   1  12
BRANCH   6  20
ATOM     20  C   UNL     1       0.823  10.380  20.690  0.00  0.00    +0.000 C 
ATOM     21  C   UNL     1       1.609  11.697  20.596  0.00  0.00    +0.000 C 
ATOM     22  C   UNL     1       1.091  12.646  19.515  0.00  0.00    +0.000 C 
ATOM     23  C   UNL     1      -0.412  12.874  19.575  0.00  0.00    +0.000 C 
ATOM     24  C   UNL     1      -1.242  11.609  19.828  0.00  0.00    +0.000 C 
ATOM     25  C   UNL     1      -0.661  10.690  20.907  0.00  0.00    +0.000 C 
BRANCH  24  26
ATOM     26  N   UNL     1      -2.640  11.949  20.108  0.00  0.00    +0.000 N 
ATOM     27  C   UNL     1      -3.607  12.059  19.123  0.00  0.00    +0.000 C 
ATOM     28  O   UNL     1      -3.371  11.879  17.935  0.00  0.00    +0.000 OA
ATOM     29  H   UNL     1      -2.833  12.345  21.019  0.00  0.00    +0.000 HD
BRANCH  27  30
ATOM     30  C   UNL     1      -4.987  12.401  19.560  0.00  0.00    +0.000 A 
ATOM     31  C   UNL     1      -6.079  11.540  19.337  0.00  0.00    +0.000 A 
ATOM     32 CL   UNL     1      -5.944   9.988  18.577  0.00  0.00    +0.000 Cl
ATOM     33  C   UNL     1      -7.365  11.899  19.758  0.00  0.00    +0.000 A 
ATOM     34  C   UNL     1      -7.581  13.093  20.436  0.00  0.00    +0.000 A 
ATOM     35  C   UNL     1      -6.508  13.944  20.684  0.00  0.00    +0.000 A 
ATOM     36  C   UNL     1      -5.225  13.609  20.246  0.00  0.00    +0.000 A 
ATOM     37 CL   UNL     1      -4.003  14.805  20.555  0.00  0.00    +0.000 Cl
ENDBRANCH  27  30
ENDBRANCH  24  26
ENDBRANCH   6  20
TORSDOF 5
ENDMDL
MODEL 8
REMARK VINA RESULT:      -7.7      2.947      4.273
REMARK  Name = 
REMARK  6 active torsions:
REMARK  status: ('A' for Active; 'I' for Inactive)
REMARK    1  A    between atoms: C_1  and  C_2
REMARK    2  A    between atoms: N_4  and  C_5
REMARK    3  A    between atoms: C_8  and  C_9
REMARK    4  A    between atoms: N_14  and  C_15
REMARK    5  A    between atoms: C_19  and  N_20
REMARK    6  A    between atoms: C_21  and  C_23
REMARK                            x       y       z     vdW  Elec       q    Type
REMARK                         _______ _______ _______ _____ _____    ______ ____
ROOT
ATOM      1  C   UNL     1       1.752   9.225  18.461  0.00  0.00    +0.000 A 
ATOM      2  C   UNL     1       2.600  10.304  18.268  0.00  0.00    +0.000 A 
ATOM      3  C   UNL     1       2.017  11.543  18.295  0.00  0.00    +0.000 A 
ATOM      4  N   UNL     1       0.705  11.731  18.476  0.00  0.00    +0.000 NA
ATOM      5  C   UNL     1      -0.059  10.643  18.637  0.00  0.00    +0.000 A 
ATOM      6  N   UNL     1      -1.431  10.776  18.837  0.00  0.00    +0.000 N 
ATOM      7  N   UNL     1       0.417   9.390  18.621  0.00  0.00    +0.000 NA
ATOM      8  H   UNL     1      -1.820   9.865  18.617  0.00  0.00    +0.000 HD
ENDROOT
BRANCH   1  12
ATOM      9  C   UNL     1       3.184   5.154  18.792  0.00  0.00    +0.000 A 
ATOM     10  C   UNL     1       2.400   5.729  19.788  0.00  0.00    +0.000 A 
ATOM     11  C   UNL     1       1.951   7.046  19.680  0.00  0.00    +0.000 A 
ATOM     12  C   UNL     1       2.271   7.845  18.568  0.00  0.00    +0.000 A 
ATOM     13  C   UNL     1       3.078   7.264  17.576  0.00  0.00    +0.000 A 
ATOM     14  C   UNL     1       3.536   5.939  17.692  0.00  0.00    +0.000 A 
BRANCH   9  18
ATOM     15  C   UNL     1       3.718   1.428  18.585  0.00  0.00    +0.000 C 
ATOM     16  C   UNL     1       3.054   2.728  18.230  0.00  0.00    +0.000 C 
ATOM     17  O   UNL     1       2.096   2.747  17.460  0.00  0.00    +0.000 OA
ATOM     18  N   UNL     1       3.637   3.820  18.856  0.00  0.00    +0.000 N 
ATOM     19  H   UNL     1       4.521   3.666  19.327  0.00  0.00    +0.000 HD
ENDBRANCH   9  18
ENDBRANCH   1  12
BRANCH   6  20
ATOM     20  C   UNL     1      -2.059  11.923  18.181  0.00  0.00    +0.000 C 
ATOM     21  C   UNL     1      -2.928  11.455  17.004  0.00  0.00    +0.000 C 
ATOM     22  C   UNL     1      -4.157  10.652  17.429  0.00  0.00    +0.000 C 
ATOM     23  C   UNL     1      -4.977  11.326  18.519  0.00  0.00    +0.000 C 
ATOM     24  C   UNL     1      -4.149  11.954  19.646  0.00  0.00    +0.000 C 
ATOM     25  C   UNL     1      -2.920  12.728  19.158  0.00  0.00    +0.000 C 
BRANCH  24  26
ATOM     26  N   UNL     1      -4.993  12.780  20.517  0.00  0.00    +0.000 N 
ATOM     27  C   UNL     1      -4.860  12.811  21.894  0.00  0.00    +0.000 C 
ATOM     28  O   UNL     1      -4.024  12.152  22.499  0.00  0.00    +0.000 OA
ATOM     29  H   UNL     1      -5.843  13.143  20.105  0.00  0.00    +0.000 HD
BRANCH  27  30
ATOM     30  C   UNL     1      -5.781  13.705  22.645  0.00  0.00    +0.000 A 
ATOM     31  C   UNL     1      -7.075  13.299  23.028  0.00  0.00    +0.000 A 
ATOM     32 CL   UNL     1      -7.724  11.724  22.712  0.00  0.00    +0.000 Cl
ATOM     33  C   UNL     1      -7.915  14.173  23.730  0.00  0.00    +0.000 A 
ATOM     34  C   UNL     1      -7.476  15.439  24.093  0.00  0.00    +0.000 A 
ATOM     35  C   UNL     1      -6.192  15.847  23.743  0.00  0.00    +0.000 A 
ATOM     36  C   UNL     1      -5.353  14.995  23.019  0.00  0.00    +0.000 A 
ATOM     37 CL   UNL     1      -3.813  15.670  22.583  0.00  0.00    +0.000 Cl
ENDBRANCH  27  30
ENDBRANCH  24  26
ENDBRANCH   6  20
TORSDOF 5
ENDMDL
MODEL 9
REMARK VINA RESULT:      -7.6      3.026      4.615
REMARK  Name = 
REMARK  6 active torsions:
REMARK  status: ('A' for Active; 'I' for Inactive)
REMARK    1  A    between atoms: C_1  and  C_2
REMARK    2  A    between atoms: N_4  and  C_5
REMARK    3  A    between atoms: C_8  and  C_9
REMARK    4  A    between atoms: N_14  and  C_15
REMARK    5  A    between atoms: C_19  and  N_20
REMARK    6  A    between atoms: C_21  and  C_23
REMARK                            x       y       z     vdW  Elec       q    Type
REMARK                         _______ _______ _______ _____ _____    ______ ____
ROOT
ATOM      1  C   UNL     1       1.848   9.228  18.417  0.00  0.00    +0.000 A 
ATOM      2  C   UNL     1       2.705  10.294  18.191  0.00  0.00    +0.000 A 
ATOM      3  C   UNL     1       2.142  11.540  18.231  0.00  0.00    +0.000 A 
ATOM      4  N   UNL     1       0.839  11.749  18.456  0.00  0.00    +0.000 NA
ATOM      5  C   UNL     1       0.065  10.673  18.647  0.00  0.00    +0.000 A 
ATOM      6  N   UNL     1      -1.298  10.827  18.892  0.00  0.00    +0.000 N 
ATOM      7  N   UNL     1       0.522   9.413  18.620  0.00  0.00    +0.000 NA
ATOM      8  H   UNL     1      -1.707   9.921  18.689  0.00  0.00    +0.000 HD
ENDROOT
BRANCH   1  12
ATOM      9  C   UNL     1       3.230   5.137  18.714  0.00  0.00    +0.000 A 
ATOM     10  C   UNL     1       2.444   5.709  19.709  0.00  0.00    +0.000 A 
ATOM     11  C   UNL     1       2.011   7.032  19.612  0.00  0.00    +0.000 A 
ATOM     12  C   UNL     1       2.350   7.841  18.513  0.00  0.00    +0.000 A 
ATOM     13  C   UNL     1       3.159   7.261  17.521  0.00  0.00    +0.000 A 
ATOM     14  C   UNL     1       3.601   5.930  17.626  0.00  0.00    +0.000 A 
BRANCH   9  18
ATOM     15  C   UNL     1       3.746   1.413  18.430  0.00  0.00    +0.000 C 
ATOM     16  C   UNL     1       3.116   2.730  18.073  0.00  0.00    +0.000 C 
ATOM     17  O   UNL     1       2.209   2.781  17.245  0.00  0.00    +0.000 OA
ATOM     18  N   UNL     1       3.667   3.797  18.767  0.00  0.00    +0.000 N 
ATOM     19  H   UNL     1       4.518   3.621  19.288  0.00  0.00    +0.000 HD
ENDBRANCH   9  18
ENDBRANCH   1  12
BRANCH   6  20
ATOM     20  C   UNL     1      -1.930  11.981  18.252  0.00  0.00    +0.000 C 
ATOM     21  C   UNL     1      -3.193  11.545  17.494  0.00  0.00    +0.000 C 
ATOM     22  C   UNL     1      -4.320  11.061  18.406  0.00  0.00    +0.000 C 
ATOM     23  C   UNL     1      -4.634  12.018  19.546  0.00  0.00    +0.000 C 
ATOM     24  C   UNL     1      -3.402  12.612  20.240  0.00  0.00    +0.000 C 
ATOM     25  C   UNL     1      -2.300  13.059  19.275  0.00  0.00    +0.000 C 
BRANCH  24  26
ATOM     26  N   UNL     1      -3.786  13.692  21.154  0.00  0.00    +0.000 N 
ATOM     27  C   UNL     1      -4.124  13.481  22.480  0.00  0.00    +0.000 C 
ATOM     28  O   UNL     1      -4.127  12.373  22.998  0.00  0.00    +0.000 OA
ATOM     29  H   UNL     1      -4.038  14.574  20.726  0.00  0.00    +0.000 HD
BRANCH  27  30
ATOM     30  C   UNL     1      -4.483  14.677  23.288  0.00  0.00    +0.000 A 
ATOM     31  C   UNL     1      -5.761  15.268  23.228  0.00  0.00    +0.000 A 
ATOM     32 CL   UNL     1      -7.059  14.660  22.255  0.00  0.00    +0.000 Cl
ATOM     33  C   UNL     1      -6.058  16.397  24.001  0.00  0.00    +0.000 A 
ATOM     34  C   UNL     1      -5.113  16.933  24.867  0.00  0.00    +0.000 A 
ATOM     35  C   UNL     1      -3.854  16.346  24.955  0.00  0.00    +0.000 A 
ATOM     36  C   UNL     1      -3.535  15.236  24.169  0.00  0.00    +0.000 A 
ATOM     37 CL   UNL     1      -1.902  14.664  24.325  0.00  0.00    +0.000 Cl
ENDBRANCH  27  30
ENDBRANCH  24  26
ENDBRANCH   6  20
TORSDOF 5
ENDMDL
