MODEL 1
REMARK VINA RESULT:      -7.0      0.000      0.000
REMARK  Name = 
REMARK  14 active torsions:
REMARK  status: ('A' for Active; 'I' for Inactive)
REMARK    1  A    between atoms: C_1  and  O_2
REMARK    2  A    between atoms: O_2  and  C_3
REMARK    3  A    between atoms: C_3  and  C_4
REMARK    4  A    between atoms: C_4  and  N_5
REMARK    5  A    between atoms: C_6  and  C_8
REMARK    6  A    between atoms: C_11  and  N_12
REMARK    7  A    between atoms: C_17  and  C_18
REMARK    8  A    between atoms: N_21  and  C_22
REMARK    9  A    between atoms: C_22  and  C_23
REMARK   10  A    between atoms: C_23  and  C_24
REMARK   11  A    between atoms: C_23  and  C_25
REMARK   12  A    between atoms: C_23  and  O_26
REMARK   13  A    between atoms: C_33  and  O_34
REMARK   14  A    between atoms: O_34  and  C_35
REMARK                            x       y       z     vdW  Elec       q    Type
REMARK                         _______ _______ _______ _____ _____    ______ ____
ROOT
ATOM      1  N   UNL     1       0.602  10.010  19.278  0.00  0.00    +0.000 N 
ATOM      2  C   UNL     1       1.242   8.755  19.456  0.00  0.00    +0.000 A 
ATOM      3  C   UNL     1       1.812   8.176  18.321  0.00  0.00    +0.000 A 
ATOM      4  C   UNL     1       2.621   7.041  18.438  0.00  0.00    +0.000 A 
ATOM      5  C   UNL     1       3.484   6.666  17.399  0.00  0.00    +0.000 A 
ATOM      6  C   UNL     1       4.394   5.612  17.556  0.00  0.00    +0.000 A 
ATOM      7  C   UNL     1       4.285   4.798  18.689  0.00  0.00    +0.000 A 
ATOM      8  C   UNL     1       3.412   5.151  19.729  0.00  0.00    +0.000 A 
ATOM      9  C   UNL     1       2.646   6.338  19.648  0.00  0.00    +0.000 A 
ATOM     10  C   UNL     1       1.934   6.924  20.709  0.00  0.00    +0.000 A 
ATOM     11  N   UNL     1       1.295   8.124  20.647  0.00  0.00    +0.000 NA
ATOM     12  H   UNL     1       0.797  10.403  18.363  0.00  0.00    +0.000 HD
ENDROOT
BRANCH   1  16
ATOM     13  C   UNL     1       0.042  13.298  21.875  0.00  0.00    +0.000 A 
ATOM     14  C   UNL     1      -0.675  12.121  22.094  0.00  0.00    +0.000 A 
ATOM     15  C   UNL     1      -0.516  11.036  21.229  0.00  0.00    +0.000 A 
ATOM     16  C   UNL     1       0.392  11.092  20.166  0.00  0.00    +0.000 A 
ATOM     17  C   UNL     1       1.164  12.270  19.992  0.00  0.00    +0.000 A 
ATOM     18  C   UNL     1       0.974  13.364  20.841  0.00  0.00    +0.000 A 
BRANCH  13  20
ATOM     19  N   UNL     1      -1.137  14.320  23.732  0.00  0.00    +0.000 N 
ATOM     20  C   UNL     1      -0.156  14.462  22.790  0.00  0.00    +0.000 C 
ATOM     21  O   UNL     1       0.545  15.456  22.661  0.00  0.00    +0.000 OA
ATOM     22  H   UNL     1      -1.453  13.395  23.981  0.00  0.00    +0.000 HD
BRANCH  19  23
ATOM     23  C   UNL     1      -1.378  15.357  24.725  0.00  0.00    +0.000 C 
BRANCH  23  24
ATOM     24  C   UNL     1      -2.814  15.321  25.246  0.00  0.00    +0.000 C 
BRANCH  24  26
ATOM     25  C   UNL     1      -4.794  15.313  23.965  0.00  0.00    +0.000 C 
ATOM     26  O   UNL     1      -3.659  16.073  24.365  0.00  0.00    +0.000 OA
ENDBRANCH  24  26
ENDBRANCH  23  24
ENDBRANCH  19  23
ENDBRANCH  13  20
BRANCH  17  27
ATOM     27  O   UNL     1       2.103  12.245  18.982  0.00  0.00    +0.000 OA
ATOM     28  C   UNL     1       2.244  13.438  18.213  0.00  0.00    +0.000 C 
ENDBRANCH  17  27
ENDBRANCH   1  16
BRANCH   6  29
ATOM     29  C   UNL     1       5.524   5.524  16.643  0.00  0.00    +0.000 A 
ATOM     30  C   UNL     1       6.841   5.046  16.841  0.00  0.00    +0.000 A 
ATOM     31  N   UNL     1       7.508   4.872  15.695  0.00  0.00    +0.000 NA
ATOM     32  N   UNL     1       6.605   5.199  14.753  0.00  0.00    +0.000 N 
ATOM     33  C   UNL     1       5.414   5.627  15.272  0.00  0.00    +0.000 A 
BRANCH  32  34
ATOM     34  C   UNL     1       6.900   4.962  13.349  0.00  0.00    +0.000 C 
BRANCH  34  35
ATOM     35  C   UNL     1       6.274   3.673  12.781  0.00  0.00    +0.000 C 
ATOM     36  C   UNL     1       4.922   3.920  12.106  0.00  0.00    +0.000 C 
ATOM     37  C   UNL     1       7.244   3.055  11.767  0.00  0.00    +0.000 C 
BRANCH  35  38
ATOM     38  O   UNL     1       6.111   2.699  13.818  0.00  0.00    +0.000 OA
ATOM     39  H   UNL     1       5.786   1.876  13.407  0.00  0.00    +0.000 HD
ENDBRANCH  35  38
ENDBRANCH  34  35
ENDBRANCH  32  34
ENDBRANCH   6  29
TORSDOF 10
ENDMDL
MODEL 2
REMARK VINA RESULT:      -6.9      1.043      1.299
REMARK  Name = 
REMARK  14 active torsions:
REMARK  status: ('A' for Active; 'I' for Inactive)
REMARK    1  A    between atoms: C_1  and  O_2
REMARK    2  A    between atoms: O_2  and  C_3
REMARK    3  A    between atoms: C_3  and  C_4
REMARK    4  A    between atoms: C_4  and  N_5
REMARK    5  A    between atoms: C_6  and  C_8
REMARK    6  A    between atoms: C_11  and  N_12
REMARK    7  A    between atoms: C_17  and  C_18
REMARK    8  A    between atoms: N_21  and  C_22
REMARK    9  A    between atoms: C_22  and  C_23
REMARK   10  A    between atoms: C_23  and  C_24
REMARK   11  A    between atoms: C_23  and  C_25
REMARK   12  A    between atoms: C_23  and  O_26
REMARK   13  A    between atoms: C_33  and  O_34
REMARK   14  A    between atoms: O_34  and  C_35
REMARK                            x       y       z     vdW  Elec       q    Type
REMARK                         _______ _______ _______ _____ _____    ______ ____
ROOT
ATOM      1  N   UNL     1       0.803  10.589  18.983  0.00  0.00    +0.000 N 
ATOM      2  C   UNL     1       1.328   9.290  19.213  0.00  0.00    +0.000 A 
ATOM      3  C   UNL     1       1.896   8.640  18.116  0.00  0.00    +0.000 A 
ATOM      4  C   UNL     1       2.602   7.445  18.290  0.00  0.00    +0.000 A 
ATOM      5  C   UNL     1       3.473   6.976  17.298  0.00  0.00    +0.000 A 
ATOM      6  C   UNL     1       4.285   5.855  17.516  0.00  0.00    +0.000 A 
ATOM      7  C   UNL     1       4.060   5.079  18.659  0.00  0.00    +0.000 A 
ATOM      8  C   UNL     1       3.176   5.526  19.651  0.00  0.00    +0.000 A 
ATOM      9  C   UNL     1       2.516   6.770  19.514  0.00  0.00    +0.000 A 
ATOM     10  C   UNL     1       1.811   7.437  20.531  0.00  0.00    +0.000 A 
ATOM     11  N   UNL     1       1.277   8.685  20.417  0.00  0.00    +0.000 NA
ATOM     12  H   UNL     1       1.070  10.943  18.070  0.00  0.00    +0.000 HD
ENDROOT
BRANCH   1  16
ATOM     13  C   UNL     1       0.411  13.970  21.490  0.00  0.00    +0.000 A 
ATOM     14  C   UNL     1      -0.432  12.875  21.679  0.00  0.00    +0.000 A 
ATOM     15  C   UNL     1      -0.328  11.761  20.841  0.00  0.00    +0.000 A 
ATOM     16  C   UNL     1       0.647  11.705  19.839  0.00  0.00    +0.000 A 
ATOM     17  C   UNL     1       1.543  12.797  19.699  0.00  0.00    +0.000 A 
ATOM     18  C   UNL     1       1.409  13.922  20.518  0.00  0.00    +0.000 A 
BRANCH  13  20
ATOM     19  N   UNL     1      -0.572  15.027  23.439  0.00  0.00    +0.000 N 
ATOM     20  C   UNL     1       0.273  15.166  22.373  0.00  0.00    +0.000 C 
ATOM     21  O   UNL     1       0.902  16.182  22.113  0.00  0.00    +0.000 OA
ATOM     22  H   UNL     1      -0.808  14.101  23.765  0.00  0.00    +0.000 HD
BRANCH  19  23
ATOM     23  C   UNL     1      -0.737  16.098  24.411  0.00  0.00    +0.000 C 
BRANCH  23  24
ATOM     24  C   UNL     1      -1.609  15.667  25.589  0.00  0.00    +0.000 C 
BRANCH  24  26
ATOM     25  C   UNL     1       0.208  16.810  26.567  0.00  0.00    +0.000 C 
ATOM     26  O   UNL     1      -1.007  16.108  26.813  0.00  0.00    +0.000 OA
ENDBRANCH  24  26
ENDBRANCH  23  24
ENDBRANCH  19  23
ENDBRANCH  13  20
BRANCH  17  27
ATOM     27  O   UNL     1       2.537  12.658  18.753  0.00  0.00    +0.000 OA
ATOM     28  C   UNL     1       3.184  13.855  18.329  0.00  0.00    +0.000 C 
ENDBRANCH  17  27
ENDBRANCH   1  16
BRANCH   6  29
ATOM     29  C   UNL     1       5.442   5.653  16.656  0.00  0.00    +0.000 A 
ATOM     30  C   UNL     1       6.693   5.044  16.912  0.00  0.00    +0.000 A 
ATOM     31  N   UNL     1       7.391   4.804  15.798  0.00  0.00    +0.000 NA
ATOM     32  N   UNL     1       6.571   5.220  14.816  0.00  0.00    +0.000 N 
ATOM     33  C   UNL     1       5.407   5.767  15.282  0.00  0.00    +0.000 A 
BRANCH  32  34
ATOM     34  C   UNL     1       6.906   4.955  13.427  0.00  0.00    +0.000 C 
BRANCH  34  35
ATOM     35  C   UNL     1       6.257   3.680  12.853  0.00  0.00    +0.000 C 
ATOM     36  C   UNL     1       4.924   3.959  12.153  0.00  0.00    +0.000 C 
ATOM     37  C   UNL     1       7.229   3.032  11.859  0.00  0.00    +0.000 C 
BRANCH  35  38
ATOM     38  O   UNL     1       6.050   2.715  13.892  0.00  0.00    +0.000 OA
ATOM     39  H   UNL     1       5.767   3.194  14.693  0.00  0.00    +0.000 HD
ENDBRANCH  35  38
ENDBRANCH  34  35
ENDBRANCH  32  34
ENDBRANCH   6  29
TORSDOF 10
ENDMDL
MODEL 3
REMARK VINA RESULT:      -6.9      2.904      4.284
REMARK  Name = 
REMARK  14 active torsions:
REMARK  status: ('A' for Active; 'I' for Inactive)
REMARK    1  A    between atoms: C_1  and  O_2
REMARK    2  A    between atoms: O_2  and  C_3
REMARK    3  A    between atoms: C_3  and  C_4
REMARK    4  A    between atoms: C_4  and  N_5
REMARK    5  A    between atoms: C_6  and  C_8
REMARK    6  A    between atoms: C_11  and  N_12
REMARK    7  A    between atoms: C_17  and  C_18
REMARK    8  A    between atoms: N_21  and  C_22
REMARK    9  A    between atoms: C_22  and  C_23
REMARK   10  A    between atoms: C_23  and  C_24
REMARK   11  A    between atoms: C_23  and  C_25
REMARK   12  A    between atoms: C_23  and  O_26
REMARK   13  A    between atoms: C_33  and  O_34
REMARK   14  A    between atoms: O_34  and  C_35
REMARK                            x       y       z     vdW  Elec       q    Type
REMARK                         _______ _______ _______ _____ _____    ______ ____
ROOT
ATOM      1  N   UNL     1       1.225  11.677  18.077  0.00  0.00    +0.000 N 
ATOM      2  C   UNL     1       1.253  10.469  18.823  0.00  0.00    +0.000 A 
ATOM      3  C   UNL     1       1.531   9.301  18.114  0.00  0.00    +0.000 A 
ATOM      4  C   UNL     1       1.765   8.100  18.792  0.00  0.00    +0.000 A 
ATOM      5  C   UNL     1       2.393   7.024  18.151  0.00  0.00    +0.000 A 
ATOM      6  C   UNL     1       2.753   5.868  18.857  0.00  0.00    +0.000 A 
ATOM      7  C   UNL     1       2.284   5.711  20.165  0.00  0.00    +0.000 A 
ATOM      8  C   UNL     1       1.637   6.773  20.814  0.00  0.00    +0.000 A 
ATOM      9  C   UNL     1       1.464   8.014  20.157  0.00  0.00    +0.000 A 
ATOM     10  C   UNL     1       1.062   9.213  20.770  0.00  0.00    +0.000 A 
ATOM     11  N   UNL     1       1.009  10.424  20.149  0.00  0.00    +0.000 NA
ATOM     12  H   UNL     1       1.585  11.544  17.138  0.00  0.00    +0.000 HD
ENDROOT
BRANCH   1  16
ATOM     13  C   UNL     1       1.929  15.691  19.202  0.00  0.00    +0.000 A 
ATOM     14  C   UNL     1       3.000  14.894  18.797  0.00  0.00    +0.000 A 
ATOM     15  C   UNL     1       2.784  13.559  18.446  0.00  0.00    +0.000 A 
ATOM     16  C   UNL     1       1.494  13.016  18.447  0.00  0.00    +0.000 A 
ATOM     17  C   UNL     1       0.403  13.855  18.796  0.00  0.00    +0.000 A 
ATOM     18  C   UNL     1       0.632  15.179  19.180  0.00  0.00    +0.000 A 
BRANCH  13  20
ATOM     19  N   UNL     1       2.599  17.301  20.887  0.00  0.00    +0.000 N 
ATOM     20  C   UNL     1       2.176  17.109  19.601  0.00  0.00    +0.000 C 
ATOM     21  O   UNL     1       1.995  18.004  18.788  0.00  0.00    +0.000 OA
ATOM     22  H   UNL     1       3.016  16.532  21.391  0.00  0.00    +0.000 HD
BRANCH  19  23
ATOM     23  C   UNL     1       2.940  18.629  21.374  0.00  0.00    +0.000 C 
BRANCH  23  24
ATOM     24  C   UNL     1       4.221  18.618  22.207  0.00  0.00    +0.000 C 
BRANCH  24  26
ATOM     25  C   UNL     1       6.057  18.506  20.729  0.00  0.00    +0.000 C 
ATOM     26  O   UNL     1       5.188  17.765  21.581  0.00  0.00    +0.000 OA
ENDBRANCH  24  26
ENDBRANCH  23  24
ENDBRANCH  19  23
ENDBRANCH  13  20
BRANCH  17  27
ATOM     27  O   UNL     1      -0.855  13.297  18.701  0.00  0.00    +0.000 OA
ATOM     28  C   UNL     1      -1.547  13.075  19.927  0.00  0.00    +0.000 C 
ENDBRANCH  17  27
ENDBRANCH   1  16
BRANCH   6  29
ATOM     29  C   UNL     1       3.745   4.976  18.275  0.00  0.00    +0.000 A 
ATOM     30  C   UNL     1       3.619   3.675  17.735  0.00  0.00    +0.000 A 
ATOM     31  N   UNL     1       4.700   3.290  17.049  0.00  0.00    +0.000 NA
ATOM     32  N   UNL     1       5.510   4.362  17.111  0.00  0.00    +0.000 N 
ATOM     33  C   UNL     1       4.996   5.384  17.861  0.00  0.00    +0.000 A 
BRANCH  32  34
ATOM     34  C   UNL     1       6.729   4.400  16.319  0.00  0.00    +0.000 C 
BRANCH  34  35
ATOM     35  C   UNL     1       6.493   4.558  14.804  0.00  0.00    +0.000 C 
ATOM     36  C   UNL     1       5.321   5.488  14.481  0.00  0.00    +0.000 C 
ATOM     37  C   UNL     1       7.772   5.106  14.157  0.00  0.00    +0.000 C 
BRANCH  35  38
ATOM     38  O   UNL     1       6.260   3.280  14.200  0.00  0.00    +0.000 OA
ATOM     39  H   UNL     1       5.795   2.722  14.851  0.00  0.00    +0.000 HD
ENDBRANCH  35  38
ENDBRANCH  34  35
ENDBRANCH  32  34
ENDBRANCH   6  29
TORSDOF 10
ENDMDL
MODEL 4
REMARK VINA RESULT:      -6.9      1.906     12.694
REMARK  Name = 
REMARK  14 active torsions:
REMARK  status: ('A' for Active; 'I' for Inactive)
REMARK    1  A    between atoms: C_1  and  O_2
REMARK    2  A    between atoms: O_2  and  C_3
REMARK    3  A    between atoms: C_3  and  C_4
REMARK    4  A    between atoms: C_4  and  N_5
REMARK    5  A    between atoms: C_6  and  C_8
REMARK    6  A    between atoms: C_11  and  N_12
REMARK    7  A    between atoms: C_17  and  C_18
REMARK    8  A    between atoms: N_21  and  C_22
REMARK    9  A    between atoms: C_22  and  C_23
REMARK   10  A    between atoms: C_23  and  C_24
REMARK   11  A    between atoms: C_23  and  C_25
REMARK   12  A    between atoms: C_23  and  O_26
REMARK   13  A    between atoms: C_33  and  O_34
REMARK   14  A    between atoms: O_34  and  C_35
REMARK                            x       y       z     vdW  Elec       q    Type
REMARK                         _______ _______ _______ _____ _____    ______ ____
ROOT
ATOM      1  N   UNL     1       2.493   7.198  19.137  0.00  0.00    +0.000 N 
ATOM      2  C   UNL     1       1.562   8.252  18.941  0.00  0.00    +0.000 A 
ATOM      3  C   UNL     1       1.079   8.883  20.088  0.00  0.00    +0.000 A 
ATOM      4  C   UNL     1       0.310  10.046  19.983  0.00  0.00    +0.000 A 
ATOM      5  C   UNL     1       0.127  10.887  21.089  0.00  0.00    +0.000 A 
ATOM      6  C   UNL     1      -0.527  12.120  20.964  0.00  0.00    +0.000 A 
ATOM      7  C   UNL     1      -1.187  12.407  19.764  0.00  0.00    +0.000 A 
ATOM      8  C   UNL     1      -1.029  11.565  18.654  0.00  0.00    +0.000 A 
ATOM      9  C   UNL     1      -0.192  10.427  18.733  0.00  0.00    +0.000 A 
ATOM     10  C   UNL     1       0.240   9.654  17.641  0.00  0.00    +0.000 A 
ATOM     11  N   UNL     1       1.135   8.631  17.719  0.00  0.00    +0.000 NA
ATOM     12  H   UNL     1       2.816   7.159  20.099  0.00  0.00    +0.000 HD
ENDROOT
BRANCH   1  16
ATOM     13  C   UNL     1       5.578   5.626  16.711  0.00  0.00    +0.000 A 
ATOM     14  C   UNL     1       5.519   7.001  16.940  0.00  0.00    +0.000 A 
ATOM     15  C   UNL     1       4.491   7.534  17.721  0.00  0.00    +0.000 A 
ATOM     16  C   UNL     1       3.538   6.703  18.321  0.00  0.00    +0.000 A 
ATOM     17  C   UNL     1       3.647   5.300  18.136  0.00  0.00    +0.000 A 
ATOM     18  C   UNL     1       4.658   4.777  17.325  0.00  0.00    +0.000 A 
BRANCH  13  20
ATOM     19  N   UNL     1       6.513   5.247  14.505  0.00  0.00    +0.000 N 
ATOM     20  C   UNL     1       6.666   5.068  15.852  0.00  0.00    +0.000 C 
ATOM     21  O   UNL     1       7.613   4.498  16.375  0.00  0.00    +0.000 OA
ATOM     22  H   UNL     1       5.896   5.971  14.169  0.00  0.00    +0.000 HD
BRANCH  19  23
ATOM     23  C   UNL     1       7.539   4.810  13.570  0.00  0.00    +0.000 C 
BRANCH  23  24
ATOM     24  C   UNL     1       6.934   4.252  12.283  0.00  0.00    +0.000 C 
BRANCH  24  26
ATOM     25  C   UNL     1       4.847   3.261  11.807  0.00  0.00    +0.000 C 
ATOM     26  O   UNL     1       6.024   3.192  12.606  0.00  0.00    +0.000 OA
ENDBRANCH  24  26
ENDBRANCH  23  24
ENDBRANCH  19  23
ENDBRANCH  13  20
BRANCH  17  27
ATOM     27  O   UNL     1       2.735   4.519  18.814  0.00  0.00    +0.000 OA
ATOM     28  C   UNL     1       1.988   3.589  18.034  0.00  0.00    +0.000 C 
ENDBRANCH  17  27
ENDBRANCH   1  16
BRANCH   6  29
ATOM     29  C   UNL     1      -0.335  13.120  22.003  0.00  0.00    +0.000 A 
ATOM     30  C   UNL     1       0.442  14.303  22.020  0.00  0.00    +0.000 A 
ATOM     31  N   UNL     1       0.149  15.103  23.050  0.00  0.00    +0.000 NA
ATOM     32  N   UNL     1      -0.850  14.455  23.677  0.00  0.00    +0.000 N 
ATOM     33  C   UNL     1      -1.152  13.249  23.107  0.00  0.00    +0.000 A 
BRANCH  32  34
ATOM     34  C   UNL     1      -1.571  15.104  24.760  0.00  0.00    +0.000 C 
BRANCH  34  35
ATOM     35  C   UNL     1      -2.671  16.077  24.292  0.00  0.00    +0.000 C 
ATOM     36  C   UNL     1      -4.057  15.429  24.253  0.00  0.00    +0.000 C 
ATOM     37  C   UNL     1      -2.699  17.286  25.237  0.00  0.00    +0.000 C 
BRANCH  35  38
ATOM     38  O   UNL     1      -2.358  16.597  22.994  0.00  0.00    +0.000 OA
ATOM     39  H   UNL     1      -3.178  16.595  22.466  0.00  0.00    +0.000 HD
ENDBRANCH  35  38
ENDBRANCH  34  35
ENDBRANCH  32  34
ENDBRANCH   6  29
TORSDOF 10
ENDMDL
MODEL 5
REMARK VINA RESULT:      -6.8      5.269     11.004
REMARK  Name = 
REMARK  14 active torsions:
REMARK  status: ('A' for Active; 'I' for Inactive)
REMARK    1  A    between atoms: C_1  and  O_2
REMARK    2  A    between atoms: O_2  and  C_3
REMARK    3  A    between atoms: C_3  and  C_4
REMARK    4  A    between atoms: C_4  and  N_5
REMARK    5  A    between atoms: C_6  and  C_8
REMARK    6  A    between atoms: C_11  and  N_12
REMARK    7  A    between atoms: C_17  and  C_18
REMARK    8  A    between atoms: N_21  and  C_22
REMARK    9  A    between atoms: C_22  and  C_23
REMARK   10  A    between atoms: C_23  and  C_24
REMARK   11  A    between atoms: C_23  and  C_25
REMARK   12  A    between atoms: C_23  and  O_26
REMARK   13  A    between atoms: C_33  and  O_34
REMARK   14  A    between atoms: O_34  and  C_35
REMARK                            x       y       z     vdW  Elec       q    Type
REMARK                         _______ _______ _______ _____ _____    ______ ____
ROOT
ATOM      1  N   UNL     1       6.951   7.737  16.677  0.00  0.00    +0.000 N 
ATOM      2  C   UNL     1       7.771   8.465  17.579  0.00  0.00    +0.000 A 
ATOM      3  C   UNL     1       8.115   9.764  17.205  0.00  0.00    +0.000 A 
ATOM      4  C   UNL     1       8.757  10.614  18.111  0.00  0.00    +0.000 A 
ATOM      5  C   UNL     1       8.782  11.999  17.901  0.00  0.00    +0.000 A 
ATOM      6  C   UNL     1       9.303  12.871  18.867  0.00  0.00    +0.000 A 
ATOM      7  C   UNL     1       9.995  12.326  19.954  0.00  0.00    +0.000 A 
ATOM      8  C   UNL     1       9.995  10.940  20.167  0.00  0.00    +0.000 A 
ATOM      9  C   UNL     1       9.285  10.083  19.295  0.00  0.00    +0.000 A 
ATOM     10  C   UNL     1       9.003   8.726  19.533  0.00  0.00    +0.000 A 
ATOM     11  N   UNL     1       8.223   7.943  18.738  0.00  0.00    +0.000 NA
ATOM     12  H   UNL     1       6.580   8.334  15.945  0.00  0.00    +0.000 HD
ENDROOT
BRANCH   1  16
ATOM     13  C   UNL     1       4.214   4.567  17.250  0.00  0.00    +0.000 A 
ATOM     14  C   UNL     1       3.956   5.809  17.831  0.00  0.00    +0.000 A 
ATOM     15  C   UNL     1       4.865   6.857  17.668  0.00  0.00    +0.000 A 
ATOM     16  C   UNL     1       6.015   6.697  16.887  0.00  0.00    +0.000 A 
ATOM     17  C   UNL     1       6.233   5.449  16.247  0.00  0.00    +0.000 A 
ATOM     18  C   UNL     1       5.338   4.394  16.443  0.00  0.00    +0.000 A 
BRANCH  13  20
ATOM     19  N   UNL     1       3.220   2.904  18.709  0.00  0.00    +0.000 N 
ATOM     20  C   UNL     1       3.250   3.445  17.453  0.00  0.00    +0.000 C 
ATOM     21  O   UNL     1       2.553   3.073  16.520  0.00  0.00    +0.000 OA
ATOM     22  H   UNL     1       3.576   3.439  19.486  0.00  0.00    +0.000 HD
BRANCH  19  23
ATOM     23  C   UNL     1       2.273   1.852  19.050  0.00  0.00    +0.000 C 
BRANCH  23  24
ATOM     24  C   UNL     1       0.930   2.422  19.505  0.00  0.00    +0.000 C 
BRANCH  24  26
ATOM     25  C   UNL     1       1.490   2.800  21.766  0.00  0.00    +0.000 C 
ATOM     26  O   UNL     1       1.153   3.408  20.523  0.00  0.00    +0.000 OA
ENDBRANCH  24  26
ENDBRANCH  23  24
ENDBRANCH  19  23
ENDBRANCH  13  20
BRANCH  17  27
ATOM     27  O   UNL     1       7.336   5.367  15.422  0.00  0.00    +0.000 OA
ATOM     28  C   UNL     1       7.110   4.876  14.103  0.00  0.00    +0.000 C 
ENDBRANCH  17  27
ENDBRANCH   1  16
BRANCH   6  29
ATOM     29  C   UNL     1       8.944  14.279  18.803  0.00  0.00    +0.000 A 
ATOM     30  C   UNL     1       9.355  15.302  17.915  0.00  0.00    +0.000 A 
ATOM     31  N   UNL     1       8.599  16.401  18.003  0.00  0.00    +0.000 NA
ATOM     32  N   UNL     1       7.671  16.073  18.919  0.00  0.00    +0.000 N 
ATOM     33  C   UNL     1       7.855  14.825  19.451  0.00  0.00    +0.000 A 
BRANCH  32  34
ATOM     34  C   UNL     1       6.543  16.956  19.162  0.00  0.00    +0.000 C 
BRANCH  34  35
ATOM     35  C   UNL     1       5.166  16.297  18.948  0.00  0.00    +0.000 C 
ATOM     36  C   UNL     1       5.213  15.142  17.944  0.00  0.00    +0.000 C 
ATOM     37  C   UNL     1       4.648  15.780  20.296  0.00  0.00    +0.000 C 
BRANCH  35  38
ATOM     38  O   UNL     1       4.212  17.268  18.503  0.00  0.00    +0.000 OA
ATOM     39  H   UNL     1       4.588  17.722  17.726  0.00  0.00    +0.000 HD
ENDBRANCH  35  38
ENDBRANCH  34  35
ENDBRANCH  32  34
ENDBRANCH   6  29
TORSDOF 10
ENDMDL
MODEL 6
REMARK VINA RESULT:      -6.8      5.513     11.276
REMARK  Name = 
REMARK  14 active torsions:
REMARK  status: ('A' for Active; 'I' for Inactive)
REMARK    1  A    between atoms: C_1  and  O_2
REMARK    2  A    between atoms: O_2  and  C_3
REMARK    3  A    between atoms: C_3  and  C_4
REMARK    4  A    between atoms: C_4  and  N_5
REMARK    5  A    between atoms: C_6  and  C_8
REMARK    6  A    between atoms: C_11  and  N_12
REMARK    7  A    between atoms: C_17  and  C_18
REMARK    8  A    between atoms: N_21  and  C_22
REMARK    9  A    between atoms: C_22  and  C_23
REMARK   10  A    between atoms: C_23  and  C_24
REMARK   11  A    between atoms: C_23  and  C_25
REMARK   12  A    between atoms: C_23  and  O_26
REMARK   13  A    between atoms: C_33  and  O_34
REMARK   14  A    between atoms: O_34  and  C_35
REMARK                            x       y       z     vdW  Elec       q    Type
REMARK                         _______ _______ _______ _____ _____    ______ ____
ROOT
ATOM      1  N   UNL     1       6.989   7.977  16.753  0.00  0.00    +0.000 N 
ATOM      2  C   UNL     1       7.825   8.707  17.638  0.00  0.00    +0.000 A 
ATOM      3  C   UNL     1       8.150  10.010  17.261  0.00  0.00    +0.000 A 
ATOM      4  C   UNL     1       8.808  10.861  18.155  0.00  0.00    +0.000 A 
ATOM      5  C   UNL     1       8.817  12.248  17.950  0.00  0.00    +0.000 A 
ATOM      6  C   UNL     1       9.356  13.119  18.907  0.00  0.00    +0.000 A 
ATOM      7  C   UNL     1      10.078  12.575  19.974  0.00  0.00    +0.000 A 
ATOM      8  C   UNL     1      10.093  11.189  20.181  0.00  0.00    +0.000 A 
ATOM      9  C   UNL     1       9.368  10.329  19.323  0.00  0.00    +0.000 A 
ATOM     10  C   UNL     1       9.103   8.970  19.562  0.00  0.00    +0.000 A 
ATOM     11  N   UNL     1       8.309   8.184  18.783  0.00  0.00    +0.000 NA
ATOM     12  H   UNL     1       6.595   8.574  16.032  0.00  0.00    +0.000 HD
ENDROOT
BRANCH   1  16
ATOM     13  C   UNL     1       4.293   4.782  17.384  0.00  0.00    +0.000 A 
ATOM     14  C   UNL     1       4.009   6.036  17.925  0.00  0.00    +0.000 A 
ATOM     15  C   UNL     1       4.904   7.093  17.743  0.00  0.00    +0.000 A 
ATOM     16  C   UNL     1       6.066   6.928  16.981  0.00  0.00    +0.000 A 
ATOM     17  C   UNL     1       6.311   5.666  16.380  0.00  0.00    +0.000 A 
ATOM     18  C   UNL     1       5.429   4.604  16.596  0.00  0.00    +0.000 A 
BRANCH  13  20
ATOM     19  N   UNL     1       3.473   2.990  18.797  0.00  0.00    +0.000 N 
ATOM     20  C   UNL     1       3.343   3.651  17.607  0.00  0.00    +0.000 C 
ATOM     21  O   UNL     1       2.519   3.378  16.746  0.00  0.00    +0.000 OA
ATOM     22  H   UNL     1       3.941   3.443  19.567  0.00  0.00    +0.000 HD
BRANCH  19  23
ATOM     23  C   UNL     1       2.560   1.916  19.161  0.00  0.00    +0.000 C 
BRANCH  23  24
ATOM     24  C   UNL     1       1.657   2.309  20.329  0.00  0.00    +0.000 C 
BRANCH  24  26
ATOM     25  C   UNL     1       1.211   4.609  20.601  0.00  0.00    +0.000 C 
ATOM     26  O   UNL     1       0.826   3.409  19.937  0.00  0.00    +0.000 OA
ENDBRANCH  24  26
ENDBRANCH  23  24
ENDBRANCH  19  23
ENDBRANCH  13  20
BRANCH  17  27
ATOM     27  O   UNL     1       7.425   5.578  15.571  0.00  0.00    +0.000 OA
ATOM     28  C   UNL     1       7.238   4.976  14.292  0.00  0.00    +0.000 C 
ENDBRANCH  17  27
ENDBRANCH   1  16
BRANCH   6  29
ATOM     29  C   UNL     1       8.984  14.525  18.857  0.00  0.00    +0.000 A 
ATOM     30  C   UNL     1       8.577  15.339  17.773  0.00  0.00    +0.000 A 
ATOM     31  N   UNL     1       8.056  16.506  18.166  0.00  0.00    +0.000 NA
ATOM     32  N   UNL     1       8.088  16.428  19.509  0.00  0.00    +0.000 N 
ATOM     33  C   UNL     1       8.664  15.276  19.969  0.00  0.00    +0.000 A 
BRANCH  32  34
ATOM     34  C   UNL     1       7.431  17.446  20.312  0.00  0.00    +0.000 C 
BRANCH  34  35
ATOM     35  C   UNL     1       5.892  17.357  20.310  0.00  0.00    +0.000 C 
ATOM     36  C   UNL     1       5.370  16.131  21.063  0.00  0.00    +0.000 C 
ATOM     37  C   UNL     1       5.321  18.629  20.950  0.00  0.00    +0.000 C 
BRANCH  35  38
ATOM     38  O   UNL     1       5.396  17.331  18.967  0.00  0.00    +0.000 OA
ATOM     39  H   UNL     1       4.510  17.738  18.968  0.00  0.00    +0.000 HD
ENDBRANCH  35  38
ENDBRANCH  34  35
ENDBRANCH  32  34
ENDBRANCH   6  29
TORSDOF 10
ENDMDL
MODEL 7
REMARK VINA RESULT:      -6.7      1.374      1.414
REMARK  Name = 
REMARK  14 active torsions:
REMARK  status: ('A' for Active; 'I' for Inactive)
REMARK    1  A    between atoms: C_1  and  O_2
REMARK    2  A    between atoms: O_2  and  C_3
REMARK    3  A    between atoms: C_3  and  C_4
REMARK    4  A    between atoms: C_4  and  N_5
REMARK    5  A    between atoms: C_6  and  C_8
REMARK    6  A    between atoms: C_11  and  N_12
REMARK    7  A    between atoms: C_17  and  C_18
REMARK    8  A    between atoms: N_21  and  C_22
REMARK    9  A    between atoms: C_22  and  C_23
REMARK   10  A    between atoms: C_23  and  C_24
REMARK   11  A    between atoms: C_23  and  C_25
REMARK   12  A    between atoms: C_23  and  O_26
REMARK   13  A    between atoms: C_33  and  O_34
REMARK   14  A    between atoms: O_34  and  C_35
REMARK                            x       y       z     vdW  Elec       q    Type
REMARK                         _______ _______ _______ _____ _____    ______ ____
ROOT
ATOM      1  N   UNL     1       0.774  10.752  18.914  0.00  0.00    +0.000 N 
ATOM      2  C   UNL     1       1.275   9.451  19.181  0.00  0.00    +0.000 A 
ATOM      3  C   UNL     1       1.843   8.766  18.106  0.00  0.00    +0.000 A 
ATOM      4  C   UNL     1       2.528   7.565  18.316  0.00  0.00    +0.000 A 
ATOM      5  C   UNL     1       3.402   7.058  17.345  0.00  0.00    +0.000 A 
ATOM      6  C   UNL     1       4.193   5.929  17.599  0.00  0.00    +0.000 A 
ATOM      7  C   UNL     1       3.943   5.185  18.757  0.00  0.00    +0.000 A 
ATOM      8  C   UNL     1       3.057   5.670  19.729  0.00  0.00    +0.000 A 
ATOM      9  C   UNL     1       2.419   6.920  19.555  0.00  0.00    +0.000 A 
ATOM     10  C   UNL     1       1.714   7.623  20.548  0.00  0.00    +0.000 A 
ATOM     11  N   UNL     1       1.202   8.876  20.399  0.00  0.00    +0.000 NA
ATOM     12  H   UNL     1       1.056  11.080  17.996  0.00  0.00    +0.000 HD
ENDROOT
BRANCH   1  16
ATOM     13  C   UNL     1       0.406  14.202  21.331  0.00  0.00    +0.000 A 
ATOM     14  C   UNL     1      -0.396  13.091  21.594  0.00  0.00    +0.000 A 
ATOM     15  C   UNL     1      -0.301  11.954  20.787  0.00  0.00    +0.000 A 
ATOM     16  C   UNL     1       0.627  11.891  19.742  0.00  0.00    +0.000 A 
ATOM     17  C   UNL     1       1.485  13.001  19.525  0.00  0.00    +0.000 A 
ATOM     18  C   UNL     1       1.359  14.148  20.314  0.00  0.00    +0.000 A 
BRANCH  13  20
ATOM     19  N   UNL     1      -0.321  16.500  21.591  0.00  0.00    +0.000 N 
ATOM     20  C   UNL     1       0.277  15.422  22.182  0.00  0.00    +0.000 C 
ATOM     21  O   UNL     1       0.696  15.402  23.330  0.00  0.00    +0.000 OA
ATOM     22  H   UNL     1      -0.906  16.359  20.780  0.00  0.00    +0.000 HD
BRANCH  19  23
ATOM     23  C   UNL     1      -0.568  17.724  22.339  0.00  0.00    +0.000 C 
BRANCH  23  24
ATOM     24  C   UNL     1      -2.053  18.086  22.363  0.00  0.00    +0.000 C 
BRANCH  24  26
ATOM     25  C   UNL     1      -4.022  17.262  21.358  0.00  0.00    +0.000 C 
ATOM     26  O   UNL     1      -2.831  16.920  22.061  0.00  0.00    +0.000 OA
ENDBRANCH  24  26
ENDBRANCH  23  24
ENDBRANCH  19  23
ENDBRANCH  13  20
BRANCH  17  27
ATOM     27  O   UNL     1       2.437  12.858  18.537  0.00  0.00    +0.000 OA
ATOM     28  C   UNL     1       3.338  13.948  18.358  0.00  0.00    +0.000 C 
ENDBRANCH  17  27
ENDBRANCH   1  16
BRANCH   6  29
ATOM     29  C   UNL     1       5.355   5.688  16.757  0.00  0.00    +0.000 A 
ATOM     30  C   UNL     1       6.573   5.019  17.025  0.00  0.00    +0.000 A 
ATOM     31  N   UNL     1       7.280   4.764  15.919  0.00  0.00    +0.000 NA
ATOM     32  N   UNL     1       6.498   5.232  14.930  0.00  0.00    +0.000 N 
ATOM     33  C   UNL     1       5.351   5.823  15.384  0.00  0.00    +0.000 A 
BRANCH  32  34
ATOM     34  C   UNL     1       6.845   4.973  13.543  0.00  0.00    +0.000 C 
BRANCH  34  35
ATOM     35  C   UNL     1       6.199   3.702  12.957  0.00  0.00    +0.000 C 
ATOM     36  C   UNL     1       4.854   3.980  12.281  0.00  0.00    +0.000 C 
ATOM     37  C   UNL     1       7.162   3.079  11.938  0.00  0.00    +0.000 C 
BRANCH  35  38
ATOM     38  O   UNL     1       6.016   2.718  13.981  0.00  0.00    +0.000 OA
ATOM     39  H   UNL     1       6.886   2.540  14.384  0.00  0.00    +0.000 HD
ENDBRANCH  35  38
ENDBRANCH  34  35
ENDBRANCH  32  34
ENDBRANCH   6  29
TORSDOF 10
ENDMDL
MODEL 8
REMARK VINA RESULT:      -6.7      1.547      2.002
REMARK  Name = 
REMARK  14 active torsions:
REMARK  status: ('A' for Active; 'I' for Inactive)
REMARK    1  A    between atoms: C_1  and  O_2
REMARK    2  A    between atoms: O_2  and  C_3
REMARK    3  A    between atoms: C_3  and  C_4
REMARK    4  A    between atoms: C_4  and  N_5
REMARK    5  A    between atoms: C_6  and  C_8
REMARK    6  A    between atoms: C_11  and  N_12
REMARK    7  A    between atoms: C_17  and  C_18
REMARK    8  A    between atoms: N_21  and  C_22
REMARK    9  A    between atoms: C_22  and  C_23
REMARK   10  A    between atoms: C_23  and  C_24
REMARK   11  A    between atoms: C_23  and  C_25
REMARK   12  A    between atoms: C_23  and  O_26
REMARK   13  A    between atoms: C_33  and  O_34
REMARK   14  A    between atoms: O_34  and  C_35
REMARK                            x       y       z     vdW  Elec       q    Type
REMARK                         _______ _______ _______ _____ _____    ______ ____
ROOT
ATOM      1  N   UNL     1       0.677  10.708  18.443  0.00  0.00    +0.000 N 
ATOM      2  C   UNL     1       1.238   9.454  18.803  0.00  0.00    +0.000 A 
ATOM      3  C   UNL     1       1.819   8.709  17.775  0.00  0.00    +0.000 A 
ATOM      4  C   UNL     1       2.558   7.558  18.067  0.00  0.00    +0.000 A 
ATOM      5  C   UNL     1       3.438   7.012  17.124  0.00  0.00    +0.000 A 
ATOM      6  C   UNL     1       4.281   5.942  17.451  0.00  0.00    +0.000 A 
ATOM      7  C   UNL     1       4.081   5.282  18.669  0.00  0.00    +0.000 A 
ATOM      8  C   UNL     1       3.190   5.806  19.616  0.00  0.00    +0.000 A 
ATOM      9  C   UNL     1       2.495   7.011  19.355  0.00  0.00    +0.000 A 
ATOM     10  C   UNL     1       1.776   7.761  20.302  0.00  0.00    +0.000 A 
ATOM     11  N   UNL     1       1.208   8.975  20.064  0.00  0.00    +0.000 NA
ATOM     12  H   UNL     1       0.930  10.973  17.497  0.00  0.00    +0.000 HD
ENDROOT
BRANCH   1  16
ATOM     13  C   UNL     1       0.032  14.275  20.619  0.00  0.00    +0.000 A 
ATOM     14  C   UNL     1       1.300  13.694  20.614  0.00  0.00    +0.000 A 
ATOM     15  C   UNL     1       1.520  12.503  19.918  0.00  0.00    +0.000 A 
ATOM     16  C   UNL     1       0.494  11.902  19.180  0.00  0.00    +0.000 A 
ATOM     17  C   UNL     1      -0.775  12.536  19.138  0.00  0.00    +0.000 A 
ATOM     18  C   UNL     1      -0.996  13.709  19.865  0.00  0.00    +0.000 A 
BRANCH  13  20
ATOM     19  N   UNL     1       0.064  15.470  22.729  0.00  0.00    +0.000 N 
ATOM     20  C   UNL     1      -0.199  15.533  21.388  0.00  0.00    +0.000 C 
ATOM     21  O   UNL     1      -0.598  16.531  20.805  0.00  0.00    +0.000 OA
ATOM     22  H   UNL     1       0.666  14.741  23.080  0.00  0.00    +0.000 HD
BRANCH  19  23
ATOM     23  C   UNL     1      -0.056  16.649  23.573  0.00  0.00    +0.000 C 
BRANCH  23  24
ATOM     24  C   UNL     1      -1.362  16.650  24.367  0.00  0.00    +0.000 C 
BRANCH  24  26
ATOM     25  C   UNL     1      -0.536  18.446  25.655  0.00  0.00    +0.000 C 
ATOM     26  O   UNL     1      -1.618  17.973  24.859  0.00  0.00    +0.000 OA
ENDBRANCH  24  26
ENDBRANCH  23  24
ENDBRANCH  19  23
ENDBRANCH  13  20
BRANCH  17  27
ATOM     27  O   UNL     1      -1.728  11.950  18.331  0.00  0.00    +0.000 OA
ATOM     28  C   UNL     1      -3.049  11.868  18.862  0.00  0.00    +0.000 C 
ENDBRANCH  17  27
ENDBRANCH   1  16
BRANCH   6  29
ATOM     29  C   UNL     1       5.439   5.683  16.609  0.00  0.00    +0.000 A 
ATOM     30  C   UNL     1       6.648   4.999  16.879  0.00  0.00    +0.000 A 
ATOM     31  N   UNL     1       7.351   4.731  15.774  0.00  0.00    +0.000 NA
ATOM     32  N   UNL     1       6.575   5.205  14.783  0.00  0.00    +0.000 N 
ATOM     33  C   UNL     1       5.435   5.813  15.235  0.00  0.00    +0.000 A 
BRANCH  32  34
ATOM     34  C   UNL     1       6.918   4.936  13.397  0.00  0.00    +0.000 C 
BRANCH  34  35
ATOM     35  C   UNL     1       6.283   3.653  12.826  0.00  0.00    +0.000 C 
ATOM     36  C   UNL     1       4.945   3.914  12.130  0.00  0.00    +0.000 C 
ATOM     37  C   UNL     1       7.260   3.015  11.830  0.00  0.00    +0.000 C 
BRANCH  35  38
ATOM     38  O   UNL     1       6.091   2.687  13.866  0.00  0.00    +0.000 OA
ATOM     39  H   UNL     1       5.220   2.270  13.730  0.00  0.00    +0.000 HD
ENDBRANCH  35  38
ENDBRANCH  34  35
ENDBRANCH  32  34
ENDBRANCH   6  29
TORSDOF 10
ENDMDL
MODEL 9
REMARK VINA RESULT:      -6.6      3.686     12.127
REMARK  Name = 
REMARK  14 active torsions:
REMARK  status: ('A' for Active; 'I' for Inactive)
REMARK    1  A    between atoms: C_1  and  O_2
REMARK    2  A    between atoms: O_2  and  C_3
REMARK    3  A    between atoms: C_3  and  C_4
REMARK    4  A    between atoms: C_4  and  N_5
REMARK    5  A    between atoms: C_6  and  C_8
REMARK    6  A    between atoms: C_11  and  N_12
REMARK    7  A    between atoms: C_17  and  C_18
REMARK    8  A    between atoms: N_21  and  C_22
REMARK    9  A    between atoms: C_22  and  C_23
REMARK   10  A    between atoms: C_23  and  C_24
REMARK   11  A    between atoms: C_23  and  C_25
REMARK   12  A    between atoms: C_23  and  O_26
REMARK   13  A    between atoms: C_33  and  O_34
REMARK   14  A    between atoms: O_34  and  C_35
REMARK                            x       y       z     vdW  Elec       q    Type
REMARK                         _______ _______ _______ _____ _____    ______ ____
ROOT
ATOM      1  N   UNL     1       0.759  10.305  18.285  0.00  0.00    +0.000 N 
ATOM      2  C   UNL     1       0.959  11.648  18.700  0.00  0.00    +0.000 A 
ATOM      3  C   UNL     1      -0.185  12.424  18.884  0.00  0.00    +0.000 A 
ATOM      4  C   UNL     1      -0.093  13.691  19.470  0.00  0.00    +0.000 A 
ATOM      5  C   UNL     1      -1.228  14.324  19.994  0.00  0.00    +0.000 A 
ATOM      6  C   UNL     1      -1.126  15.529  20.701  0.00  0.00    +0.000 A 
ATOM      7  C   UNL     1       0.098  16.207  20.693  0.00  0.00    +0.000 A 
ATOM      8  C   UNL     1       1.239  15.594  20.156  0.00  0.00    +0.000 A 
ATOM      9  C   UNL     1       1.166  14.283  19.629  0.00  0.00    +0.000 A 
ATOM     10  C   UNL     1       2.267  13.476  19.294  0.00  0.00    +0.000 A 
ATOM     11  N   UNL     1       2.185  12.176  18.895  0.00  0.00    +0.000 NA
ATOM     12  H   UNL     1      -0.219  10.038  18.343  0.00  0.00    +0.000 HD
ENDROOT
BRANCH   1  16
ATOM     13  C   UNL     1       3.015   6.797  18.976  0.00  0.00    +0.000 A 
ATOM     14  C   UNL     1       3.150   7.471  17.762  0.00  0.00    +0.000 A 
ATOM     15  C   UNL     1       2.392   8.618  17.513  0.00  0.00    +0.000 A 
ATOM     16  C   UNL     1       1.528   9.134  18.485  0.00  0.00    +0.000 A 
ATOM     17  C   UNL     1       1.449   8.478  19.742  0.00  0.00    +0.000 A 
ATOM     18  C   UNL     1       2.183   7.311  19.971  0.00  0.00    +0.000 A 
BRANCH  13  20
ATOM     19  N   UNL     1       3.215   4.384  18.845  0.00  0.00    +0.000 N 
ATOM     20  C   UNL     1       3.809   5.556  19.222  0.00  0.00    +0.000 C 
ATOM     21  O   UNL     1       4.918   5.642  19.731  0.00  0.00    +0.000 OA
ATOM     22  H   UNL     1       2.465   4.404  18.170  0.00  0.00    +0.000 HD
BRANCH  19  23
ATOM     23  C   UNL     1       3.917   3.115  18.969  0.00  0.00    +0.000 C 
BRANCH  23  24
ATOM     24  C   UNL     1       3.555   2.388  20.263  0.00  0.00    +0.000 C 
BRANCH  24  26
ATOM     25  C   UNL     1       1.653   2.800  21.598  0.00  0.00    +0.000 C 
ATOM     26  O   UNL     1       2.129   2.275  20.362  0.00  0.00    +0.000 OA
ENDBRANCH  24  26
ENDBRANCH  23  24
ENDBRANCH  19  23
ENDBRANCH  13  20
BRANCH  17  27
ATOM     27  O   UNL     1       0.647   9.072  20.695  0.00  0.00    +0.000 OA
ATOM     28  C   UNL     1       1.091   8.980  22.047  0.00  0.00    +0.000 C 
ENDBRANCH  17  27
ENDBRANCH   1  16
BRANCH   6  29
ATOM     29  C   UNL     1      -2.229  15.928  21.563  0.00  0.00    +0.000 A 
ATOM     30  C   UNL     1      -3.316  16.805  21.333  0.00  0.00    +0.000 A 
ATOM     31  N   UNL     1      -4.270  16.704  22.263  0.00  0.00    +0.000 NA
ATOM     32  N   UNL     1      -3.819  15.729  23.073  0.00  0.00    +0.000 N 
ATOM     33  C   UNL     1      -2.587  15.257  22.714  0.00  0.00    +0.000 A 
BRANCH  32  34
ATOM     34  C   UNL     1      -4.677  15.197  24.119  0.00  0.00    +0.000 C 
BRANCH  34  35
ATOM     35  C   UNL     1      -5.236  13.792  23.824  0.00  0.00    +0.000 C 
ATOM     36  C   UNL     1      -5.384  13.517  22.325  0.00  0.00    +0.000 C 
ATOM     37  C   UNL     1      -4.302  12.745  24.444  0.00  0.00    +0.000 C 
BRANCH  35  38
ATOM     38  O   UNL     1      -6.507  13.617  24.461  0.00  0.00    +0.000 OA
ATOM     39  H   UNL     1      -6.632  12.663  24.621  0.00  0.00    +0.000 HD
ENDBRANCH  35  38
ENDBRANCH  34  35
ENDBRANCH  32  34
ENDBRANCH   6  29
TORSDOF 10
ENDMDL
