MODEL 1
REMARK VINA RESULT:      -7.9      0.000      0.000
REMARK  Name = 
REMARK  9 active torsions:
REMARK  status: ('A' for Active; 'I' for Inactive)
REMARK    1  A    between atoms: C_1  and  C_2
REMARK    2  A    between atoms: C_2  and  N_3
REMARK    3  A    between atoms: N_3  and  C_4
REMARK    4  A    between atoms: C_4  and  N_6
REMARK    5  A    between atoms: N_6  and  N_7
REMARK    6  A    between atoms: C_8  and  C_9
REMARK    7  A    between atoms: C_8  and  C_10
REMARK    8  A    between atoms: C_16  and  C_17
REMARK    9  A    between atoms: C_17  and  C_18
REMARK                            x       y       z     vdW  Elec       q    Type
REMARK                         _______ _______ _______ _____ _____    ______ ____
ROOT
ATOM      1  C   UNL     1       3.993   4.679  17.191  0.00  0.00    +0.000 A 
ATOM      2  C   UNL     1       3.309   3.388  16.902  0.00  0.00    +0.000 A 
ATOM      3  C   UNL     1       2.293   3.036  17.703  0.00  0.00    +0.000 A 
ATOM      4  C   UNL     1       1.937   3.883  18.770  0.00  0.00    +0.000 A 
ATOM      5  N   UNL     1       0.999   3.753  19.689  0.00  0.00    +0.000 NA
ATOM      6  C   UNL     1       1.091   4.890  20.451  0.00  0.00    +0.000 A 
ATOM      7  C   UNL     1       2.091   5.728  19.998  0.00  0.00    +0.000 A 
ATOM      8  N   UNL     1       2.649   5.066  18.927  0.00  0.00    +0.000 N 
ATOM      9  N   UNL     1       3.687   5.502  18.150  0.00  0.00    +0.000 NA
ENDROOT
BRANCH   1  11
ATOM     10  N   UNL     1       5.902   4.070  15.863  0.00  0.00    +0.000 NA
ATOM     11  C   UNL     1       5.140   5.050  16.256  0.00  0.00    +0.000 C 
ATOM     12  C   UNL     1       5.265   6.515  15.922  0.00  0.00    +0.000 C 
BRANCH  10  13
ATOM     13  N   UNL     1       6.948   4.314  15.021  0.00  0.00    +0.000 N 
ATOM     14  H   UNL     1       7.882   4.502  15.365  0.00  0.00    +0.000 HD
BRANCH  13  15
ATOM     15  C   UNL     1       6.805   4.205  13.652  0.00  0.00    +0.000 C 
ATOM     16  S   UNL     1       7.663   5.225  12.650  0.00  0.00    +0.000 S 
BRANCH  15  17
ATOM     17  N   UNL     1       5.977   3.187  13.265  0.00  0.00    +0.000 N 
ATOM     18  H   UNL     1       5.476   2.775  14.045  0.00  0.00    +0.000 HD
BRANCH  17  20
ATOM     19  C   UNL     1       4.324   3.280  11.468  0.00  0.00    +0.000 C 
ATOM     20  C   UNL     1       5.678   2.760  11.911  0.00  0.00    +0.000 C 
ENDBRANCH  17  20
ENDBRANCH  15  17
ENDBRANCH  13  15
ENDBRANCH  10  13
ENDBRANCH   1  11
BRANCH   7  21
ATOM     21  C   UNL     1       2.516   7.075  20.476  0.00  0.00    +0.000 C 
BRANCH  21  22
ATOM     22  C   UNL     1       1.630   8.189  19.973  0.00  0.00    +0.000 A 
ATOM     23  C   UNL     1       0.751   8.868  20.830  0.00  0.00    +0.000 A 
ATOM     24  C   UNL     1       0.026   9.987  20.374  0.00  0.00    +0.000 A 
ATOM     25  C   UNL     1      -0.813  10.725  21.221  0.00  0.00    +0.000 A 
ATOM     26  C   UNL     1      -1.439  11.873  20.749  0.00  0.00    +0.000 A 
ATOM     27  C   UNL     1      -1.228  12.230  19.431  0.00  0.00    +0.000 A 
ATOM     28  N   UNL     1      -0.466  11.519  18.571  0.00  0.00    +0.000 NA
ATOM     29  C   UNL     1       0.157  10.424  19.037  0.00  0.00    +0.000 A 
ATOM     30  C   UNL     1       0.977   9.703  18.186  0.00  0.00    +0.000 A 
ATOM     31  C   UNL     1       1.706   8.611  18.648  0.00  0.00    +0.000 A 
ATOM     32  F   UNL     1       2.505   7.966  17.784  0.00  0.00    +0.000 F 
ENDBRANCH  21  22
ENDBRANCH   7  21
TORSDOF 7
ENDMDL
MODEL 2
REMARK VINA RESULT:      -7.9      1.589      2.003
REMARK  Name = 
REMARK  9 active torsions:
REMARK  status: ('A' for Active; 'I' for Inactive)
REMARK    1  A    between atoms: C_1  and  C_2
REMARK    2  A    between atoms: C_2  and  N_3
REMARK    3  A    between atoms: N_3  and  C_4
REMARK    4  A    between atoms: C_4  and  N_6
REMARK    5  A    between atoms: N_6  and  N_7
REMARK    6  A    between atoms: C_8  and  C_9
REMARK    7  A    between atoms: C_8  and  C_10
REMARK    8  A    between atoms: C_16  and  C_17
REMARK    9  A    between atoms: C_17  and  C_18
REMARK                            x       y       z     vdW  Elec       q    Type
REMARK                         _______ _______ _______ _____ _____    ______ ____
ROOT
ATOM      1  C   UNL     1       4.617   4.152  16.721  0.00  0.00    +0.000 A 
ATOM      2  C   UNL     1       4.217   2.799  17.198  0.00  0.00    +0.000 A 
ATOM      3  C   UNL     1       3.343   2.736  18.213  0.00  0.00    +0.000 A 
ATOM      4  C   UNL     1       2.864   3.934  18.778  0.00  0.00    +0.000 A 
ATOM      5  N   UNL     1       2.023   4.133  19.775  0.00  0.00    +0.000 NA
ATOM      6  C   UNL     1       1.902   5.496  19.870  0.00  0.00    +0.000 A 
ATOM      7  C   UNL     1       2.672   6.143  18.923  0.00  0.00    +0.000 A 
ATOM      8  N   UNL     1       3.308   5.133  18.235  0.00  0.00    +0.000 N 
ATOM      9  N   UNL     1       4.187   5.283  17.197  0.00  0.00    +0.000 NA
ENDROOT
BRANCH   1  11
ATOM     10  N   UNL     1       5.120   3.931  14.381  0.00  0.00    +0.000 NA
ATOM     11  C   UNL     1       5.608   4.185  15.561  0.00  0.00    +0.000 C 
ATOM     12  C   UNL     1       7.039   4.482  15.930  0.00  0.00    +0.000 C 
BRANCH  10  13
ATOM     13  N   UNL     1       5.938   3.944  13.288  0.00  0.00    +0.000 N 
ATOM     14  H   UNL     1       6.799   4.479  13.267  0.00  0.00    +0.000 HD
BRANCH  13  15
ATOM     15  C   UNL     1       5.686   3.137  12.197  0.00  0.00    +0.000 C 
ATOM     16  S   UNL     1       4.259   3.311  11.353  0.00  0.00    +0.000 S 
BRANCH  15  17
ATOM     17  N   UNL     1       6.714   2.287  11.893  0.00  0.00    +0.000 N 
ATOM     18  H   UNL     1       7.477   2.343  12.561  0.00  0.00    +0.000 HD
BRANCH  17  20
ATOM     19  C   UNL     1       6.197  -0.037  11.338  0.00  0.00    +0.000 C 
ATOM     20  C   UNL     1       6.751   1.287  10.843  0.00  0.00    +0.000 C 
ENDBRANCH  17  20
ENDBRANCH  15  17
ENDBRANCH  13  15
ENDBRANCH  10  13
ENDBRANCH   1  11
BRANCH   7  21
ATOM     21  C   UNL     1       2.816   7.596  18.621  0.00  0.00    +0.000 C 
BRANCH  21  22
ATOM     22  C   UNL     1       1.763   8.447  19.288  0.00  0.00    +0.000 A 
ATOM     23  C   UNL     1       1.475   8.317  20.655  0.00  0.00    +0.000 A 
ATOM     24  C   UNL     1       0.582   9.204  21.289  0.00  0.00    +0.000 A 
ATOM     25  C   UNL     1       0.321   9.140  22.664  0.00  0.00    +0.000 A 
ATOM     26  C   UNL     1      -0.499  10.093  23.260  0.00  0.00    +0.000 A 
ATOM     27  C   UNL     1      -1.057  11.064  22.451  0.00  0.00    +0.000 A 
ATOM     28  N   UNL     1      -0.867  11.131  21.115  0.00  0.00    +0.000 NA
ATOM     29  C   UNL     1      -0.055  10.224  20.546  0.00  0.00    +0.000 A 
ATOM     30  C   UNL     1       0.188  10.296  19.185  0.00  0.00    +0.000 A 
ATOM     31  C   UNL     1       1.087   9.430  18.570  0.00  0.00    +0.000 A 
ATOM     32  F   UNL     1       1.302   9.565  17.252  0.00  0.00    +0.000 F 
ENDBRANCH  21  22
ENDBRANCH   7  21
TORSDOF 7
ENDMDL
MODEL 3
REMARK VINA RESULT:      -7.8      2.581      3.708
REMARK  Name = 
REMARK  9 active torsions:
REMARK  status: ('A' for Active; 'I' for Inactive)
REMARK    1  A    between atoms: C_1  and  C_2
REMARK    2  A    between atoms: C_2  and  N_3
REMARK    3  A    between atoms: N_3  and  C_4
REMARK    4  A    between atoms: C_4  and  N_6
REMARK    5  A    between atoms: N_6  and  N_7
REMARK    6  A    between atoms: C_8  and  C_9
REMARK    7  A    between atoms: C_8  and  C_10
REMARK    8  A    between atoms: C_16  and  C_17
REMARK    9  A    between atoms: C_17  and  C_18
REMARK                            x       y       z     vdW  Elec       q    Type
REMARK                         _______ _______ _______ _____ _____    ______ ____
ROOT
ATOM      1  C   UNL     1       3.050   6.147  18.651  0.00  0.00    +0.000 A 
ATOM      2  C   UNL     1       2.737   5.140  19.703  0.00  0.00    +0.000 A 
ATOM      3  C   UNL     1       1.973   5.540  20.731  0.00  0.00    +0.000 A 
ATOM      4  C   UNL     1       1.524   6.874  20.771  0.00  0.00    +0.000 A 
ATOM      5  N   UNL     1       0.785   7.501  21.667  0.00  0.00    +0.000 NA
ATOM      6  C   UNL     1       0.640   8.774  21.178  0.00  0.00    +0.000 A 
ATOM      7  C   UNL     1       1.291   8.933  19.970  0.00  0.00    +0.000 A 
ATOM      8  N   UNL     1       1.878   7.712  19.722  0.00  0.00    +0.000 N 
ATOM      9  N   UNL     1       2.641   7.382  18.636  0.00  0.00    +0.000 NA
ENDROOT
BRANCH   1  11
ATOM     10  N   UNL     1       4.802   6.495  17.043  0.00  0.00    +0.000 NA
ATOM     11  C   UNL     1       3.915   5.655  17.494  0.00  0.00    +0.000 C 
ATOM     12  C   UNL     1       3.617   4.264  16.999  0.00  0.00    +0.000 C 
BRANCH  10  13
ATOM     13  N   UNL     1       5.621   6.133  16.012  0.00  0.00    +0.000 N 
ATOM     14  H   UNL     1       5.377   6.311  15.044  0.00  0.00    +0.000 HD
BRANCH  13  15
ATOM     15  C   UNL     1       6.876   5.608  16.246  0.00  0.00    +0.000 C 
ATOM     16  S   UNL     1       7.336   5.231  17.803  0.00  0.00    +0.000 S 
BRANCH  15  17
ATOM     17  N   UNL     1       7.605   5.400  15.107  0.00  0.00    +0.000 N 
ATOM     18  H   UNL     1       8.604   5.479  15.265  0.00  0.00    +0.000 HD
BRANCH  17  20
ATOM     19  C   UNL     1       6.276   3.718  13.933  0.00  0.00    +0.000 C 
ATOM     20  C   UNL     1       7.113   4.977  13.810  0.00  0.00    +0.000 C 
ENDBRANCH  17  20
ENDBRANCH  15  17
ENDBRANCH  13  15
ENDBRANCH  10  13
ENDBRANCH   1  11
BRANCH   7  21
ATOM     21  C   UNL     1       1.365  10.111  19.058  0.00  0.00    +0.000 C 
BRANCH  21  22
ATOM     22  C   UNL     1       0.008  10.620  18.637  0.00  0.00    +0.000 A 
ATOM     23  C   UNL     1      -0.660  10.088  17.524  0.00  0.00    +0.000 A 
ATOM     24  C   UNL     1      -1.978  10.486  17.220  0.00  0.00    +0.000 A 
ATOM     25  C   UNL     1      -2.695   9.929  16.153  0.00  0.00    +0.000 A 
ATOM     26  C   UNL     1      -4.022  10.288  15.946  0.00  0.00    +0.000 A 
ATOM     27  C   UNL     1      -4.581  11.220  16.800  0.00  0.00    +0.000 A 
ATOM     28  N   UNL     1      -3.909  11.814  17.810  0.00  0.00    +0.000 NA
ATOM     29  C   UNL     1      -2.634  11.447  18.022  0.00  0.00    +0.000 A 
ATOM     30  C   UNL     1      -1.937  12.011  19.076  0.00  0.00    +0.000 A 
ATOM     31  C   UNL     1      -0.643  11.599  19.383  0.00  0.00    +0.000 A 
ATOM     32  F   UNL     1      -0.027  12.163  20.433  0.00  0.00    +0.000 F 
ENDBRANCH  21  22
ENDBRANCH   7  21
TORSDOF 7
ENDMDL
MODEL 4
REMARK VINA RESULT:      -7.6      2.282      3.335
REMARK  Name = 
REMARK  9 active torsions:
REMARK  status: ('A' for Active; 'I' for Inactive)
REMARK    1  A    between atoms: C_1  and  C_2
REMARK    2  A    between atoms: C_2  and  N_3
REMARK    3  A    between atoms: N_3  and  C_4
REMARK    4  A    between atoms: C_4  and  N_6
REMARK    5  A    between atoms: N_6  and  N_7
REMARK    6  A    between atoms: C_8  and  C_9
REMARK    7  A    between atoms: C_8  and  C_10
REMARK    8  A    between atoms: C_16  and  C_17
REMARK    9  A    between atoms: C_17  and  C_18
REMARK                            x       y       z     vdW  Elec       q    Type
REMARK                         _______ _______ _______ _____ _____    ______ ____
ROOT
ATOM      1  C   UNL     1       2.812   5.392  18.646  0.00  0.00    +0.000 A 
ATOM      2  C   UNL     1       2.597   4.632  19.909  0.00  0.00    +0.000 A 
ATOM      3  C   UNL     1       2.055   5.293  20.942  0.00  0.00    +0.000 A 
ATOM      4  C   UNL     1       1.734   6.655  20.789  0.00  0.00    +0.000 A 
ATOM      5  N   UNL     1       1.213   7.513  21.647  0.00  0.00    +0.000 NA
ATOM      6  C   UNL     1       1.095   8.686  20.947  0.00  0.00    +0.000 A 
ATOM      7  C   UNL     1       1.544   8.552  19.648  0.00  0.00    +0.000 A 
ATOM      8  N   UNL     1       1.975   7.247  19.556  0.00  0.00    +0.000 N 
ATOM      9  N   UNL     1       2.513   6.643  18.453  0.00  0.00    +0.000 NA
ENDROOT
BRANCH   1  11
ATOM     10  N   UNL     1       4.397   5.189  16.851  0.00  0.00    +0.000 NA
ATOM     11  C   UNL     1       3.425   4.606  17.491  0.00  0.00    +0.000 C 
ATOM     12  C   UNL     1       2.808   3.259  17.215  0.00  0.00    +0.000 C 
BRANCH  10  13
ATOM     13  N   UNL     1       5.004   4.553  15.806  0.00  0.00    +0.000 N 
ATOM     14  H   UNL     1       4.473   4.116  15.061  0.00  0.00    +0.000 HD
BRANCH  13  15
ATOM     15  C   UNL     1       6.376   4.572  15.657  0.00  0.00    +0.000 C 
ATOM     16  S   UNL     1       7.352   4.634  17.007  0.00  0.00    +0.000 S 
BRANCH  15  17
ATOM     17  N   UNL     1       6.789   4.480  14.356  0.00  0.00    +0.000 N 
ATOM     18  H   UNL     1       7.691   4.918  14.201  0.00  0.00    +0.000 HD
BRANCH  17  20
ATOM     19  C   UNL     1       7.008   3.771  12.027  0.00  0.00    +0.000 C 
ATOM     20  C   UNL     1       6.151   3.747  13.278  0.00  0.00    +0.000 C 
ENDBRANCH  17  20
ENDBRANCH  15  17
ENDBRANCH  13  15
ENDBRANCH  10  13
ENDBRANCH   1  11
BRANCH   7  21
ATOM     21  C   UNL     1       1.562   9.532  18.524  0.00  0.00    +0.000 C 
BRANCH  21  22
ATOM     22  C   UNL     1       0.258  10.275  18.364  0.00  0.00    +0.000 A 
ATOM     23  C   UNL     1      -0.797   9.746  17.606  0.00  0.00    +0.000 A 
ATOM     24  C   UNL     1      -2.050  10.392  17.572  0.00  0.00    +0.000 A 
ATOM     25  C   UNL     1      -3.142   9.858  16.875  0.00  0.00    +0.000 A 
ATOM     26  C   UNL     1      -4.382  10.485  16.942  0.00  0.00    +0.000 A 
ATOM     27  C   UNL     1      -4.480  11.646  17.685  0.00  0.00    +0.000 A 
ATOM     28  N   UNL     1      -3.440  12.217  18.331  0.00  0.00    +0.000 NA
ATOM     29  C   UNL     1      -2.249  11.596  18.283  0.00  0.00    +0.000 A 
ATOM     30  C   UNL     1      -1.179  12.139  18.972  0.00  0.00    +0.000 A 
ATOM     31  C   UNL     1       0.050  11.487  19.019  0.00  0.00    +0.000 A 
ATOM     32  F   UNL     1       1.043  12.048  19.724  0.00  0.00    +0.000 F 
ENDBRANCH  21  22
ENDBRANCH   7  21
TORSDOF 7
ENDMDL
MODEL 5
REMARK VINA RESULT:      -7.6      2.531      4.012
REMARK  Name = 
REMARK  9 active torsions:
REMARK  status: ('A' for Active; 'I' for Inactive)
REMARK    1  A    between atoms: C_1  and  C_2
REMARK    2  A    between atoms: C_2  and  N_3
REMARK    3  A    between atoms: N_3  and  C_4
REMARK    4  A    between atoms: C_4  and  N_6
REMARK    5  A    between atoms: N_6  and  N_7
REMARK    6  A    between atoms: C_8  and  C_9
REMARK    7  A    between atoms: C_8  and  C_10
REMARK    8  A    between atoms: C_16  and  C_17
REMARK    9  A    between atoms: C_17  and  C_18
REMARK                            x       y       z     vdW  Elec       q    Type
REMARK                         _______ _______ _______ _____ _____    ______ ____
ROOT
ATOM      1  C   UNL     1       3.104   6.163  18.458  0.00  0.00    +0.000 A 
ATOM      2  C   UNL     1       2.842   5.131  19.500  0.00  0.00    +0.000 A 
ATOM      3  C   UNL     1       2.095   5.494  20.553  0.00  0.00    +0.000 A 
ATOM      4  C   UNL     1       1.614   6.815  20.628  0.00  0.00    +0.000 A 
ATOM      5  N   UNL     1       0.883   7.408  21.553  0.00  0.00    +0.000 NA
ATOM      6  C   UNL     1       0.694   8.685  21.089  0.00  0.00    +0.000 A 
ATOM      7  C   UNL     1       1.310   8.881  19.868  0.00  0.00    +0.000 A 
ATOM      8  N   UNL     1       1.921   7.680  19.584  0.00  0.00    +0.000 N 
ATOM      9  N   UNL     1       2.665   7.386  18.474  0.00  0.00    +0.000 NA
ENDROOT
BRANCH   1  11
ATOM     10  N   UNL     1       4.523   6.657  16.582  0.00  0.00    +0.000 NA
ATOM     11  C   UNL     1       3.952   5.712  17.272  0.00  0.00    +0.000 C 
ATOM     12  C   UNL     1       4.002   4.226  17.029  0.00  0.00    +0.000 C 
BRANCH  10  13
ATOM     13  N   UNL     1       5.303   6.341  15.507  0.00  0.00    +0.000 N 
ATOM     14  H   UNL     1       5.025   6.562  14.558  0.00  0.00    +0.000 HD
BRANCH  13  15
ATOM     15  C   UNL     1       6.564   5.803  15.672  0.00  0.00    +0.000 C 
ATOM     16  S   UNL     1       6.957   4.374  14.908  0.00  0.00    +0.000 S 
BRANCH  15  17
ATOM     17  N   UNL     1       7.395   6.574  16.437  0.00  0.00    +0.000 N 
ATOM     18  H   UNL     1       8.019   7.147  15.879  0.00  0.00    +0.000 HD
BRANCH  17  20
ATOM     19  C   UNL     1       7.648   5.405  18.568  0.00  0.00    +0.000 C 
ATOM     20  C   UNL     1       7.374   6.729  17.880  0.00  0.00    +0.000 C 
ENDBRANCH  17  20
ENDBRANCH  15  17
ENDBRANCH  13  15
ENDBRANCH  10  13
ENDBRANCH   1  11
BRANCH   7  21
ATOM     21  C   UNL     1       1.332  10.075  18.975  0.00  0.00    +0.000 C 
BRANCH  21  22
ATOM     22  C   UNL     1      -0.035  10.678  18.758  0.00  0.00    +0.000 A 
ATOM     23  C   UNL     1      -0.888  10.210  17.747  0.00  0.00    +0.000 A 
ATOM     24  C   UNL     1      -2.207  10.697  17.640  0.00  0.00    +0.000 A 
ATOM     25  C   UNL     1      -3.104  10.206  16.681  0.00  0.00    +0.000 A 
ATOM     26  C   UNL     1      -4.420  10.653  16.670  0.00  0.00    +0.000 A 
ATOM     27  C   UNL     1      -4.790  11.602  17.605  0.00  0.00    +0.000 A 
ATOM     28  N   UNL     1      -3.943  12.133  18.513  0.00  0.00    +0.000 NA
ATOM     29  C   UNL     1      -2.677  11.682  18.537  0.00  0.00    +0.000 A 
ATOM     30  C   UNL     1      -1.802  12.180  19.486  0.00  0.00    +0.000 A 
ATOM     31  C   UNL     1      -0.507  11.681  19.600  0.00  0.00    +0.000 A 
ATOM     32  F   UNL     1       0.288  12.185  20.556  0.00  0.00    +0.000 F 
ENDBRANCH  21  22
ENDBRANCH   7  21
TORSDOF 7
ENDMDL
MODEL 6
REMARK VINA RESULT:      -7.6      2.362      3.791
REMARK  Name = 
REMARK  9 active torsions:
REMARK  status: ('A' for Active; 'I' for Inactive)
REMARK    1  A    between atoms: C_1  and  C_2
REMARK    2  A    between atoms: C_2  and  N_3
REMARK    3  A    between atoms: N_3  and  C_4
REMARK    4  A    between atoms: C_4  and  N_6
REMARK    5  A    between atoms: N_6  and  N_7
REMARK    6  A    between atoms: C_8  and  C_9
REMARK    7  A    between atoms: C_8  and  C_10
REMARK    8  A    between atoms: C_16  and  C_17
REMARK    9  A    between atoms: C_17  and  C_18
REMARK                            x       y       z     vdW  Elec       q    Type
REMARK                         _______ _______ _______ _____ _____    ______ ____
ROOT
ATOM      1  C   UNL     1       3.100   5.375  18.553  0.00  0.00    +0.000 A 
ATOM      2  C   UNL     1       2.794   4.680  19.835  0.00  0.00    +0.000 A 
ATOM      3  C   UNL     1       2.150   5.382  20.778  0.00  0.00    +0.000 A 
ATOM      4  C   UNL     1       1.812   6.725  20.521  0.00  0.00    +0.000 A 
ATOM      5  N   UNL     1       1.200   7.613  21.281  0.00  0.00    +0.000 NA
ATOM      6  C   UNL     1       1.117   8.743  20.507  0.00  0.00    +0.000 A 
ATOM      7  C   UNL     1       1.679   8.550  19.260  0.00  0.00    +0.000 A 
ATOM      8  N   UNL     1       2.146   7.254  19.281  0.00  0.00    +0.000 N 
ATOM      9  N   UNL     1       2.791   6.604  18.264  0.00  0.00    +0.000 NA
ENDROOT
BRANCH   1  11
ATOM     10  N   UNL     1       4.539   5.206  16.635  0.00  0.00    +0.000 NA
ATOM     11  C   UNL     1       3.828   4.543  17.501  0.00  0.00    +0.000 C 
ATOM     12  C   UNL     1       3.611   3.054  17.579  0.00  0.00    +0.000 C 
BRANCH  10  13
ATOM     13  N   UNL     1       5.226   4.539  15.663  0.00  0.00    +0.000 N 
ATOM     14  H   UNL     1       4.782   3.848  15.069  0.00  0.00    +0.000 HD
BRANCH  13  15
ATOM     15  C   UNL     1       6.536   4.856  15.366  0.00  0.00    +0.000 C 
ATOM     16  S   UNL     1       7.095   4.679  13.806  0.00  0.00    +0.000 S 
BRANCH  15  17
ATOM     17  N   UNL     1       7.236   5.353  16.432  0.00  0.00    +0.000 N 
ATOM     18  H   UNL     1       7.401   6.352  16.358  0.00  0.00    +0.000 HD
BRANCH  17  20
ATOM     19  C   UNL     1       7.490   5.543  18.855  0.00  0.00    +0.000 C 
ATOM     20  C   UNL     1       7.625   4.647  17.638  0.00  0.00    +0.000 C 
ENDBRANCH  17  20
ENDBRANCH  15  17
ENDBRANCH  13  15
ENDBRANCH  10  13
ENDBRANCH   1  11
BRANCH   7  21
ATOM     21  C   UNL     1       1.773   9.466  18.088  0.00  0.00    +0.000 C 
BRANCH  21  22
ATOM     22  C   UNL     1       1.235  10.847  18.371  0.00  0.00    +0.000 A 
ATOM     23  C   UNL     1       2.092  11.943  18.555  0.00  0.00    +0.000 A 
ATOM     24  C   UNL     1       1.573  13.246  18.692  0.00  0.00    +0.000 A 
ATOM     25  C   UNL     1       2.403  14.368  18.815  0.00  0.00    +0.000 A 
ATOM     26  C   UNL     1       1.847  15.642  18.858  0.00  0.00    +0.000 A 
ATOM     27  C   UNL     1       0.470  15.749  18.806  0.00  0.00    +0.000 A 
ATOM     28  N   UNL     1      -0.365  14.689  18.736  0.00  0.00    +0.000 NA
ATOM     29  C   UNL     1       0.177  13.461  18.670  0.00  0.00    +0.000 A 
ATOM     30  C   UNL     1      -0.657  12.363  18.555  0.00  0.00    +0.000 A 
ATOM     31  C   UNL     1      -0.137  11.080  18.400  0.00  0.00    +0.000 A 
ATOM     32  F   UNL     1      -0.995  10.057  18.266  0.00  0.00    +0.000 F 
ENDBRANCH  21  22
ENDBRANCH   7  21
TORSDOF 7
ENDMDL
MODEL 7
REMARK VINA RESULT:      -7.5      2.104      3.488
REMARK  Name = 
REMARK  9 active torsions:
REMARK  status: ('A' for Active; 'I' for Inactive)
REMARK    1  A    between atoms: C_1  and  C_2
REMARK    2  A    between atoms: C_2  and  N_3
REMARK    3  A    between atoms: N_3  and  C_4
REMARK    4  A    between atoms: C_4  and  N_6
REMARK    5  A    between atoms: N_6  and  N_7
REMARK    6  A    between atoms: C_8  and  C_9
REMARK    7  A    between atoms: C_8  and  C_10
REMARK    8  A    between atoms: C_16  and  C_17
REMARK    9  A    between atoms: C_17  and  C_18
REMARK                            x       y       z     vdW  Elec       q    Type
REMARK                         _______ _______ _______ _____ _____    ______ ____
ROOT
ATOM      1  C   UNL     1       3.136   4.943  18.672  0.00  0.00    +0.000 A 
ATOM      2  C   UNL     1       2.839   4.200  19.928  0.00  0.00    +0.000 A 
ATOM      3  C   UNL     1       2.215   4.870  20.908  0.00  0.00    +0.000 A 
ATOM      4  C   UNL     1       1.889   6.226  20.709  0.00  0.00    +0.000 A 
ATOM      5  N   UNL     1       1.296   7.090  21.512  0.00  0.00    +0.000 NA
ATOM      6  C   UNL     1       1.215   8.250  20.786  0.00  0.00    +0.000 A 
ATOM      7  C   UNL     1       1.759   8.101  19.525  0.00  0.00    +0.000 A 
ATOM      8  N   UNL     1       2.212   6.801  19.487  0.00  0.00    +0.000 N 
ATOM      9  N   UNL     1       2.836   6.186  18.436  0.00  0.00    +0.000 NA
ENDROOT
BRANCH   1  11
ATOM     10  N   UNL     1       4.619   4.825  16.784  0.00  0.00    +0.000 NA
ATOM     11  C   UNL     1       3.840   4.147  17.577  0.00  0.00    +0.000 C 
ATOM     12  C   UNL     1       3.527   2.673  17.534  0.00  0.00    +0.000 C 
BRANCH  10  13
ATOM     13  N   UNL     1       5.291   4.189  15.780  0.00  0.00    +0.000 N 
ATOM     14  H   UNL     1       4.820   3.583  15.118  0.00  0.00    +0.000 HD
BRANCH  13  15
ATOM     15  C   UNL     1       6.630   4.431  15.551  0.00  0.00    +0.000 C 
ATOM     16  S   UNL     1       7.138   4.889  14.031  0.00  0.00    +0.000 S 
BRANCH  15  17
ATOM     17  N   UNL     1       7.410   4.310  16.669  0.00  0.00    +0.000 N 
ATOM     18  H   UNL     1       8.079   3.551  16.598  0.00  0.00    +0.000 HD
BRANCH  17  20
ATOM     19  C   UNL     1       7.524   6.646  17.381  0.00  0.00    +0.000 C 
ATOM     20  C   UNL     1       7.445   5.195  17.819  0.00  0.00    +0.000 C 
ENDBRANCH  17  20
ENDBRANCH  15  17
ENDBRANCH  13  15
ENDBRANCH  10  13
ENDBRANCH   1  11
BRANCH   7  21
ATOM     21  C   UNL     1       1.847   9.063  18.389  0.00  0.00    +0.000 C 
BRANCH  21  22
ATOM     22  C   UNL     1       0.613   9.919  18.240  0.00  0.00    +0.000 A 
ATOM     23  C   UNL     1      -0.545   9.432  17.616  0.00  0.00    +0.000 A 
ATOM     24  C   UNL     1      -1.728  10.199  17.598  0.00  0.00    +0.000 A 
ATOM     25  C   UNL     1      -2.918   9.717  17.038  0.00  0.00    +0.000 A 
ATOM     26  C   UNL     1      -4.082  10.473  17.123  0.00  0.00    +0.000 A 
ATOM     27  C   UNL     1      -4.008  11.706  17.743  0.00  0.00    +0.000 A 
ATOM     28  N   UNL     1      -2.870  12.226  18.253  0.00  0.00    +0.000 NA
ATOM     29  C   UNL     1      -1.753  11.482  18.191  0.00  0.00    +0.000 A 
ATOM     30  C   UNL     1      -0.584  11.975  18.743  0.00  0.00    +0.000 A 
ATOM     31  C   UNL     1       0.575  11.205  18.775  0.00  0.00    +0.000 A 
ATOM     32  F   UNL     1       1.671  11.726  19.348  0.00  0.00    +0.000 F 
ENDBRANCH  21  22
ENDBRANCH   7  21
TORSDOF 7
ENDMDL
MODEL 8
REMARK VINA RESULT:      -7.5      3.371      6.107
REMARK  Name = 
REMARK  9 active torsions:
REMARK  status: ('A' for Active; 'I' for Inactive)
REMARK    1  A    between atoms: C_1  and  C_2
REMARK    2  A    between atoms: C_2  and  N_3
REMARK    3  A    between atoms: N_3  and  C_4
REMARK    4  A    between atoms: C_4  and  N_6
REMARK    5  A    between atoms: N_6  and  N_7
REMARK    6  A    between atoms: C_8  and  C_9
REMARK    7  A    between atoms: C_8  and  C_10
REMARK    8  A    between atoms: C_16  and  C_17
REMARK    9  A    between atoms: C_17  and  C_18
REMARK                            x       y       z     vdW  Elec       q    Type
REMARK                         _______ _______ _______ _____ _____    ______ ____
ROOT
ATOM      1  C   UNL     1       1.274   8.963  20.131  0.00  0.00    +0.000 A 
ATOM      2  C   UNL     1       1.432   8.271  21.441  0.00  0.00    +0.000 A 
ATOM      3  C   UNL     1       0.858   8.840  22.511  0.00  0.00    +0.000 A 
ATOM      4  C   UNL     1       0.158  10.051  22.349  0.00  0.00    +0.000 A 
ATOM      5  N   UNL     1      -0.471  10.801  23.235  0.00  0.00    +0.000 NA
ATOM      6  C   UNL     1      -0.992  11.843  22.511  0.00  0.00    +0.000 A 
ATOM      7  C   UNL     1      -0.684  11.735  21.168  0.00  0.00    +0.000 A 
ATOM      8  N   UNL     1       0.075  10.590  21.071  0.00  0.00    +0.000 N 
ATOM      9  N   UNL     1       0.621  10.069  19.930  0.00  0.00    +0.000 NA
ENDROOT
BRANCH   1  11
ATOM     10  N   UNL     1       2.368   7.071  19.129  0.00  0.00    +0.000 NA
ATOM     11  C   UNL     1       1.935   8.283  18.935  0.00  0.00    +0.000 C 
ATOM     12  C   UNL     1       2.027   9.112  17.679  0.00  0.00    +0.000 C 
BRANCH  10  13
ATOM     13  N   UNL     1       2.968   6.389  18.110  0.00  0.00    +0.000 N 
ATOM     14  H   UNL     1       3.565   6.851  17.433  0.00  0.00    +0.000 HD
BRANCH  13  15
ATOM     15  C   UNL     1       2.880   5.015  18.019  0.00  0.00    +0.000 C 
ATOM     16  S   UNL     1       1.674   4.210  18.843  0.00  0.00    +0.000 S 
BRANCH  15  17
ATOM     17  N   UNL     1       3.806   4.459  17.179  0.00  0.00    +0.000 N 
ATOM     18  H   UNL     1       3.593   3.494  16.950  0.00  0.00    +0.000 HD
BRANCH  17  20
ATOM     19  C   UNL     1       5.774   4.128  15.769  0.00  0.00    +0.000 C 
ATOM     20  C   UNL     1       4.920   5.124  16.531  0.00  0.00    +0.000 C 
ENDBRANCH  17  20
ENDBRANCH  15  17
ENDBRANCH  13  15
ENDBRANCH  10  13
ENDBRANCH   1  11
BRANCH   7  21
ATOM     21  C   UNL     1      -1.073  12.595  20.014  0.00  0.00    +0.000 C 
BRANCH  21  22
ATOM     22  C   UNL     1      -2.439  12.265  19.463  0.00  0.00    +0.000 A 
ATOM     23  C   UNL     1      -3.610  12.691  20.107  0.00  0.00    +0.000 A 
ATOM     24  C   UNL     1      -4.872  12.484  19.514  0.00  0.00    +0.000 A 
ATOM     25  C   UNL     1      -6.055  12.952  20.102  0.00  0.00    +0.000 A 
ATOM     26  C   UNL     1      -7.267  12.802  19.435  0.00  0.00    +0.000 A 
ATOM     27  C   UNL     1      -7.258  12.161  18.211  0.00  0.00    +0.000 A 
ATOM     28  N   UNL     1      -6.146  11.655  17.635  0.00  0.00    +0.000 NA
ATOM     29  C   UNL     1      -4.973  11.823  18.270  0.00  0.00    +0.000 A 
ATOM     30  C   UNL     1      -3.814  11.350  17.679  0.00  0.00    +0.000 A 
ATOM     31  C   UNL     1      -2.569  11.575  18.261  0.00  0.00    +0.000 A 
ATOM     32  F   UNL     1      -1.478  11.116  17.629  0.00  0.00    +0.000 F 
ENDBRANCH  21  22
ENDBRANCH   7  21
TORSDOF 7
ENDMDL
MODEL 9
REMARK VINA RESULT:      -7.5      1.263      1.581
REMARK  Name = 
REMARK  9 active torsions:
REMARK  status: ('A' for Active; 'I' for Inactive)
REMARK    1  A    between atoms: C_1  and  C_2
REMARK    2  A    between atoms: C_2  and  N_3
REMARK    3  A    between atoms: N_3  and  C_4
REMARK    4  A    between atoms: C_4  and  N_6
REMARK    5  A    between atoms: N_6  and  N_7
REMARK    6  A    between atoms: C_8  and  C_9
REMARK    7  A    between atoms: C_8  and  C_10
REMARK    8  A    between atoms: C_16  and  C_17
REMARK    9  A    between atoms: C_17  and  C_18
REMARK                            x       y       z     vdW  Elec       q    Type
REMARK                         _______ _______ _______ _____ _____    ______ ____
ROOT
ATOM      1  C   UNL     1       4.680   4.101  17.463  0.00  0.00    +0.000 A 
ATOM      2  C   UNL     1       4.158   2.768  17.877  0.00  0.00    +0.000 A 
ATOM      3  C   UNL     1       3.131   2.749  18.739  0.00  0.00    +0.000 A 
ATOM      4  C   UNL     1       2.614   3.969  19.215  0.00  0.00    +0.000 A 
ATOM      5  N   UNL     1       1.633   4.209  20.064  0.00  0.00    +0.000 NA
ATOM      6  C   UNL     1       1.551   5.577  20.132  0.00  0.00    +0.000 A 
ATOM      7  C   UNL     1       2.486   6.185  19.318  0.00  0.00    +0.000 A 
ATOM      8  N   UNL     1       3.184   5.146  18.744  0.00  0.00    +0.000 N 
ATOM      9  N   UNL     1       4.222   5.251  17.860  0.00  0.00    +0.000 NA
ENDROOT
BRANCH   1  11
ATOM     10  N   UNL     1       5.567   3.689  15.268  0.00  0.00    +0.000 NA
ATOM     11  C   UNL     1       5.844   4.084  16.477  0.00  0.00    +0.000 C 
ATOM     12  C   UNL     1       7.180   4.504  17.033  0.00  0.00    +0.000 C 
BRANCH  10  13
ATOM     13  N   UNL     1       6.550   3.648  14.321  0.00  0.00    +0.000 N 
ATOM     14  H   UNL     1       7.479   3.300  14.527  0.00  0.00    +0.000 HD
BRANCH  13  15
ATOM     15  C   UNL     1       6.290   3.976  13.006  0.00  0.00    +0.000 C 
ATOM     16  S   UNL     1       7.430   4.812  12.123  0.00  0.00    +0.000 S 
BRANCH  15  17
ATOM     17  N   UNL     1       5.091   3.503  12.548  0.00  0.00    +0.000 N 
ATOM     18  H   UNL     1       4.300   3.895  13.049  0.00  0.00    +0.000 HD
BRANCH  17  20
ATOM     19  C   UNL     1       5.913   1.554  11.323  0.00  0.00    +0.000 C 
ATOM     20  C   UNL     1       4.860   2.645  11.401  0.00  0.00    +0.000 C 
ENDBRANCH  17  20
ENDBRANCH  15  17
ENDBRANCH  13  15
ENDBRANCH  10  13
ENDBRANCH   1  11
BRANCH   7  21
ATOM     21  C   UNL     1       2.732   7.628  19.036  0.00  0.00    +0.000 C 
BRANCH  21  22
ATOM     22  C   UNL     1       1.653   8.531  19.583  0.00  0.00    +0.000 A 
ATOM     23  C   UNL     1       1.249   8.459  20.925  0.00  0.00    +0.000 A 
ATOM     24  C   UNL     1       0.333   9.393  21.450  0.00  0.00    +0.000 A 
ATOM     25  C   UNL     1      -0.044   9.386  22.800  0.00  0.00    +0.000 A 
ATOM     26  C   UNL     1      -0.882  10.381  23.291  0.00  0.00    +0.000 A 
ATOM     27  C   UNL     1      -1.341  11.336  22.405  0.00  0.00    +0.000 A 
ATOM     28  N   UNL     1      -1.040  11.349  21.088  0.00  0.00    +0.000 NA
ATOM     29  C   UNL     1      -0.210  10.400  20.621  0.00  0.00    +0.000 A 
ATOM     30  C   UNL     1       0.147  10.417  19.284  0.00  0.00    +0.000 A 
ATOM     31  C   UNL     1       1.068   9.504  18.777  0.00  0.00    +0.000 A 
ATOM     32  F   UNL     1       1.396   9.585  17.478  0.00  0.00    +0.000 F 
ENDBRANCH  21  22
ENDBRANCH   7  21
TORSDOF 7
ENDMDL
