MODEL 1
REMARK VINA RESULT:      -7.6      0.000      0.000
REMARK  Name = 
REMARK  10 active torsions:
REMARK  status: ('A' for Active; 'I' for Inactive)
REMARK    1  A    between atoms: C_1  and  C_2
REMARK    2  A    between atoms: C_2  and  O_3
REMARK    3  A    between atoms: C_2  and  C_4
REMARK    4  A    between atoms: C_4  and  N_5
REMARK    5  A    between atoms: C_4  and  C_17
REMARK    6  A    between atoms: C_6  and  C_8
REMARK    7  A    between atoms: C_8  and  C_9
REMARK    8  A    between atoms: N_19  and  C_20
REMARK    9  A    between atoms: C_20  and  C_21
REMARK   10  A    between atoms: C_25  and  C_26
REMARK                            x       y       z     vdW  Elec       q    Type
REMARK                         _______ _______ _______ _____ _____    ______ ____
ROOT
ATOM      1  C   UNL     1       6.940   6.336  16.844  0.00  0.00    +0.000 C 
ENDROOT
BRANCH   1   2
ATOM      2  N   UNL     1       7.746   6.916  17.925  0.00  0.00    +0.000 N 
ATOM      3  C   UNL     1       7.974   8.271  18.010  0.00  0.00    +0.000 C 
ATOM      4  O   UNL     1       7.503   9.058  17.195  0.00  0.00    +0.000 OA
ATOM      5  H   UNL     1       8.011   6.297  18.682  0.00  0.00    +0.000 HD
BRANCH   3   6
ATOM      6  C   UNL     1       8.898   8.699  19.140  0.00  0.00    +0.000 C 
BRANCH   6   7
ATOM      7  C   UNL     1       9.359  10.139  19.160  0.00  0.00    +0.000 A 
ATOM      8  C   UNL     1       9.921  10.799  18.058  0.00  0.00    +0.000 A 
ATOM      9  C   UNL     1      10.300  12.145  18.162  0.00  0.00    +0.000 A 
ATOM     10 CL   UNL     1      10.776  13.037  16.765  0.00  0.00    +0.000 Cl
ATOM     11  C   UNL     1      10.283  12.803  19.384  0.00  0.00    +0.000 A 
ATOM     12  C   UNL     1       9.666  12.186  20.459  0.00  0.00    +0.000 A 
ATOM     13 CL   UNL     1       9.485  13.049  21.935  0.00  0.00    +0.000 Cl
ATOM     14  C   UNL     1       9.159  10.889  20.335  0.00  0.00    +0.000 A 
ENDBRANCH   6   7
ENDBRANCH   3   6
ENDBRANCH   1   2
BRANCH   1  15
ATOM     15  C   UNL     1       5.444   6.552  17.158  0.00  0.00    +0.000 C 
ATOM     16  O   UNL     1       4.659   7.028  16.336  0.00  0.00    +0.000 OA
ATOM     17  N   UNL     1       5.053   6.130  18.408  0.00  0.00    +0.000 N 
ATOM     18  H   UNL     1       5.677   5.513  18.922  0.00  0.00    +0.000 HD
BRANCH  17  19
ATOM     19  C   UNL     1       3.678   6.226  18.863  0.00  0.00    +0.000 C 
BRANCH  19  20
ATOM     20  C   UNL     1       2.922   4.911  18.932  0.00  0.00    +0.000 A 
ATOM     21  C   UNL     1       2.254   4.469  17.800  0.00  0.00    +0.000 A 
ATOM     22  C   UNL     1       1.547   3.286  17.910  0.00  0.00    +0.000 A 
ATOM     23  N   UNL     1       1.404   2.628  19.060  0.00  0.00    +0.000 NA
ATOM     24  C   UNL     1       1.983   3.208  20.134  0.00  0.00    +0.000 A 
ATOM     25  N   UNL     1       2.787   4.289  20.120  0.00  0.00    +0.000 NA
BRANCH  24  26
ATOM     26  C   UNL     1       1.533   2.725  21.401  0.00  0.00    +0.000 C 
ATOM     27  N   UNL     1       1.192   2.333  22.458  0.00  0.00    +0.000 NA
ENDBRANCH  24  26
ENDBRANCH  19  20
ENDBRANCH  17  19
ENDBRANCH   1  15
BRANCH   1  29
ATOM     28  C   UNL     1       6.315   4.085  15.779  0.00  0.00    +0.000 C 
ATOM     29  C   UNL     1       7.289   4.838  16.679  0.00  0.00    +0.000 C 
BRANCH  29  30
ATOM     30  O   UNL     1       7.390   4.167  17.939  0.00  0.00    +0.000 OA
ATOM     31  H   UNL     1       7.577   3.224  17.750  0.00  0.00    +0.000 HD
ENDBRANCH  29  30
ENDBRANCH   1  29
TORSDOF 9
ENDMDL
MODEL 2
REMARK VINA RESULT:      -7.4      4.811      7.609
REMARK  Name = 
REMARK  10 active torsions:
REMARK  status: ('A' for Active; 'I' for Inactive)
REMARK    1  A    between atoms: C_1  and  C_2
REMARK    2  A    between atoms: C_2  and  O_3
REMARK    3  A    between atoms: C_2  and  C_4
REMARK    4  A    between atoms: C_4  and  N_5
REMARK    5  A    between atoms: C_4  and  C_17
REMARK    6  A    between atoms: C_6  and  C_8
REMARK    7  A    between atoms: C_8  and  C_9
REMARK    8  A    between atoms: N_19  and  C_20
REMARK    9  A    between atoms: C_20  and  C_21
REMARK   10  A    between atoms: C_25  and  C_26
REMARK                            x       y       z     vdW  Elec       q    Type
REMARK                         _______ _______ _______ _____ _____    ______ ____
ROOT
ATOM      1  C   UNL     1       1.658   5.096  19.601  0.00  0.00    +0.000 C 
ENDROOT
BRANCH   1   2
ATOM      2  N   UNL     1       2.758   4.436  18.887  0.00  0.00    +0.000 N 
ATOM      3  C   UNL     1       2.558   3.790  17.688  0.00  0.00    +0.000 C 
ATOM      4  O   UNL     1       1.454   3.749  17.153  0.00  0.00    +0.000 OA
ATOM      5  H   UNL     1       3.694   4.593  19.242  0.00  0.00    +0.000 HD
BRANCH   3   6
ATOM      6  C   UNL     1       3.782   3.086  17.124  0.00  0.00    +0.000 C 
BRANCH   6   7
ATOM      7  C   UNL     1       5.028   3.915  16.907  0.00  0.00    +0.000 A 
ATOM      8  C   UNL     1       5.720   4.575  17.932  0.00  0.00    +0.000 A 
ATOM      9  C   UNL     1       6.882   5.304  17.639  0.00  0.00    +0.000 A 
ATOM     10 CL   UNL     1       7.873   5.928  18.906  0.00  0.00    +0.000 Cl
ATOM     11  C   UNL     1       7.280   5.525  16.328  0.00  0.00    +0.000 A 
ATOM     12  C   UNL     1       6.648   4.822  15.317  0.00  0.00    +0.000 A 
ATOM     13 CL   UNL     1       7.234   4.953  13.706  0.00  0.00    +0.000 Cl
ATOM     14  C   UNL     1       5.569   3.982  15.608  0.00  0.00    +0.000 A 
ENDBRANCH   6   7
ENDBRANCH   3   6
ENDBRANCH   1   2
BRANCH   1  15
ATOM     15  C   UNL     1       2.118   6.501  20.045  0.00  0.00    +0.000 C 
ATOM     16  O   UNL     1       3.071   7.081  19.520  0.00  0.00    +0.000 OA
ATOM     17  N   UNL     1       1.353   7.069  21.038  0.00  0.00    +0.000 N 
ATOM     18  H   UNL     1       0.442   6.662  21.232  0.00  0.00    +0.000 HD
BRANCH  17  19
ATOM     19  C   UNL     1       1.620   8.398  21.558  0.00  0.00    +0.000 C 
BRANCH  19  20
ATOM     20  C   UNL     1       0.657   9.480  21.099  0.00  0.00    +0.000 A 
ATOM     21  C   UNL     1       0.017  10.250  22.059  0.00  0.00    +0.000 A 
ATOM     22  C   UNL     1      -0.879  11.200  21.607  0.00  0.00    +0.000 A 
ATOM     23  N   UNL     1      -1.217  11.329  20.324  0.00  0.00    +0.000 NA
ATOM     24  C   UNL     1      -0.637  10.446  19.481  0.00  0.00    +0.000 A 
ATOM     25  N   UNL     1       0.330   9.561  19.794  0.00  0.00    +0.000 NA
BRANCH  24  26
ATOM     26  C   UNL     1      -1.258  10.333  18.199  0.00  0.00    +0.000 C 
ATOM     27  N   UNL     1      -1.757  10.209  17.140  0.00  0.00    +0.000 NA
ENDBRANCH  24  26
ENDBRANCH  19  20
ENDBRANCH  17  19
ENDBRANCH   1  15
BRANCH   1  29
ATOM     28  C   UNL     1       2.382   3.678  21.614  0.00  0.00    +0.000 C 
ATOM     29  C   UNL     1       1.216   4.225  20.800  0.00  0.00    +0.000 C 
BRANCH  29  30
ATOM     30  O   UNL     1       0.367   3.145  20.396  0.00  0.00    +0.000 OA
ATOM     31  H   UNL     1       0.946   2.446  20.023  0.00  0.00    +0.000 HD
ENDBRANCH  29  30
ENDBRANCH   1  29
TORSDOF 9
ENDMDL
MODEL 3
REMARK VINA RESULT:      -7.4      7.178      9.651
REMARK  Name = 
REMARK  10 active torsions:
REMARK  status: ('A' for Active; 'I' for Inactive)
REMARK    1  A    between atoms: C_1  and  C_2
REMARK    2  A    between atoms: C_2  and  O_3
REMARK    3  A    between atoms: C_2  and  C_4
REMARK    4  A    between atoms: C_4  and  N_5
REMARK    5  A    between atoms: C_4  and  C_17
REMARK    6  A    between atoms: C_6  and  C_8
REMARK    7  A    between atoms: C_8  and  C_9
REMARK    8  A    between atoms: N_19  and  C_20
REMARK    9  A    between atoms: C_20  and  C_21
REMARK   10  A    between atoms: C_25  and  C_26
REMARK                            x       y       z     vdW  Elec       q    Type
REMARK                         _______ _______ _______ _____ _____    ______ ____
ROOT
ATOM      1  C   UNL     1       0.693   9.856  20.396  0.00  0.00    +0.000 C 
ENDROOT
BRANCH   1   2
ATOM      2  N   UNL     1      -0.605  10.517  20.217  0.00  0.00    +0.000 N 
ATOM      3  C   UNL     1      -0.705  11.877  20.036  0.00  0.00    +0.000 C 
ATOM      4  O   UNL     1       0.287  12.599  20.001  0.00  0.00    +0.000 OA
ATOM      5  H   UNL     1      -1.412   9.916  20.093  0.00  0.00    +0.000 HD
BRANCH   3   6
ATOM      6  C   UNL     1      -2.126  12.413  19.951  0.00  0.00    +0.000 C 
BRANCH   6   7
ATOM      7  C   UNL     1      -2.974  11.965  18.781  0.00  0.00    +0.000 A 
ATOM      8  C   UNL     1      -2.452  11.504  17.564  0.00  0.00    +0.000 A 
ATOM      9  C   UNL     1      -3.317  11.087  16.542  0.00  0.00    +0.000 A 
ATOM     10 CL   UNL     1      -2.703  10.304  15.133  0.00  0.00    +0.000 Cl
ATOM     11  C   UNL     1      -4.689  11.272  16.642  0.00  0.00    +0.000 A 
ATOM     12  C   UNL     1      -5.217  11.659  17.861  0.00  0.00    +0.000 A 
ATOM     13 CL   UNL     1      -6.924  11.732  18.054  0.00  0.00    +0.000 Cl
ATOM     14  C   UNL     1      -4.374  11.950  18.937  0.00  0.00    +0.000 A 
ENDBRANCH   6   7
ENDBRANCH   3   6
ENDBRANCH   1   2
BRANCH   1  15
ATOM     15  C   UNL     1       1.165   9.294  19.038  0.00  0.00    +0.000 C 
ATOM     16  O   UNL     1       0.783   9.760  17.962  0.00  0.00    +0.000 OA
ATOM     17  N   UNL     1       2.074   8.264  19.126  0.00  0.00    +0.000 N 
ATOM     18  H   UNL     1       2.540   8.113  20.016  0.00  0.00    +0.000 HD
BRANCH  17  19
ATOM     19  C   UNL     1       2.648   7.635  17.950  0.00  0.00    +0.000 C 
BRANCH  19  20
ATOM     20  C   UNL     1       3.450   6.373  18.215  0.00  0.00    +0.000 A 
ATOM     21  C   UNL     1       3.203   5.661  19.379  0.00  0.00    +0.000 A 
ATOM     22  C   UNL     1       3.977   4.538  19.605  0.00  0.00    +0.000 A 
ATOM     23  N   UNL     1       4.992   4.183  18.817  0.00  0.00    +0.000 NA
ATOM     24  C   UNL     1       5.237   5.015  17.780  0.00  0.00    +0.000 A 
ATOM     25  N   UNL     1       4.480   6.064  17.402  0.00  0.00    +0.000 NA
BRANCH  24  26
ATOM     26  C   UNL     1       6.517   4.857  17.165  0.00  0.00    +0.000 C 
ATOM     27  N   UNL     1       7.561   4.746  16.633  0.00  0.00    +0.000 NA
ENDBRANCH  24  26
ENDBRANCH  19  20
ENDBRANCH  17  19
ENDBRANCH   1  15
BRANCH   1  29
ATOM     28  C   UNL     1      -0.278   9.158  22.668  0.00  0.00    +0.000 C 
ATOM     29  C   UNL     1       0.573   8.750  21.471  0.00  0.00    +0.000 C 
BRANCH  29  30
ATOM     30  O   UNL     1       1.854   8.301  21.926  0.00  0.00    +0.000 OA
ATOM     31  H   UNL     1       2.123   8.893  22.660  0.00  0.00    +0.000 HD
ENDBRANCH  29  30
ENDBRANCH   1  29
TORSDOF 9
ENDMDL
MODEL 4
REMARK VINA RESULT:      -7.3      7.215      9.442
REMARK  Name = 
REMARK  10 active torsions:
REMARK  status: ('A' for Active; 'I' for Inactive)
REMARK    1  A    between atoms: C_1  and  C_2
REMARK    2  A    between atoms: C_2  and  O_3
REMARK    3  A    between atoms: C_2  and  C_4
REMARK    4  A    between atoms: C_4  and  N_5
REMARK    5  A    between atoms: C_4  and  C_17
REMARK    6  A    between atoms: C_6  and  C_8
REMARK    7  A    between atoms: C_8  and  C_9
REMARK    8  A    between atoms: N_19  and  C_20
REMARK    9  A    between atoms: C_20  and  C_21
REMARK   10  A    between atoms: C_25  and  C_26
REMARK                            x       y       z     vdW  Elec       q    Type
REMARK                         _______ _______ _______ _____ _____    ______ ____
ROOT
ATOM      1  C   UNL     1       0.677   9.937  20.479  0.00  0.00    +0.000 C 
ENDROOT
BRANCH   1   2
ATOM      2  N   UNL     1      -0.650  10.536  20.301  0.00  0.00    +0.000 N 
ATOM      3  C   UNL     1      -0.818  11.896  20.170  0.00  0.00    +0.000 C 
ATOM      4  O   UNL     1       0.135  12.669  20.181  0.00  0.00    +0.000 OA
ATOM      5  H   UNL     1      -1.423   9.901  20.140  0.00  0.00    +0.000 HD
BRANCH   3   6
ATOM      6  C   UNL     1      -2.263  12.361  20.079  0.00  0.00    +0.000 C 
BRANCH   6   7
ATOM      7  C   UNL     1      -3.063  11.930  18.870  0.00  0.00    +0.000 A 
ATOM      8  C   UNL     1      -2.492  11.516  17.659  0.00  0.00    +0.000 A 
ATOM      9  C   UNL     1      -3.313  11.111  16.596  0.00  0.00    +0.000 A 
ATOM     10 CL   UNL     1      -2.636  10.383  15.187  0.00  0.00    +0.000 Cl
ATOM     11  C   UNL     1      -4.692  11.263  16.657  0.00  0.00    +0.000 A 
ATOM     12  C   UNL     1      -5.268  11.603  17.869  0.00  0.00    +0.000 A 
ATOM     13 CL   UNL     1      -6.981  11.632  18.008  0.00  0.00    +0.000 Cl
ATOM     14  C   UNL     1      -4.466  11.879  18.980  0.00  0.00    +0.000 A 
ENDBRANCH   6   7
ENDBRANCH   3   6
ENDBRANCH   1   2
BRANCH   1  15
ATOM     15  C   UNL     1       1.143   9.336  19.135  0.00  0.00    +0.000 C 
ATOM     16  O   UNL     1       0.810   9.813  18.049  0.00  0.00    +0.000 OA
ATOM     17  N   UNL     1       1.990   8.257  19.251  0.00  0.00    +0.000 N 
ATOM     18  H   UNL     1       2.429   8.088  20.152  0.00  0.00    +0.000 HD
BRANCH  17  19
ATOM     19  C   UNL     1       2.551   7.585  18.093  0.00  0.00    +0.000 C 
BRANCH  19  20
ATOM     20  C   UNL     1       2.911   6.124  18.300  0.00  0.00    +0.000 A 
ATOM     21  C   UNL     1       4.206   5.713  18.024  0.00  0.00    +0.000 A 
ATOM     22  C   UNL     1       4.488   4.370  18.189  0.00  0.00    +0.000 A 
ATOM     23  N   UNL     1       3.559   3.464  18.496  0.00  0.00    +0.000 NA
ATOM     24  C   UNL     1       2.301   3.943  18.616  0.00  0.00    +0.000 A 
ATOM     25  N   UNL     1       1.935   5.240  18.591  0.00  0.00    +0.000 NA
BRANCH  24  26
ATOM     26  C   UNL     1       1.270   2.956  18.575  0.00  0.00    +0.000 C 
ATOM     27  N   UNL     1       0.437   2.124  18.562  0.00  0.00    +0.000 NA
ENDBRANCH  24  26
ENDBRANCH  19  20
ENDBRANCH  17  19
ENDBRANCH   1  15
BRANCH   1  29
ATOM     28  C   UNL     1      -0.366   9.212  22.710  0.00  0.00    +0.000 C 
ATOM     29  C   UNL     1       0.625   8.874  21.602  0.00  0.00    +0.000 C 
BRANCH  29  30
ATOM     30  O   UNL     1       1.915   8.631  22.173  0.00  0.00    +0.000 OA
ATOM     31  H   UNL     1       1.908   7.716  22.525  0.00  0.00    +0.000 HD
ENDBRANCH  29  30
ENDBRANCH   1  29
TORSDOF 9
ENDMDL
MODEL 5
REMARK VINA RESULT:      -7.3      8.556     10.239
REMARK  Name = 
REMARK  10 active torsions:
REMARK  status: ('A' for Active; 'I' for Inactive)
REMARK    1  A    between atoms: C_1  and  C_2
REMARK    2  A    between atoms: C_2  and  O_3
REMARK    3  A    between atoms: C_2  and  C_4
REMARK    4  A    between atoms: C_4  and  N_5
REMARK    5  A    between atoms: C_4  and  C_17
REMARK    6  A    between atoms: C_6  and  C_8
REMARK    7  A    between atoms: C_8  and  C_9
REMARK    8  A    between atoms: N_19  and  C_20
REMARK    9  A    between atoms: C_20  and  C_21
REMARK   10  A    between atoms: C_25  and  C_26
REMARK                            x       y       z     vdW  Elec       q    Type
REMARK                         _______ _______ _______ _____ _____    ______ ____
ROOT
ATOM      1  C   UNL     1      -0.963  10.644  18.279  0.00  0.00    +0.000 C 
ENDROOT
BRANCH   1   2
ATOM      2  N   UNL     1       0.209   9.972  17.707  0.00  0.00    +0.000 N 
ATOM      3  C   UNL     1       1.196   9.435  18.502  0.00  0.00    +0.000 C 
ATOM      4  O   UNL     1       1.135   9.480  19.727  0.00  0.00    +0.000 OA
ATOM      5  H   UNL     1       0.195   9.797  16.709  0.00  0.00    +0.000 HD
BRANCH   3   6
ATOM      6  C   UNL     1       2.382   8.850  17.751  0.00  0.00    +0.000 C 
BRANCH   6   7
ATOM      7  C   UNL     1       2.845   7.464  18.143  0.00  0.00    +0.000 A 
ATOM      8  C   UNL     1       3.858   6.758  17.479  0.00  0.00    +0.000 A 
ATOM      9  C   UNL     1       4.237   5.485  17.928  0.00  0.00    +0.000 A 
ATOM     10 CL   UNL     1       5.627   4.699  17.276  0.00  0.00    +0.000 Cl
ATOM     11  C   UNL     1       3.521   4.831  18.921  0.00  0.00    +0.000 A 
ATOM     12  C   UNL     1       2.568   5.544  19.629  0.00  0.00    +0.000 A 
ATOM     13 CL   UNL     1       1.789   4.806  20.971  0.00  0.00    +0.000 Cl
ATOM     14  C   UNL     1       2.271   6.865  19.281  0.00  0.00    +0.000 A 
ENDBRANCH   6   7
ENDBRANCH   3   6
ENDBRANCH   1   2
BRANCH   1  15
ATOM     15  C   UNL     1      -2.136  10.551  17.280  0.00  0.00    +0.000 C 
ATOM     16  O   UNL     1      -2.101   9.819  16.289  0.00  0.00    +0.000 OA
ATOM     17  N   UNL     1      -3.232  11.315  17.608  0.00  0.00    +0.000 N 
ATOM     18  H   UNL     1      -3.298  11.676  18.556  0.00  0.00    +0.000 HD
BRANCH  17  19
ATOM     19  C   UNL     1      -4.438  11.328  16.799  0.00  0.00    +0.000 C 
BRANCH  19  20
ATOM     20  C   UNL     1      -5.691  11.811  17.508  0.00  0.00    +0.000 A 
ATOM     21  C   UNL     1      -6.315  12.959  17.045  0.00  0.00    +0.000 A 
ATOM     22  C   UNL     1      -7.432  13.390  17.737  0.00  0.00    +0.000 A 
ATOM     23  N   UNL     1      -7.857  12.815  18.862  0.00  0.00    +0.000 NA
ATOM     24  C   UNL     1      -7.105  11.783  19.304  0.00  0.00    +0.000 A 
ATOM     25  N   UNL     1      -6.073  11.211  18.653  0.00  0.00    +0.000 NA
BRANCH  24  26
ATOM     26  C   UNL     1      -7.326  11.411  20.666  0.00  0.00    +0.000 C 
ATOM     27  N   UNL     1      -7.487  11.128  21.797  0.00  0.00    +0.000 NA
ENDBRANCH  24  26
ENDBRANCH  19  20
ENDBRANCH  17  19
ENDBRANCH   1  15
BRANCH   1  29
ATOM     28  C   UNL     1      -1.200  12.581  19.946  0.00  0.00    +0.000 C 
ATOM     29  C   UNL     1      -0.609  12.110  18.624  0.00  0.00    +0.000 C 
BRANCH  29  30
ATOM     30  O   UNL     1      -0.989  13.014  17.581  0.00  0.00    +0.000 OA
ATOM     31  H   UNL     1      -1.815  13.456  17.869  0.00  0.00    +0.000 HD
ENDBRANCH  29  30
ENDBRANCH   1  29
TORSDOF 9
ENDMDL
MODEL 6
REMARK VINA RESULT:      -7.2      7.299      9.486
REMARK  Name = 
REMARK  10 active torsions:
REMARK  status: ('A' for Active; 'I' for Inactive)
REMARK    1  A    between atoms: C_1  and  C_2
REMARK    2  A    between atoms: C_2  and  O_3
REMARK    3  A    between atoms: C_2  and  C_4
REMARK    4  A    between atoms: C_4  and  N_5
REMARK    5  A    between atoms: C_4  and  C_17
REMARK    6  A    between atoms: C_6  and  C_8
REMARK    7  A    between atoms: C_8  and  C_9
REMARK    8  A    between atoms: N_19  and  C_20
REMARK    9  A    between atoms: C_20  and  C_21
REMARK   10  A    between atoms: C_25  and  C_26
REMARK                            x       y       z     vdW  Elec       q    Type
REMARK                         _______ _______ _______ _____ _____    ______ ____
ROOT
ATOM      1  C   UNL     1       0.702   8.845  20.719  0.00  0.00    +0.000 C 
ENDROOT
BRANCH   1   2
ATOM      2  N   UNL     1       1.898   8.424  19.981  0.00  0.00    +0.000 N 
ATOM      3  C   UNL     1       1.925   8.389  18.605  0.00  0.00    +0.000 C 
ATOM      4  O   UNL     1       0.955   8.722  17.932  0.00  0.00    +0.000 OA
ATOM      5  H   UNL     1       2.747   8.294  20.520  0.00  0.00    +0.000 HD
BRANCH   3   6
ATOM      6  C   UNL     1       3.211   7.849  18.000  0.00  0.00    +0.000 C 
BRANCH   6   7
ATOM      7  C   UNL     1       3.304   6.357  17.768  0.00  0.00    +0.000 A 
ATOM      8  C   UNL     1       2.355   5.432  18.224  0.00  0.00    +0.000 A 
ATOM      9  C   UNL     1       2.512   4.067  17.942  0.00  0.00    +0.000 A 
ATOM     10 CL   UNL     1       1.250   2.945  18.290  0.00  0.00    +0.000 Cl
ATOM     11  C   UNL     1       3.674   3.584  17.357  0.00  0.00    +0.000 A 
ATOM     12  C   UNL     1       4.583   4.493  16.840  0.00  0.00    +0.000 A 
ATOM     13 CL   UNL     1       5.945   3.917  15.964  0.00  0.00    +0.000 Cl
ATOM     14  C   UNL     1       4.374   5.866  16.994  0.00  0.00    +0.000 A 
ENDBRANCH   6   7
ENDBRANCH   3   6
ENDBRANCH   1   2
BRANCH   1  15
ATOM     15  C   UNL     1       0.272  10.244  20.228  0.00  0.00    +0.000 C 
ATOM     16  O   UNL     1       1.010  11.228  20.313  0.00  0.00    +0.000 OA
ATOM     17  N   UNL     1      -0.976  10.293  19.651  0.00  0.00    +0.000 N 
ATOM     18  H   UNL     1      -1.410   9.416  19.374  0.00  0.00    +0.000 HD
BRANCH  17  19
ATOM     19  C   UNL     1      -1.530  11.519  19.106  0.00  0.00    +0.000 C 
BRANCH  19  20
ATOM     20  C   UNL     1      -2.549  11.334  17.995  0.00  0.00    +0.000 A 
ATOM     21  C   UNL     1      -2.104  10.931  16.745  0.00  0.00    +0.000 A 
ATOM     22  C   UNL     1      -3.054  10.808  15.749  0.00  0.00    +0.000 A 
ATOM     23  N   UNL     1      -4.331  11.153  15.914  0.00  0.00    +0.000 NA
ATOM     24  C   UNL     1      -4.640  11.659  17.129  0.00  0.00    +0.000 A 
ATOM     25  N   UNL     1      -3.826  11.714  18.201  0.00  0.00    +0.000 NA
BRANCH  24  26
ATOM     26  C   UNL     1      -5.883  12.360  17.196  0.00  0.00    +0.000 C 
ATOM     27  N   UNL     1      -6.894  12.960  17.272  0.00  0.00    +0.000 NA
ENDBRANCH  24  26
ENDBRANCH  19  20
ENDBRANCH  17  19
ENDBRANCH   1  15
BRANCH   1  29
ATOM     28  C   UNL     1      -0.130   9.432  23.076  0.00  0.00    +0.000 C 
ATOM     29  C   UNL     1       0.991   8.827  22.238  0.00  0.00    +0.000 C 
BRANCH  29  30
ATOM     30  O   UNL     1       2.228   9.473  22.558  0.00  0.00    +0.000 OA
ATOM     31  H   UNL     1       2.373   9.360  23.521  0.00  0.00    +0.000 HD
ENDBRANCH  29  30
ENDBRANCH   1  29
TORSDOF 9
ENDMDL
MODEL 7
REMARK VINA RESULT:      -7.2      4.187      7.196
REMARK  Name = 
REMARK  10 active torsions:
REMARK  status: ('A' for Active; 'I' for Inactive)
REMARK    1  A    between atoms: C_1  and  C_2
REMARK    2  A    between atoms: C_2  and  O_3
REMARK    3  A    between atoms: C_2  and  C_4
REMARK    4  A    between atoms: C_4  and  N_5
REMARK    5  A    between atoms: C_4  and  C_17
REMARK    6  A    between atoms: C_6  and  C_8
REMARK    7  A    between atoms: C_8  and  C_9
REMARK    8  A    between atoms: N_19  and  C_20
REMARK    9  A    between atoms: C_20  and  C_21
REMARK   10  A    between atoms: C_25  and  C_26
REMARK                            x       y       z     vdW  Elec       q    Type
REMARK                         _______ _______ _______ _____ _____    ______ ____
ROOT
ATOM      1  C   UNL     1       2.633   3.956  20.064  0.00  0.00    +0.000 C 
ENDROOT
BRANCH   1   2
ATOM      2  N   UNL     1       2.026   5.059  19.310  0.00  0.00    +0.000 N 
ATOM      3  C   UNL     1       2.707   6.230  19.067  0.00  0.00    +0.000 C 
ATOM      4  O   UNL     1       3.858   6.402  19.457  0.00  0.00    +0.000 OA
ATOM      5  H   UNL     1       1.140   4.871  18.857  0.00  0.00    +0.000 HD
BRANCH   3   6
ATOM      6  C   UNL     1       1.906   7.303  18.346  0.00  0.00    +0.000 C 
BRANCH   6   7
ATOM      7  C   UNL     1       1.518   8.535  19.133  0.00  0.00    +0.000 A 
ATOM      8  C   UNL     1       1.399   9.817  18.577  0.00  0.00    +0.000 A 
ATOM      9  C   UNL     1       1.011  10.899  19.381  0.00  0.00    +0.000 A 
ATOM     10 CL   UNL     1       0.637  12.428  18.678  0.00  0.00    +0.000 Cl
ATOM     11  C   UNL     1       0.897  10.765  20.757  0.00  0.00    +0.000 A 
ATOM     12  C   UNL     1       0.943   9.495  21.306  0.00  0.00    +0.000 A 
ATOM     13 CL   UNL     1       0.636   9.291  22.985  0.00  0.00    +0.000 Cl
ATOM     14  C   UNL     1       1.195   8.384  20.496  0.00  0.00    +0.000 A 
ENDBRANCH   6   7
ENDBRANCH   3   6
ENDBRANCH   1   2
BRANCH   1  15
ATOM     15  C   UNL     1       3.830   3.398  19.265  0.00  0.00    +0.000 C 
ATOM     16  O   UNL     1       4.806   2.879  19.813  0.00  0.00    +0.000 OA
ATOM     17  N   UNL     1       3.701   3.486  17.898  0.00  0.00    +0.000 N 
ATOM     18  H   UNL     1       2.777   3.672  17.516  0.00  0.00    +0.000 HD
BRANCH  17  19
ATOM     19  C   UNL     1       4.715   2.984  16.989  0.00  0.00    +0.000 C 
BRANCH  19  20
ATOM     20  C   UNL     1       5.646   4.035  16.410  0.00  0.00    +0.000 A 
ATOM     21  C   UNL     1       6.258   3.782  15.191  0.00  0.00    +0.000 A 
ATOM     22  C   UNL     1       7.127   4.744  14.713  0.00  0.00    +0.000 A 
ATOM     23  N   UNL     1       7.468   5.828  15.410  0.00  0.00    +0.000 NA
ATOM     24  C   UNL     1       6.920   5.919  16.642  0.00  0.00    +0.000 A 
ATOM     25  N   UNL     1       5.978   5.105  17.159  0.00  0.00    +0.000 NA
BRANCH  24  26
ATOM     26  C   UNL     1       7.551   6.854  17.519  0.00  0.00    +0.000 C 
ATOM     27  N   UNL     1       8.100   7.609  18.237  0.00  0.00    +0.000 NA
ENDBRANCH  24  26
ENDBRANCH  19  20
ENDBRANCH  17  19
ENDBRANCH   1  15
BRANCH   1  29
ATOM     28  C   UNL     1       0.492   2.780  19.276  0.00  0.00    +0.000 C 
ATOM     29  C   UNL     1       1.570   2.870  20.350  0.00  0.00    +0.000 C 
BRANCH  29  30
ATOM     30  O   UNL     1       0.954   3.044  21.631  0.00  0.00    +0.000 OA
ATOM     31  H   UNL     1       1.585   2.709  22.303  0.00  0.00    +0.000 HD
ENDBRANCH  29  30
ENDBRANCH   1  29
TORSDOF 9
ENDMDL
MODEL 8
REMARK VINA RESULT:      -7.1      4.666      7.299
REMARK  Name = 
REMARK  10 active torsions:
REMARK  status: ('A' for Active; 'I' for Inactive)
REMARK    1  A    between atoms: C_1  and  C_2
REMARK    2  A    between atoms: C_2  and  O_3
REMARK    3  A    between atoms: C_2  and  C_4
REMARK    4  A    between atoms: C_4  and  N_5
REMARK    5  A    between atoms: C_4  and  C_17
REMARK    6  A    between atoms: C_6  and  C_8
REMARK    7  A    between atoms: C_8  and  C_9
REMARK    8  A    between atoms: N_19  and  C_20
REMARK    9  A    between atoms: C_20  and  C_21
REMARK   10  A    between atoms: C_25  and  C_26
REMARK                            x       y       z     vdW  Elec       q    Type
REMARK                         _______ _______ _______ _____ _____    ______ ____
ROOT
ATOM      1  C   UNL     1       1.702   4.597  19.538  0.00  0.00    +0.000 C 
ENDROOT
BRANCH   1   2
ATOM      2  N   UNL     1       2.918   4.076  18.902  0.00  0.00    +0.000 N 
ATOM      3  C   UNL     1       2.893   3.512  17.647  0.00  0.00    +0.000 C 
ATOM      4  O   UNL     1       1.857   3.432  16.995  0.00  0.00    +0.000 OA
ATOM      5  H   UNL     1       3.797   4.272  19.366  0.00  0.00    +0.000 HD
BRANCH   3   6
ATOM      6  C   UNL     1       4.221   2.944  17.170  0.00  0.00    +0.000 C 
BRANCH   6   7
ATOM      7  C   UNL     1       5.336   3.923  16.876  0.00  0.00    +0.000 A 
ATOM      8  C   UNL     1       5.935   4.743  17.843  0.00  0.00    +0.000 A 
ATOM      9  C   UNL     1       6.981   5.606  17.482  0.00  0.00    +0.000 A 
ATOM     10 CL   UNL     1       7.883   6.449  18.687  0.00  0.00    +0.000 Cl
ATOM     11  C   UNL     1       7.333   5.790  16.153  0.00  0.00    +0.000 A 
ATOM     12  C   UNL     1       6.799   4.937  15.202  0.00  0.00    +0.000 A 
ATOM     13 CL   UNL     1       7.348   5.038  13.576  0.00  0.00    +0.000 Cl
ATOM     14  C   UNL     1       5.852   3.976  15.567  0.00  0.00    +0.000 A 
ENDBRANCH   6   7
ENDBRANCH   3   6
ENDBRANCH   1   2
BRANCH   1  15
ATOM     15  C   UNL     1       1.905   6.093  19.863  0.00  0.00    +0.000 C 
ATOM     16  O   UNL     1       1.920   6.521  21.019  0.00  0.00    +0.000 OA
ATOM     17  N   UNL     1       2.109   6.897  18.765  0.00  0.00    +0.000 N 
ATOM     18  H   UNL     1       2.349   6.452  17.883  0.00  0.00    +0.000 HD
BRANCH  17  19
ATOM     19  C   UNL     1       2.347   8.324  18.883  0.00  0.00    +0.000 C 
BRANCH  19  20
ATOM     20  C   UNL     1       1.115   9.168  19.162  0.00  0.00    +0.000 A 
ATOM     21  C   UNL     1       0.451   9.747  18.091  0.00  0.00    +0.000 A 
ATOM     22  C   UNL     1      -0.644  10.538  18.384  0.00  0.00    +0.000 A 
ATOM     23  N   UNL     1      -1.012  10.839  19.630  0.00  0.00    +0.000 NA
ATOM     24  C   UNL     1      -0.222  10.334  20.604  0.00  0.00    +0.000 A 
ATOM     25  N   UNL     1       0.793   9.463  20.437  0.00  0.00    +0.000 NA
BRANCH  24  26
ATOM     26  C   UNL     1      -0.380  10.939  21.888  0.00  0.00    +0.000 C 
ATOM     27  N   UNL     1      -0.538  11.451  22.936  0.00  0.00    +0.000 NA
ENDBRANCH  24  26
ENDBRANCH  19  20
ENDBRANCH  17  19
ENDBRANCH   1  15
BRANCH   1  29
ATOM     28  C   UNL     1       2.593   3.077  21.404  0.00  0.00    +0.000 C 
ATOM     29  C   UNL     1       1.376   3.768  20.802  0.00  0.00    +0.000 C 
BRANCH  29  30
ATOM     30  O   UNL     1       0.348   2.801  20.560  0.00  0.00    +0.000 OA
ATOM     31  H   UNL     1      -0.025   2.552  21.432  0.00  0.00    +0.000 HD
ENDBRANCH  29  30
ENDBRANCH   1  29
TORSDOF 9
ENDMDL
MODEL 9
REMARK VINA RESULT:      -7.1      4.589      7.553
REMARK  Name = 
REMARK  10 active torsions:
REMARK  status: ('A' for Active; 'I' for Inactive)
REMARK    1  A    between atoms: C_1  and  C_2
REMARK    2  A    between atoms: C_2  and  O_3
REMARK    3  A    between atoms: C_2  and  C_4
REMARK    4  A    between atoms: C_4  and  N_5
REMARK    5  A    between atoms: C_4  and  C_17
REMARK    6  A    between atoms: C_6  and  C_8
REMARK    7  A    between atoms: C_8  and  C_9
REMARK    8  A    between atoms: N_19  and  C_20
REMARK    9  A    between atoms: C_20  and  C_21
REMARK   10  A    between atoms: C_25  and  C_26
REMARK                            x       y       z     vdW  Elec       q    Type
REMARK                         _______ _______ _______ _____ _____    ______ ____
ROOT
ATOM      1  C   UNL     1       2.950   4.409  20.274  0.00  0.00    +0.000 C 
ENDROOT
BRANCH   1   2
ATOM      2  N   UNL     1       2.974   5.866  20.099  0.00  0.00    +0.000 N 
ATOM      3  C   UNL     1       2.277   6.485  19.085  0.00  0.00    +0.000 C 
ATOM      4  O   UNL     1       1.591   5.849  18.291  0.00  0.00    +0.000 OA
ATOM      5  H   UNL     1       3.410   6.409  20.834  0.00  0.00    +0.000 HD
BRANCH   3   6
ATOM      6  C   UNL     1       2.475   7.990  18.992  0.00  0.00    +0.000 C 
BRANCH   6   7
ATOM      7  C   UNL     1       1.341   8.876  19.455  0.00  0.00    +0.000 A 
ATOM      8  C   UNL     1       0.603   9.714  18.607  0.00  0.00    +0.000 A 
ATOM      9  C   UNL     1      -0.449  10.485  19.122  0.00  0.00    +0.000 A 
ATOM     10 CL   UNL     1      -1.512  11.341  18.068  0.00  0.00    +0.000 Cl
ATOM     11  C   UNL     1      -0.679  10.564  20.489  0.00  0.00    +0.000 A 
ATOM     12  C   UNL     1      -0.006   9.689  21.325  0.00  0.00    +0.000 A 
ATOM     13 CL   UNL     1      -0.398   9.655  22.999  0.00  0.00    +0.000 Cl
ATOM     14  C   UNL     1       0.954   8.815  20.809  0.00  0.00    +0.000 A 
ENDBRANCH   6   7
ENDBRANCH   3   6
ENDBRANCH   1   2
BRANCH   1  15
ATOM     15  C   UNL     1       3.923   3.765  19.263  0.00  0.00    +0.000 C 
ATOM     16  O   UNL     1       4.919   3.131  19.618  0.00  0.00    +0.000 OA
ATOM     17  N   UNL     1       3.565   3.918  17.943  0.00  0.00    +0.000 N 
ATOM     18  H   UNL     1       2.613   4.210  17.736  0.00  0.00    +0.000 HD
BRANCH  17  19
ATOM     19  C   UNL     1       4.346   3.351  16.858  0.00  0.00    +0.000 C 
BRANCH  19  20
ATOM     20  C   UNL     1       5.435   4.251  16.302  0.00  0.00    +0.000 A 
ATOM     21  C   UNL     1       6.162   3.815  15.205  0.00  0.00    +0.000 A 
ATOM     22  C   UNL     1       7.170   4.644  14.749  0.00  0.00    +0.000 A 
ATOM     23  N   UNL     1       7.525   5.768  15.371  0.00  0.00    +0.000 NA
ATOM     24  C   UNL     1       6.844   6.041  16.506  0.00  0.00    +0.000 A 
ATOM     25  N   UNL     1       5.774   5.369  16.976  0.00  0.00    +0.000 NA
BRANCH  24  26
ATOM     26  C   UNL     1       7.449   7.014  17.359  0.00  0.00    +0.000 C 
ATOM     27  N   UNL     1       7.978   7.809  18.048  0.00  0.00    +0.000 NA
ENDBRANCH  24  26
ENDBRANCH  19  20
ENDBRANCH  17  19
ENDBRANCH   1  15
BRANCH   1  29
ATOM     28  C   UNL     1       1.063   2.951  21.222  0.00  0.00    +0.000 C 
ATOM     29  C   UNL     1       1.505   3.886  20.103  0.00  0.00    +0.000 C 
BRANCH  29  30
ATOM     30  O   UNL     1       1.312   3.241  18.839  0.00  0.00    +0.000 OA
ATOM     31  H   UNL     1       1.955   2.503  18.790  0.00  0.00    +0.000 HD
ENDBRANCH  29  30
ENDBRANCH   1  29
TORSDOF 9
ENDMDL
