MODEL 1
REMARK VINA RESULT:      -9.2      0.000      0.000
REMARK  Name = 
REMARK  4 active torsions:
REMARK  status: ('A' for Active; 'I' for Inactive)
REMARK    1  A    between atoms: C_2  and  O_3
REMARK    2  A    between atoms: C_2  and  C_4
REMARK    3  A    between atoms: C_15  and  C_16
REMARK    4  A    between atoms: C_21  and  C_22
REMARK                            x       y       z     vdW  Elec       q    Type
REMARK                         _______ _______ _______ _____ _____    ______ ____
ROOT
ATOM      1  C   UNL     1      -1.196  12.917  21.433  0.00  0.00    +0.000 A 
ATOM      2  C   UNL     1      -1.859  13.017  22.676  0.00  0.00    +0.000 A 
ATOM      3  C   UNL     1      -1.874  11.958  23.579  0.00  0.00    +0.000 A 
ATOM      4  C   UNL     1      -1.217  10.784  23.253  0.00  0.00    +0.000 A 
ATOM      5  C   UNL     1      -0.548  10.680  22.023  0.00  0.00    +0.000 A 
ATOM      6  C   UNL     1      -0.520  11.723  21.091  0.00  0.00    +0.000 A 
ATOM      7  C   UNL     1       0.219  11.585  19.811  0.00  0.00    +0.000 C 
ATOM      8  O   UNL     1       0.251  12.539  19.037  0.00  0.00    +0.000 OA
ATOM      9  C   UNL     1       0.913  10.356  19.378  0.00  0.00    +0.000 A 
ATOM     10  C   UNL     1       1.508  10.340  18.109  0.00  0.00    +0.000 A 
ATOM     11  C   UNL     1       2.197   9.211  17.651  0.00  0.00    +0.000 A 
ATOM     12  C   UNL     1       2.329   8.064  18.450  0.00  0.00    +0.000 A 
ATOM     13  C   UNL     1       1.719   8.089  19.713  0.00  0.00    +0.000 A 
ATOM     14  C   UNL     1       1.019   9.221  20.156  0.00  0.00    +0.000 A 
ATOM     15  S   UNL     1       0.283   9.165  21.733  0.00  0.00    +0.000 S 
ATOM     16  O   UNL     1       1.367   9.101  22.687  0.00  0.00    +0.000 OA
ATOM     17  O   UNL     1      -0.742   8.142  21.664  0.00  0.00    +0.000 OA
ENDROOT
BRANCH  12  18
ATOM     18  C   UNL     1       3.111   6.893  18.006  0.00  0.00    +0.000 A 
ATOM     19  C   UNL     1       4.290   7.038  17.263  0.00  0.00    +0.000 A 
ATOM     20  C   UNL     1       4.979   5.923  16.782  0.00  0.00    +0.000 A 
ATOM     21  C   UNL     1       4.513   4.628  17.036  0.00  0.00    +0.000 A 
ATOM     22 CL   UNL     1       5.438   3.335  16.373  0.00  0.00    +0.000 Cl
ATOM     23  C   UNL     1       3.352   4.439  17.786  0.00  0.00    +0.000 A 
ATOM     24  C   UNL     1       2.672   5.583  18.266  0.00  0.00    +0.000 A 
BRANCH  23  25
ATOM     25  C   UNL     1       2.743   3.100  18.112  0.00  0.00    +0.000 C 
ATOM     26  F   UNL     1       2.412   2.306  17.063  0.00  0.00    +0.000 F 
ATOM     27  F   UNL     1       3.573   2.349  18.894  0.00  0.00    +0.000 F 
ATOM     28  F   UNL     1       1.596   3.238  18.839  0.00  0.00    +0.000 F 
ENDBRANCH  23  25
ENDBRANCH  12  18
BRANCH   1  30
ATOM     29  O   UNL     1      -0.636  15.166  20.920  0.00  0.00    +0.000 OA
ATOM     30  C   UNL     1      -1.281  14.172  20.627  0.00  0.00    +0.000 C 
BRANCH  30  31
ATOM     31  O   UNL     1      -2.297  14.199  19.745  0.00  0.00    +0.000 OA
ATOM     32  H   UNL     1      -2.056  13.664  18.951  0.00  0.00    +0.000 HD
ENDBRANCH  30  31
ENDBRANCH   1  30
TORSDOF 4
ENDMDL
MODEL 2
REMARK VINA RESULT:      -9.2      1.400      1.782
REMARK  Name = 
REMARK  4 active torsions:
REMARK  status: ('A' for Active; 'I' for Inactive)
REMARK    1  A    between atoms: C_2  and  O_3
REMARK    2  A    between atoms: C_2  and  C_4
REMARK    3  A    between atoms: C_15  and  C_16
REMARK    4  A    between atoms: C_21  and  C_22
REMARK                            x       y       z     vdW  Elec       q    Type
REMARK                         _______ _______ _______ _____ _____    ______ ____
ROOT
ATOM      1  C   UNL     1      -0.089  13.522  20.472  0.00  0.00    +0.000 A 
ATOM      2  C   UNL     1      -0.743  14.044  21.611  0.00  0.00    +0.000 A 
ATOM      3  C   UNL     1      -1.057  13.239  22.701  0.00  0.00    +0.000 A 
ATOM      4  C   UNL     1      -0.713  11.899  22.672  0.00  0.00    +0.000 A 
ATOM      5  C   UNL     1      -0.055  11.374  21.548  0.00  0.00    +0.000 A 
ATOM      6  C   UNL     1       0.268  12.155  20.433  0.00  0.00    +0.000 A 
ATOM      7  C   UNL     1       0.988  11.571  19.273  0.00  0.00    +0.000 C 
ATOM      8  O   UNL     1       1.287  12.300  18.330  0.00  0.00    +0.000 OA
ATOM      9  C   UNL     1       1.357  10.147  19.153  0.00  0.00    +0.000 A 
ATOM     10  C   UNL     1       1.967   9.716  17.966  0.00  0.00    +0.000 A 
ATOM     11  C   UNL     1       2.358   8.382  17.802  0.00  0.00    +0.000 A 
ATOM     12  C   UNL     1       2.167   7.436  18.821  0.00  0.00    +0.000 A 
ATOM     13  C   UNL     1       1.545   7.877  19.998  0.00  0.00    +0.000 A 
ATOM     14  C   UNL     1       1.145   9.214  20.147  0.00  0.00    +0.000 A 
ATOM     15  S   UNL     1       0.370   9.677  21.635  0.00  0.00    +0.000 S 
ATOM     16  O   UNL     1       1.372   9.556  22.672  0.00  0.00    +0.000 OA
ATOM     17  O   UNL     1      -0.880   8.944  21.686  0.00  0.00    +0.000 OA
ENDROOT
BRANCH  12  18
ATOM     18  C   UNL     1       2.637   6.043  18.686  0.00  0.00    +0.000 A 
ATOM     19  C   UNL     1       3.511   5.659  17.660  0.00  0.00    +0.000 A 
ATOM     20  C   UNL     1       3.886   4.324  17.495  0.00  0.00    +0.000 A 
ATOM     21  C   UNL     1       3.405   3.333  18.358  0.00  0.00    +0.000 A 
ATOM     22 CL   UNL     1       3.924   1.721  18.041  0.00  0.00    +0.000 Cl
ATOM     23  C   UNL     1       2.546   3.674  19.403  0.00  0.00    +0.000 A 
ATOM     24  C   UNL     1       2.182   5.033  19.552  0.00  0.00    +0.000 A 
BRANCH  23  25
ATOM     25  C   UNL     1       1.950   2.698  20.384  0.00  0.00    +0.000 C 
ATOM     26  F   UNL     1       2.793   2.159  21.299  0.00  0.00    +0.000 F 
ATOM     27  F   UNL     1       0.939   3.266  21.104  0.00  0.00    +0.000 F 
ATOM     28  F   UNL     1       1.380   1.636  19.745  0.00  0.00    +0.000 F 
ENDBRANCH  23  25
ENDBRANCH  12  18
BRANCH   1  30
ATOM     29  O   UNL     1       0.987  15.452  19.605  0.00  0.00    +0.000 OA
ATOM     30  C   UNL     1       0.174  14.558  19.429  0.00  0.00    +0.000 C 
BRANCH  30  31
ATOM     31  O   UNL     1      -0.723  14.580  18.427  0.00  0.00    +0.000 OA
ATOM     32  H   UNL     1      -1.629  14.702  18.801  0.00  0.00    +0.000 HD
ENDBRANCH  30  31
ENDBRANCH   1  30
TORSDOF 4
ENDMDL
MODEL 3
REMARK VINA RESULT:      -8.9      2.036      3.197
REMARK  Name = 
REMARK  4 active torsions:
REMARK  status: ('A' for Active; 'I' for Inactive)
REMARK    1  A    between atoms: C_2  and  O_3
REMARK    2  A    between atoms: C_2  and  C_4
REMARK    3  A    between atoms: C_15  and  C_16
REMARK    4  A    between atoms: C_21  and  C_22
REMARK                            x       y       z     vdW  Elec       q    Type
REMARK                         _______ _______ _______ _____ _____    ______ ____
ROOT
ATOM      1  C   UNL     1      -1.105  13.945  21.979  0.00  0.00    +0.000 A 
ATOM      2  C   UNL     1      -1.368  15.131  21.257  0.00  0.00    +0.000 A 
ATOM      3  C   UNL     1      -1.059  15.243  19.906  0.00  0.00    +0.000 A 
ATOM      4  C   UNL     1      -0.489  14.165  19.252  0.00  0.00    +0.000 A 
ATOM      5  C   UNL     1      -0.233  12.979  19.959  0.00  0.00    +0.000 A 
ATOM      6  C   UNL     1      -0.525  12.837  21.320  0.00  0.00    +0.000 A 
ATOM      7  C   UNL     1      -0.264  11.559  22.029  0.00  0.00    +0.000 C 
ATOM      8  O   UNL     1      -0.571  11.463  23.215  0.00  0.00    +0.000 OA
ATOM      9  C   UNL     1       0.372  10.378  21.410  0.00  0.00    +0.000 A 
ATOM     10  C   UNL     1       0.628   9.261  22.218  0.00  0.00    +0.000 A 
ATOM     11  C   UNL     1       1.211   8.106  21.684  0.00  0.00    +0.000 A 
ATOM     12  C   UNL     1       1.542   8.019  20.323  0.00  0.00    +0.000 A 
ATOM     13  C   UNL     1       1.291   9.147  19.529  0.00  0.00    +0.000 A 
ATOM     14  C   UNL     1       0.720  10.306  20.077  0.00  0.00    +0.000 A 
ATOM     15  S   UNL     1       0.451  11.665  19.024  0.00  0.00    +0.000 S 
ATOM     16  O   UNL     1      -0.568  11.257  18.082  0.00  0.00    +0.000 OA
ATOM     17  O   UNL     1       1.762  12.108  18.593  0.00  0.00    +0.000 OA
ENDROOT
BRANCH  12  18
ATOM     18  C   UNL     1       2.092   6.782  19.734  0.00  0.00    +0.000 A 
ATOM     19  C   UNL     1       2.738   6.785  18.491  0.00  0.00    +0.000 A 
ATOM     20  C   UNL     1       3.184   5.598  17.908  0.00  0.00    +0.000 A 
ATOM     21  C   UNL     1       3.006   4.371  18.556  0.00  0.00    +0.000 A 
ATOM     22 CL   UNL     1       3.581   2.974  17.728  0.00  0.00    +0.000 Cl
ATOM     23  C   UNL     1       2.382   4.324  19.803  0.00  0.00    +0.000 A 
ATOM     24  C   UNL     1       1.941   5.540  20.376  0.00  0.00    +0.000 A 
BRANCH  23  25
ATOM     25  C   UNL     1       2.118   3.066  20.590  0.00  0.00    +0.000 C 
ATOM     26  F   UNL     1       1.541   2.036  19.922  0.00  0.00    +0.000 F 
ATOM     27  F   UNL     1       3.266   2.560  21.127  0.00  0.00    +0.000 F 
ATOM     28  F   UNL     1       1.302   3.309  21.657  0.00  0.00    +0.000 F 
ENDBRANCH  23  25
ENDBRANCH  12  18
BRANCH   1  30
ATOM     29  O   UNL     1      -0.808  14.500  24.268  0.00  0.00    +0.000 OA
ATOM     30  C   UNL     1      -1.534  14.027  23.407  0.00  0.00    +0.000 C 
BRANCH  30  31
ATOM     31  O   UNL     1      -2.637  13.315  23.699  0.00  0.00    +0.000 OA
ATOM     32  H   UNL     1      -2.999  12.916  22.871  0.00  0.00    +0.000 HD
ENDBRANCH  30  31
ENDBRANCH   1  30
TORSDOF 4
ENDMDL
MODEL 4
REMARK VINA RESULT:      -8.8      1.457      1.769
REMARK  Name = 
REMARK  4 active torsions:
REMARK  status: ('A' for Active; 'I' for Inactive)
REMARK    1  A    between atoms: C_2  and  O_3
REMARK    2  A    between atoms: C_2  and  C_4
REMARK    3  A    between atoms: C_15  and  C_16
REMARK    4  A    between atoms: C_21  and  C_22
REMARK                            x       y       z     vdW  Elec       q    Type
REMARK                         _______ _______ _______ _____ _____    ______ ____
ROOT
ATOM      1  C   UNL     1      -0.446  13.198  20.386  0.00  0.00    +0.000 A 
ATOM      2  C   UNL     1      -1.113  13.790  21.482  0.00  0.00    +0.000 A 
ATOM      3  C   UNL     1      -1.332  13.089  22.663  0.00  0.00    +0.000 A 
ATOM      4  C   UNL     1      -0.879  11.785  22.769  0.00  0.00    +0.000 A 
ATOM      5  C   UNL     1      -0.208  11.193  21.687  0.00  0.00    +0.000 A 
ATOM      6  C   UNL     1       0.022  11.868  20.484  0.00  0.00    +0.000 A 
ATOM      7  C   UNL     1       0.758  11.217  19.370  0.00  0.00    +0.000 C 
ATOM      8  O   UNL     1       0.973  11.858  18.344  0.00  0.00    +0.000 OA
ATOM      9  C   UNL     1       1.241   9.822  19.394  0.00  0.00    +0.000 A 
ATOM     10  C   UNL     1       1.856   9.311  18.242  0.00  0.00    +0.000 A 
ATOM     11  C   UNL     1       2.351   8.002  18.211  0.00  0.00    +0.000 A 
ATOM     12  C   UNL     1       2.264   7.164  19.333  0.00  0.00    +0.000 A 
ATOM     13  C   UNL     1       1.637   7.683  20.475  0.00  0.00    +0.000 A 
ATOM     14  C   UNL     1       1.131   8.992  20.491  0.00  0.00    +0.000 A 
ATOM     15  S   UNL     1       0.357   9.555  21.945  0.00  0.00    +0.000 S 
ATOM     16  O   UNL     1       1.391   9.630  22.954  0.00  0.00    +0.000 OA
ATOM     17  O   UNL     1      -0.826   8.735  22.117  0.00  0.00    +0.000 OA
ENDROOT
BRANCH  12  18
ATOM     18  C   UNL     1       2.844   5.806  19.336  0.00  0.00    +0.000 A 
ATOM     19  C   UNL     1       4.214   5.593  19.540  0.00  0.00    +0.000 A 
ATOM     20  C   UNL     1       4.763   4.312  19.461  0.00  0.00    +0.000 A 
ATOM     21  C   UNL     1       3.958   3.203  19.185  0.00  0.00    +0.000 A 
ATOM     22 CL   UNL     1       4.754   1.678  19.095  0.00  0.00    +0.000 Cl
ATOM     23  C   UNL     1       2.585   3.367  18.991  0.00  0.00    +0.000 A 
ATOM     24  C   UNL     1       2.050   4.674  19.078  0.00  0.00    +0.000 A 
BRANCH  23  25
ATOM     25  C   UNL     1       1.619   2.256  18.672  0.00  0.00    +0.000 C 
ATOM     26  F   UNL     1       1.588   1.207  19.530  0.00  0.00    +0.000 F 
ATOM     27  F   UNL     1       0.335   2.714  18.603  0.00  0.00    +0.000 F 
ATOM     28  F   UNL     1       1.871   1.715  17.445  0.00  0.00    +0.000 F 
ENDBRANCH  23  25
ENDBRANCH  12  18
BRANCH   1  30
ATOM     29  O   UNL     1       0.239  15.220  19.347  0.00  0.00    +0.000 OA
ATOM     30  C   UNL     1      -0.295  14.129  19.227  0.00  0.00    +0.000 C 
BRANCH  30  31
ATOM     31  O   UNL     1      -1.013  13.788  18.142  0.00  0.00    +0.000 OA
ATOM     32  H   UNL     1      -0.843  14.439  17.419  0.00  0.00    +0.000 HD
ENDBRANCH  30  31
ENDBRANCH   1  30
TORSDOF 4
ENDMDL
MODEL 5
REMARK VINA RESULT:      -8.8      1.667      2.118
REMARK  Name = 
REMARK  4 active torsions:
REMARK  status: ('A' for Active; 'I' for Inactive)
REMARK    1  A    between atoms: C_2  and  O_3
REMARK    2  A    between atoms: C_2  and  C_4
REMARK    3  A    between atoms: C_15  and  C_16
REMARK    4  A    between atoms: C_21  and  C_22
REMARK                            x       y       z     vdW  Elec       q    Type
REMARK                         _______ _______ _______ _____ _____    ______ ____
ROOT
ATOM      1  C   UNL     1      -0.244  13.343  20.794  0.00  0.00    +0.000 A 
ATOM      2  C   UNL     1      -0.889  13.754  21.983  0.00  0.00    +0.000 A 
ATOM      3  C   UNL     1      -1.163  12.855  23.008  0.00  0.00    +0.000 A 
ATOM      4  C   UNL     1      -0.787  11.531  22.864  0.00  0.00    +0.000 A 
ATOM      5  C   UNL     1      -0.138  11.116  21.690  0.00  0.00    +0.000 A 
ATOM      6  C   UNL     1       0.146  11.993  20.637  0.00  0.00    +0.000 A 
ATOM      7  C   UNL     1       0.857  11.524  19.421  0.00  0.00    +0.000 C 
ATOM      8  O   UNL     1       1.121  12.335  18.536  0.00  0.00    +0.000 OA
ATOM      9  C   UNL     1       1.258  10.124  19.179  0.00  0.00    +0.000 A 
ATOM     10  C   UNL     1       1.856   9.806  17.951  0.00  0.00    +0.000 A 
ATOM     11  C   UNL     1       2.275   8.501  17.672  0.00  0.00    +0.000 A 
ATOM     12  C   UNL     1       2.127   7.470  18.613  0.00  0.00    +0.000 A 
ATOM     13  C   UNL     1       1.516   7.799  19.832  0.00  0.00    +0.000 A 
ATOM     14  C   UNL     1       1.087   9.108  20.097  0.00  0.00    +0.000 A 
ATOM     15  S   UNL     1       0.329   9.429  21.631  0.00  0.00    +0.000 S 
ATOM     16  O   UNL     1       1.352   9.250  22.637  0.00  0.00    +0.000 OA
ATOM     17  O   UNL     1      -0.902   8.663  21.642  0.00  0.00    +0.000 OA
ENDROOT
BRANCH  12  18
ATOM     18  C   UNL     1       2.627   6.105  18.357  0.00  0.00    +0.000 A 
ATOM     19  C   UNL     1       1.999   4.979  18.903  0.00  0.00    +0.000 A 
ATOM     20  C   UNL     1       2.526   3.699  18.720  0.00  0.00    +0.000 A 
ATOM     21  C   UNL     1       3.695   3.507  17.976  0.00  0.00    +0.000 A 
ATOM     22 CL   UNL     1       4.259   1.885  17.836  0.00  0.00    +0.000 Cl
ATOM     23  C   UNL     1       4.345   4.600  17.401  0.00  0.00    +0.000 A 
ATOM     24  C   UNL     1       3.790   5.886  17.598  0.00  0.00    +0.000 A 
BRANCH  23  25
ATOM     25  C   UNL     1       5.615   4.523  16.595  0.00  0.00    +0.000 C 
ATOM     26  F   UNL     1       5.647   3.615  15.587  0.00  0.00    +0.000 F 
ATOM     27  F   UNL     1       5.917   5.723  16.019  0.00  0.00    +0.000 F 
ATOM     28  F   UNL     1       6.689   4.227  17.384  0.00  0.00    +0.000 F 
ENDBRANCH  23  25
ENDBRANCH  12  18
BRANCH   1  30
ATOM     29  O   UNL     1       0.728  15.393  20.094  0.00  0.00    +0.000 OA
ATOM     30  C   UNL     1      -0.024  14.467  19.835  0.00  0.00    +0.000 C 
BRANCH  30  31
ATOM     31  O   UNL     1      -0.902  14.508  18.816  0.00  0.00    +0.000 OA
ATOM     32  H   UNL     1      -0.918  15.419  18.434  0.00  0.00    +0.000 HD
ENDBRANCH  30  31
ENDBRANCH   1  30
TORSDOF 4
ENDMDL
MODEL 6
REMARK VINA RESULT:      -8.8      1.585      1.958
REMARK  Name = 
REMARK  4 active torsions:
REMARK  status: ('A' for Active; 'I' for Inactive)
REMARK    1  A    between atoms: C_2  and  O_3
REMARK    2  A    between atoms: C_2  and  C_4
REMARK    3  A    between atoms: C_15  and  C_16
REMARK    4  A    between atoms: C_21  and  C_22
REMARK                            x       y       z     vdW  Elec       q    Type
REMARK                         _______ _______ _______ _____ _____    ______ ____
ROOT
ATOM      1  C   UNL     1      -0.701  13.324  20.971  0.00  0.00    +0.000 A 
ATOM      2  C   UNL     1      -1.416  13.850  22.071  0.00  0.00    +0.000 A 
ATOM      3  C   UNL     1      -1.671  13.085  23.205  0.00  0.00    +0.000 A 
ATOM      4  C   UNL     1      -1.206  11.782  23.259  0.00  0.00    +0.000 A 
ATOM      5  C   UNL     1      -0.487  11.255  22.174  0.00  0.00    +0.000 A 
ATOM      6  C   UNL     1      -0.221  11.995  21.017  0.00  0.00    +0.000 A 
ATOM      7  C   UNL     1       0.565  11.412  19.900  0.00  0.00    +0.000 C 
ATOM      8  O   UNL     1       0.810  12.109  18.918  0.00  0.00    +0.000 OA
ATOM      9  C   UNL     1       1.064  10.022  19.869  0.00  0.00    +0.000 A 
ATOM     10  C   UNL     1       1.728   9.580  18.716  0.00  0.00    +0.000 A 
ATOM     11  C   UNL     1       2.240   8.280  18.635  0.00  0.00    +0.000 A 
ATOM     12  C   UNL     1       2.121   7.382  19.708  0.00  0.00    +0.000 A 
ATOM     13  C   UNL     1       1.445   7.834  20.850  0.00  0.00    +0.000 A 
ATOM     14  C   UNL     1       0.923   9.134  20.916  0.00  0.00    +0.000 A 
ATOM     15  S   UNL     1       0.088   9.612  22.366  0.00  0.00    +0.000 S 
ATOM     16  O   UNL     1       1.082   9.644  23.417  0.00  0.00    +0.000 OA
ATOM     17  O   UNL     1      -1.090   8.771  22.450  0.00  0.00    +0.000 OA
ENDROOT
BRANCH  12  18
ATOM     18  C   UNL     1       2.718   6.032  19.661  0.00  0.00    +0.000 A 
ATOM     19  C   UNL     1       3.869   5.765  18.909  0.00  0.00    +0.000 A 
ATOM     20  C   UNL     1       4.379   4.469  18.809  0.00  0.00    +0.000 A 
ATOM     21  C   UNL     1       3.756   3.402  19.464  0.00  0.00    +0.000 A 
ATOM     22 CL   UNL     1       4.467   1.847  19.248  0.00  0.00    +0.000 Cl
ATOM     23  C   UNL     1       2.616   3.626  20.236  0.00  0.00    +0.000 A 
ATOM     24  C   UNL     1       2.119   4.948  20.326  0.00  0.00    +0.000 A 
BRANCH  23  25
ATOM     25  C   UNL     1       1.848   2.560  20.974  0.00  0.00    +0.000 C 
ATOM     26  F   UNL     1       0.768   2.966  21.686  0.00  0.00    +0.000 F 
ATOM     27  F   UNL     1       1.389   1.595  20.125  0.00  0.00    +0.000 F 
ATOM     28  F   UNL     1       2.644   1.901  21.866  0.00  0.00    +0.000 F 
ENDBRANCH  23  25
ENDBRANCH  12  18
BRANCH   1  30
ATOM     29  O   UNL     1       0.165  15.318  20.017  0.00  0.00    +0.000 OA
ATOM     30  C   UNL     1      -0.518  14.316  19.870  0.00  0.00    +0.000 C 
BRANCH  30  31
ATOM     31  O   UNL     1      -1.358  14.157  18.832  0.00  0.00    +0.000 OA
ATOM     32  H   UNL     1      -1.171  14.847  18.150  0.00  0.00    +0.000 HD
ENDBRANCH  30  31
ENDBRANCH   1  30
TORSDOF 4
ENDMDL
MODEL 7
REMARK VINA RESULT:      -8.7      1.887      2.360
REMARK  Name = 
REMARK  4 active torsions:
REMARK  status: ('A' for Active; 'I' for Inactive)
REMARK    1  A    between atoms: C_2  and  O_3
REMARK    2  A    between atoms: C_2  and  C_4
REMARK    3  A    between atoms: C_15  and  C_16
REMARK    4  A    between atoms: C_21  and  C_22
REMARK                            x       y       z     vdW  Elec       q    Type
REMARK                         _______ _______ _______ _____ _____    ______ ____
ROOT
ATOM      1  C   UNL     1      -1.297  12.895  21.395  0.00  0.00    +0.000 A 
ATOM      2  C   UNL     1      -1.931  13.005  22.653  0.00  0.00    +0.000 A 
ATOM      3  C   UNL     1      -1.900  11.965  23.577  0.00  0.00    +0.000 A 
ATOM      4  C   UNL     1      -1.224  10.800  23.258  0.00  0.00    +0.000 A 
ATOM      5  C   UNL     1      -0.583  10.685  22.014  0.00  0.00    +0.000 A 
ATOM      6  C   UNL     1      -0.603  11.709  21.061  0.00  0.00    +0.000 A 
ATOM      7  C   UNL     1       0.108  11.562  19.766  0.00  0.00    +0.000 C 
ATOM      8  O   UNL     1       0.098  12.500  18.972  0.00  0.00    +0.000 OA
ATOM      9  C   UNL     1       0.819  10.340  19.340  0.00  0.00    +0.000 A 
ATOM     10  C   UNL     1       1.383  10.311  18.057  0.00  0.00    +0.000 A 
ATOM     11  C   UNL     1       2.086   9.188  17.605  0.00  0.00    +0.000 A 
ATOM     12  C   UNL     1       2.264   8.062  18.423  0.00  0.00    +0.000 A 
ATOM     13  C   UNL     1       1.686   8.099  19.700  0.00  0.00    +0.000 A 
ATOM     14  C   UNL     1       0.971   9.224  20.139  0.00  0.00    +0.000 A 
ATOM     15  S   UNL     1       0.275   9.185  21.734  0.00  0.00    +0.000 S 
ATOM     16  O   UNL     1       1.384   9.165  22.662  0.00  0.00    +0.000 OA
ATOM     17  O   UNL     1      -0.727   8.137  21.712  0.00  0.00    +0.000 OA
ENDROOT
BRANCH  12  18
ATOM     18  C   UNL     1       3.062   6.900  17.984  0.00  0.00    +0.000 A 
ATOM     19  C   UNL     1       2.510   5.615  17.916  0.00  0.00    +0.000 A 
ATOM     20  C   UNL     1       3.295   4.511  17.575  0.00  0.00    +0.000 A 
ATOM     21  C   UNL     1       4.655   4.662  17.283  0.00  0.00    +0.000 A 
ATOM     22 CL   UNL     1       5.521   3.224  16.895  0.00  0.00    +0.000 Cl
ATOM     23  C   UNL     1       5.241   5.927  17.323  0.00  0.00    +0.000 A 
ATOM     24  C   UNL     1       4.426   7.031  17.668  0.00  0.00    +0.000 A 
BRANCH  23  25
ATOM     25  C   UNL     1       6.694   6.215  17.045  0.00  0.00    +0.000 C 
ATOM     26  F   UNL     1       7.599   5.666  17.893  0.00  0.00    +0.000 F 
ATOM     27  F   UNL     1       7.058   5.798  15.798  0.00  0.00    +0.000 F 
ATOM     28  F   UNL     1       6.948   7.556  17.061  0.00  0.00    +0.000 F 
ENDBRANCH  23  25
ENDBRANCH  12  18
BRANCH   1  30
ATOM     29  O   UNL     1      -0.807  15.147  20.826  0.00  0.00    +0.000 OA
ATOM     30  C   UNL     1      -1.432  14.130  20.567  0.00  0.00    +0.000 C 
BRANCH  30  31
ATOM     31  O   UNL     1      -2.466  14.113  19.706  0.00  0.00    +0.000 OA
ATOM     32  H   UNL     1      -3.150  14.760  20.003  0.00  0.00    +0.000 HD
ENDBRANCH  30  31
ENDBRANCH   1  30
TORSDOF 4
ENDMDL
MODEL 8
REMARK VINA RESULT:      -8.5      1.900      2.315
REMARK  Name = 
REMARK  4 active torsions:
REMARK  status: ('A' for Active; 'I' for Inactive)
REMARK    1  A    between atoms: C_2  and  O_3
REMARK    2  A    between atoms: C_2  and  C_4
REMARK    3  A    between atoms: C_15  and  C_16
REMARK    4  A    between atoms: C_21  and  C_22
REMARK                            x       y       z     vdW  Elec       q    Type
REMARK                         _______ _______ _______ _____ _____    ______ ____
ROOT
ATOM      1  C   UNL     1      -1.921  12.415  21.139  0.00  0.00    +0.000 A 
ATOM      2  C   UNL     1      -2.491  12.631  22.414  0.00  0.00    +0.000 A 
ATOM      3  C   UNL     1      -2.197  11.802  23.491  0.00  0.00    +0.000 A 
ATOM      4  C   UNL     1      -1.320  10.747  23.312  0.00  0.00    +0.000 A 
ATOM      5  C   UNL     1      -0.742  10.530  22.051  0.00  0.00    +0.000 A 
ATOM      6  C   UNL     1      -1.022  11.341  20.946  0.00  0.00    +0.000 A 
ATOM      7  C   UNL     1      -0.372  11.096  19.634  0.00  0.00    +0.000 C 
ATOM      8  O   UNL     1      -0.615  11.854  18.698  0.00  0.00    +0.000 OA
ATOM      9  C   UNL     1       0.546   9.973  19.355  0.00  0.00    +0.000 A 
ATOM     10  C   UNL     1       1.029   9.817  18.048  0.00  0.00    +0.000 A 
ATOM     11  C   UNL     1       1.917   8.784  17.728  0.00  0.00    +0.000 A 
ATOM     12  C   UNL     1       2.365   7.880  18.704  0.00  0.00    +0.000 A 
ATOM     13  C   UNL     1       1.866   8.040  20.004  0.00  0.00    +0.000 A 
ATOM     14  C   UNL     1       0.965   9.071  20.312  0.00  0.00    +0.000 A 
ATOM     15  S   UNL     1       0.384   9.192  21.948  0.00  0.00    +0.000 S 
ATOM     16  O   UNL     1       1.526   9.552  22.760  0.00  0.00    +0.000 OA
ATOM     17  O   UNL     1      -0.385   7.989  22.194  0.00  0.00    +0.000 OA
ENDROOT
BRANCH  12  18
ATOM     18  C   UNL     1       3.355   6.829  18.393  0.00  0.00    +0.000 A 
ATOM     19  C   UNL     1       3.828   5.952  19.378  0.00  0.00    +0.000 A 
ATOM     20  C   UNL     1       4.821   5.014  19.092  0.00  0.00    +0.000 A 
ATOM     21  C   UNL     1       5.366   4.919  17.807  0.00  0.00    +0.000 A 
ATOM     22 CL   UNL     1       6.598   3.736  17.581  0.00  0.00    +0.000 Cl
ATOM     23  C   UNL     1       4.912   5.762  16.791  0.00  0.00    +0.000 A 
ATOM     24  C   UNL     1       3.903   6.702  17.105  0.00  0.00    +0.000 A 
BRANCH  23  25
ATOM     25  C   UNL     1       5.431   5.766  15.377  0.00  0.00    +0.000 C 
ATOM     26  F   UNL     1       5.109   4.699  14.604  0.00  0.00    +0.000 F 
ATOM     27  F   UNL     1       5.000   6.863  14.688  0.00  0.00    +0.000 F 
ATOM     28  F   UNL     1       6.793   5.839  15.346  0.00  0.00    +0.000 F 
ENDBRANCH  23  25
ENDBRANCH  12  18
BRANCH   1  30
ATOM     29  O   UNL     1      -1.958  14.586  20.180  0.00  0.00    +0.000 OA
ATOM     30  C   UNL     1      -2.349  13.430  20.132  0.00  0.00    +0.000 C 
BRANCH  30  31
ATOM     31  O   UNL     1      -3.377  13.045  19.354  0.00  0.00    +0.000 OA
ATOM     32  H   UNL     1      -3.592  12.099  19.540  0.00  0.00    +0.000 HD
ENDBRANCH  30  31
ENDBRANCH   1  30
TORSDOF 4
ENDMDL
MODEL 9
REMARK VINA RESULT:      -8.4      2.228      3.536
REMARK  Name = 
REMARK  4 active torsions:
REMARK  status: ('A' for Active; 'I' for Inactive)
REMARK    1  A    between atoms: C_2  and  O_3
REMARK    2  A    between atoms: C_2  and  C_4
REMARK    3  A    between atoms: C_15  and  C_16
REMARK    4  A    between atoms: C_21  and  C_22
REMARK                            x       y       z     vdW  Elec       q    Type
REMARK                         _______ _______ _______ _____ _____    ______ ____
ROOT
ATOM      1  C   UNL     1      -1.057  13.985  21.843  0.00  0.00    +0.000 A 
ATOM      2  C   UNL     1      -1.300  15.147  21.077  0.00  0.00    +0.000 A 
ATOM      3  C   UNL     1      -0.969  15.210  19.727  0.00  0.00    +0.000 A 
ATOM      4  C   UNL     1      -0.398  14.105  19.120  0.00  0.00    +0.000 A 
ATOM      5  C   UNL     1      -0.162  12.943  19.872  0.00  0.00    +0.000 A 
ATOM      6  C   UNL     1      -0.475  12.851  21.233  0.00  0.00    +0.000 A 
ATOM      7  C   UNL     1      -0.234  11.596  21.990  0.00  0.00    +0.000 C 
ATOM      8  O   UNL     1      -0.559  11.544  23.174  0.00  0.00    +0.000 OA
ATOM      9  C   UNL     1       0.402  10.390  21.423  0.00  0.00    +0.000 A 
ATOM     10  C   UNL     1       0.638   9.301  22.273  0.00  0.00    +0.000 A 
ATOM     11  C   UNL     1       1.220   8.123  21.789  0.00  0.00    +0.000 A 
ATOM     12  C   UNL     1       1.571   7.987  20.437  0.00  0.00    +0.000 A 
ATOM     13  C   UNL     1       1.340   9.088  19.600  0.00  0.00    +0.000 A 
ATOM     14  C   UNL     1       0.770  10.269  20.098  0.00  0.00    +0.000 A 
ATOM     15  S   UNL     1       0.527  11.592  18.994  0.00  0.00    +0.000 S 
ATOM     16  O   UNL     1      -0.481  11.158  18.052  0.00  0.00    +0.000 OA
ATOM     17  O   UNL     1       1.848  12.011  18.568  0.00  0.00    +0.000 OA
ENDROOT
BRANCH  12  18
ATOM     18  C   UNL     1       2.121   6.726  19.900  0.00  0.00    +0.000 A 
ATOM     19  C   UNL     1       1.853   5.492  20.506  0.00  0.00    +0.000 A 
ATOM     20  C   UNL     1       2.442   4.316  20.038  0.00  0.00    +0.000 A 
ATOM     21  C   UNL     1       3.311   4.338  18.942  0.00  0.00    +0.000 A 
ATOM     22 CL   UNL     1       3.990   2.826  18.469  0.00  0.00    +0.000 Cl
ATOM     23  C   UNL     1       3.593   5.543  18.298  0.00  0.00    +0.000 A 
ATOM     24  C   UNL     1       2.982   6.721  18.789  0.00  0.00    +0.000 A 
BRANCH  23  25
ATOM     25  C   UNL     1       4.522   5.698  17.122  0.00  0.00    +0.000 C 
ATOM     26  F   UNL     1       4.395   4.794  16.119  0.00  0.00    +0.000 F 
ATOM     27  F   UNL     1       4.387   6.922  16.534  0.00  0.00    +0.000 F 
ATOM     28  F   UNL     1       5.829   5.630  17.509  0.00  0.00    +0.000 F 
ENDBRANCH  23  25
ENDBRANCH  12  18
BRANCH   1  30
ATOM     29  O   UNL     1      -0.776  14.582  24.124  0.00  0.00    +0.000 OA
ATOM     30  C   UNL     1      -1.506  14.120  23.261  0.00  0.00    +0.000 C 
BRANCH  30  31
ATOM     31  O   UNL     1      -2.644  13.463  23.550  0.00  0.00    +0.000 OA
ATOM     32  H   UNL     1      -2.519  12.499  23.375  0.00  0.00    +0.000 HD
ENDBRANCH  30  31
ENDBRANCH   1  30
TORSDOF 4
ENDMDL
