MODEL 1
REMARK VINA RESULT:      -8.0      0.000      0.000
REMARK  Name = 
REMARK  4 active torsions:
REMARK  status: ('A' for Active; 'I' for Inactive)
REMARK    1  A    between atoms: C_1  and  N_2
REMARK    2  A    between atoms: C_7  and  C_8
REMARK    3  A    between atoms: C_8  and  N_9
REMARK    4  A    between atoms: C_10  and  C_12
REMARK                            x       y       z     vdW  Elec       q    Type
REMARK                         _______ _______ _______ _____ _____    ______ ____
ROOT
ATOM      1  N   UNL     1       2.433   7.043  20.162  0.00  0.00    +0.000 N 
ATOM      2  C   UNL     1       1.884   8.148  19.547  0.00  0.00    +0.000 C 
ATOM      3  O   UNL     1       2.075   8.444  18.374  0.00  0.00    +0.000 OA
ATOM      4  H   UNL     1       2.402   6.991  21.170  0.00  0.00    +0.000 HD
ENDROOT
BRANCH   2   5
ATOM      5  C   UNL     1       1.006   8.968  20.466  0.00  0.00    +0.000 A 
ATOM      6  C   UNL     1       1.178   8.812  21.788  0.00  0.00    +0.000 A 
ATOM      7  C   UNL     1       0.367   9.638  22.716  0.00  0.00    +0.000 A 
ATOM      8  O   UNL     1       0.466   9.492  23.927  0.00  0.00    +0.000 OA
ATOM      9  C   UNL     1      -0.543  10.651  22.125  0.00  0.00    +0.000 A 
ATOM     10  C   UNL     1      -1.298  11.499  22.944  0.00  0.00    +0.000 A 
ATOM     11  C   UNL     1      -2.142  12.445  22.364  0.00  0.00    +0.000 A 
ATOM     12  C   UNL     1      -2.233  12.542  20.975  0.00  0.00    +0.000 A 
ATOM     13  C   UNL     1      -1.475  11.696  20.160  0.00  0.00    +0.000 A 
ATOM     14  C   UNL     1      -0.608  10.757  20.727  0.00  0.00    +0.000 A 
ATOM     15  N   UNL     1       0.097   9.854  19.909  0.00  0.00    +0.000 N 
ATOM     16  H   UNL     1       0.350  10.208  18.992  0.00  0.00    +0.000 HD
ENDBRANCH   2   5
BRANCH   1  17
ATOM     17  C   UNL     1       3.276   6.091  19.450  0.00  0.00    +0.000 C 
BRANCH  17  24
ATOM     18  C   UNL     1       3.644   4.040  17.291  0.00  0.00    +0.000 C 
ATOM     19  N   UNL     1       2.477   4.031  18.181  0.00  0.00    +0.000 NA
ATOM     20  C   UNL     1       1.988   2.645  18.301  0.00  0.00    +0.000 C 
ATOM     21  C   UNL     1       0.704   2.573  19.121  0.00  0.00    +0.000 C 
ATOM     22  C   UNL     1       0.920   3.165  20.503  0.00  0.00    +0.000 C 
ATOM     23  C   UNL     1       1.496   4.571  20.389  0.00  0.00    +0.000 C 
ATOM     24  C   UNL     1       2.777   4.617  19.519  0.00  0.00    +0.000 C 
ENDBRANCH  17  24
ENDBRANCH   1  17
TORSDOF 3
ENDMDL
MODEL 2
REMARK VINA RESULT:      -7.9      1.643      2.309
REMARK  Name = 
REMARK  4 active torsions:
REMARK  status: ('A' for Active; 'I' for Inactive)
REMARK    1  A    between atoms: C_1  and  N_2
REMARK    2  A    between atoms: C_7  and  C_8
REMARK    3  A    between atoms: C_8  and  N_9
REMARK    4  A    between atoms: C_10  and  C_12
REMARK                            x       y       z     vdW  Elec       q    Type
REMARK                         _______ _______ _______ _____ _____    ______ ____
ROOT
ATOM      1  N   UNL     1       3.235   6.326  19.989  0.00  0.00    +0.000 N 
ATOM      2  C   UNL     1       2.675   7.118  19.009  0.00  0.00    +0.000 C 
ATOM      3  O   UNL     1       2.817   6.922  17.808  0.00  0.00    +0.000 OA
ATOM      4  H   UNL     1       3.250   6.676  20.937  0.00  0.00    +0.000 HD
ENDROOT
BRANCH   2   5
ATOM      5  C   UNL     1       1.852   8.260  19.561  0.00  0.00    +0.000 A 
ATOM      6  C   UNL     1       1.477   9.223  18.706  0.00  0.00    +0.000 A 
ATOM      7  C   UNL     1       0.627  10.331  19.206  0.00  0.00    +0.000 A 
ATOM      8  O   UNL     1       0.302  11.249  18.465  0.00  0.00    +0.000 OA
ATOM      9  C   UNL     1       0.174  10.272  20.618  0.00  0.00    +0.000 A 
ATOM     10  C   UNL     1      -0.672  11.257  21.140  0.00  0.00    +0.000 A 
ATOM     11  C   UNL     1      -1.087  11.177  22.469  0.00  0.00    +0.000 A 
ATOM     12  C   UNL     1      -0.657  10.119  23.272  0.00  0.00    +0.000 A 
ATOM     13  C   UNL     1       0.185   9.134  22.747  0.00  0.00    +0.000 A 
ATOM     14  C   UNL     1       0.592   9.190  21.410  0.00  0.00    +0.000 A 
ATOM     15  N   UNL     1       1.501   8.243  20.903  0.00  0.00    +0.000 N 
ATOM     16  H   UNL     1       1.441   7.319  21.319  0.00  0.00    +0.000 HD
ENDBRANCH   2   5
BRANCH   1  17
ATOM     17  C   UNL     1       4.031   5.145  19.680  0.00  0.00    +0.000 C 
BRANCH  17  24
ATOM     18  C   UNL     1       3.988   3.338  17.285  0.00  0.00    +0.000 C 
ATOM     19  N   UNL     1       2.822   3.494  18.162  0.00  0.00    +0.000 NA
ATOM     20  C   UNL     1       2.024   2.254  18.108  0.00  0.00    +0.000 C 
ATOM     21  C   UNL     1       0.732   2.384  18.907  0.00  0.00    +0.000 C 
ATOM     22  C   UNL     1       1.033   2.740  20.353  0.00  0.00    +0.000 C 
ATOM     23  C   UNL     1       1.920   3.978  20.416  0.00  0.00    +0.000 C 
ATOM     24  C   UNL     1       3.205   3.829  19.564  0.00  0.00    +0.000 C 
ENDBRANCH  17  24
ENDBRANCH   1  17
TORSDOF 3
ENDMDL
MODEL 3
REMARK VINA RESULT:      -7.7      1.667      2.284
REMARK  Name = 
REMARK  4 active torsions:
REMARK  status: ('A' for Active; 'I' for Inactive)
REMARK    1  A    between atoms: C_1  and  N_2
REMARK    2  A    between atoms: C_7  and  C_8
REMARK    3  A    between atoms: C_8  and  N_9
REMARK    4  A    between atoms: C_10  and  C_12
REMARK                            x       y       z     vdW  Elec       q    Type
REMARK                         _______ _______ _______ _____ _____    ______ ____
ROOT
ATOM      1  N   UNL     1       2.352   7.093  19.079  0.00  0.00    +0.000 N 
ATOM      2  C   UNL     1       2.138   8.267  18.388  0.00  0.00    +0.000 C 
ATOM      3  O   UNL     1       2.538   8.473  17.249  0.00  0.00    +0.000 OA
ATOM      4  H   UNL     1       2.180   7.086  20.074  0.00  0.00    +0.000 HD
ENDROOT
BRANCH   2   5
ATOM      5  C   UNL     1       1.345   9.286  19.175  0.00  0.00    +0.000 A 
ATOM      6  C   UNL     1       0.941  10.390  18.527  0.00  0.00    +0.000 A 
ATOM      7  C   UNL     1       0.118  11.386  19.257  0.00  0.00    +0.000 A 
ATOM      8  O   UNL     1      -0.232  12.424  18.712  0.00  0.00    +0.000 OA
ATOM      9  C   UNL     1      -0.277  11.067  20.652  0.00  0.00    +0.000 A 
ATOM     10  C   UNL     1      -1.095  11.937  21.381  0.00  0.00    +0.000 A 
ATOM     11  C   UNL     1      -1.456  11.613  22.688  0.00  0.00    +0.000 A 
ATOM     12  C   UNL     1      -0.999  10.427  23.265  0.00  0.00    +0.000 A 
ATOM     13  C   UNL     1      -0.185   9.557  22.533  0.00  0.00    +0.000 A 
ATOM     14  C   UNL     1       0.167   9.858  21.214  0.00  0.00    +0.000 A 
ATOM     15  N   UNL     1       1.048   9.023  20.504  0.00  0.00    +0.000 N 
ATOM     16  H   UNL     1       1.000   8.038  20.745  0.00  0.00    +0.000 HD
ENDBRANCH   2   5
BRANCH   1  17
ATOM     17  C   UNL     1       3.056   5.959  18.493  0.00  0.00    +0.000 C 
BRANCH  17  24
ATOM     18  C   UNL     1       2.589   3.254  17.283  0.00  0.00    +0.000 C 
ATOM     19  N   UNL     1       2.064   3.615  18.604  0.00  0.00    +0.000 NA
ATOM     20  C   UNL     1       1.937   2.387  19.412  0.00  0.00    +0.000 C 
ATOM     21  C   UNL     1       1.287   2.669  20.762  0.00  0.00    +0.000 C 
ATOM     22  C   UNL     1       2.084   3.710  21.530  0.00  0.00    +0.000 C 
ATOM     23  C   UNL     1       2.283   4.956  20.674  0.00  0.00    +0.000 C 
ATOM     24  C   UNL     1       2.909   4.632  19.295  0.00  0.00    +0.000 C 
ENDBRANCH  17  24
ENDBRANCH   1  17
TORSDOF 3
ENDMDL
MODEL 4
REMARK VINA RESULT:      -7.6      2.410      4.261
REMARK  Name = 
REMARK  4 active torsions:
REMARK  status: ('A' for Active; 'I' for Inactive)
REMARK    1  A    between atoms: C_1  and  N_2
REMARK    2  A    between atoms: C_7  and  C_8
REMARK    3  A    between atoms: C_8  and  N_9
REMARK    4  A    between atoms: C_10  and  C_12
REMARK                            x       y       z     vdW  Elec       q    Type
REMARK                         _______ _______ _______ _____ _____    ______ ____
ROOT
ATOM      1  N   UNL     1       4.237   5.672  19.347  0.00  0.00    +0.000 N 
ATOM      2  C   UNL     1       2.866   5.663  19.498  0.00  0.00    +0.000 C 
ATOM      3  O   UNL     1       2.189   4.643  19.548  0.00  0.00    +0.000 OA
ATOM      4  H   UNL     1       4.686   6.542  19.100  0.00  0.00    +0.000 HD
ENDROOT
BRANCH   2   5
ATOM      5  C   UNL     1       2.269   7.049  19.605  0.00  0.00    +0.000 A 
ATOM      6  C   UNL     1       2.278   7.813  18.503  0.00  0.00    +0.000 A 
ATOM      7  C   UNL     1       1.655   9.159  18.562  0.00  0.00    +0.000 A 
ATOM      8  O   UNL     1       1.682   9.900  17.589  0.00  0.00    +0.000 OA
ATOM      9  C   UNL     1       0.987   9.556  19.826  0.00  0.00    +0.000 A 
ATOM     10  C   UNL     1       0.335  10.790  19.933  0.00  0.00    +0.000 A 
ATOM     11  C   UNL     1      -0.289  11.139  21.131  0.00  0.00    +0.000 A 
ATOM     12  C   UNL     1      -0.260  10.261  22.215  0.00  0.00    +0.000 A 
ATOM     13  C   UNL     1       0.389   9.027  22.104  0.00  0.00    +0.000 A 
ATOM     14  C   UNL     1       1.001   8.655  20.903  0.00  0.00    +0.000 A 
ATOM     15  N   UNL     1       1.720   7.449  20.814  0.00  0.00    +0.000 N 
ATOM     16  H   UNL     1       1.373   6.694  21.398  0.00  0.00    +0.000 HD
ENDBRANCH   2   5
BRANCH   1  17
ATOM     17  C   UNL     1       5.021   4.445  19.267  0.00  0.00    +0.000 C 
BRANCH  17  24
ATOM     18  C   UNL     1       7.670   5.693  18.613  0.00  0.00    +0.000 C 
ATOM     19  N   UNL     1       6.662   5.426  17.582  0.00  0.00    +0.000 NA
ATOM     20  C   UNL     1       7.350   5.217  16.294  0.00  0.00    +0.000 C 
ATOM     21  C   UNL     1       6.357   5.048  15.149  0.00  0.00    +0.000 C 
ATOM     22  C   UNL     1       5.418   3.887  15.426  0.00  0.00    +0.000 C 
ATOM     23  C   UNL     1       4.757   4.057  16.789  0.00  0.00    +0.000 C 
ATOM     24  C   UNL     1       5.790   4.265  17.924  0.00  0.00    +0.000 C 
ENDBRANCH  17  24
ENDBRANCH   1  17
TORSDOF 3
ENDMDL
MODEL 5
REMARK VINA RESULT:      -7.6      0.768      1.547
REMARK  Name = 
REMARK  4 active torsions:
REMARK  status: ('A' for Active; 'I' for Inactive)
REMARK    1  A    between atoms: C_1  and  N_2
REMARK    2  A    between atoms: C_7  and  C_8
REMARK    3  A    between atoms: C_8  and  N_9
REMARK    4  A    between atoms: C_10  and  C_12
REMARK                            x       y       z     vdW  Elec       q    Type
REMARK                         _______ _______ _______ _____ _____    ______ ____
ROOT
ATOM      1  N   UNL     1       2.411   6.882  20.472  0.00  0.00    +0.000 N 
ATOM      2  C   UNL     1       1.926   7.959  19.762  0.00  0.00    +0.000 C 
ATOM      3  O   UNL     1       2.187   8.177  18.585  0.00  0.00    +0.000 OA
ATOM      4  H   UNL     1       2.325   6.894  21.479  0.00  0.00    +0.000 HD
ENDROOT
BRANCH   2   5
ATOM      5  C   UNL     1       1.022   8.855  20.580  0.00  0.00    +0.000 A 
ATOM      6  C   UNL     1       1.123   8.781  21.915  0.00  0.00    +0.000 A 
ATOM      7  C   UNL     1       0.286   9.682  22.746  0.00  0.00    +0.000 A 
ATOM      8  O   UNL     1       0.319   9.613  23.967  0.00  0.00    +0.000 OA
ATOM      9  C   UNL     1      -0.567  10.674  22.045  0.00  0.00    +0.000 A 
ATOM     10  C   UNL     1      -1.342  11.589  22.767  0.00  0.00    +0.000 A 
ATOM     11  C   UNL     1      -2.131  12.514  22.085  0.00  0.00    +0.000 A 
ATOM     12  C   UNL     1      -2.149  12.523  20.689  0.00  0.00    +0.000 A 
ATOM     13  C   UNL     1      -1.371  11.611  19.970  0.00  0.00    +0.000 A 
ATOM     14  C   UNL     1      -0.558  10.692  20.641  0.00  0.00    +0.000 A 
ATOM     15  N   UNL     1       0.165   9.723  19.920  0.00  0.00    +0.000 N 
ATOM     16  H   UNL     1       0.474  10.011  18.997  0.00  0.00    +0.000 HD
ENDBRANCH   2   5
BRANCH   1  17
ATOM     17  C   UNL     1       3.265   5.868  19.867  0.00  0.00    +0.000 C 
BRANCH  17  24
ATOM     18  C   UNL     1       2.161   3.558  21.431  0.00  0.00    +0.000 C 
ATOM     19  N   UNL     1       2.634   3.406  20.052  0.00  0.00    +0.000 NA
ATOM     20  C   UNL     1       1.903   2.289  19.423  0.00  0.00    +0.000 C 
ATOM     21  C   UNL     1       2.425   1.996  18.021  0.00  0.00    +0.000 C 
ATOM     22  C   UNL     1       2.325   3.234  17.146  0.00  0.00    +0.000 C 
ATOM     23  C   UNL     1       3.016   4.413  17.822  0.00  0.00    +0.000 C 
ATOM     24  C   UNL     1       2.491   4.661  19.258  0.00  0.00    +0.000 C 
ENDBRANCH  17  24
ENDBRANCH   1  17
TORSDOF 3
ENDMDL
MODEL 6
REMARK VINA RESULT:      -7.6      1.843      2.515
REMARK  Name = 
REMARK  4 active torsions:
REMARK  status: ('A' for Active; 'I' for Inactive)
REMARK    1  A    between atoms: C_1  and  N_2
REMARK    2  A    between atoms: C_7  and  C_8
REMARK    3  A    between atoms: C_8  and  N_9
REMARK    4  A    between atoms: C_10  and  C_12
REMARK                            x       y       z     vdW  Elec       q    Type
REMARK                         _______ _______ _______ _____ _____    ______ ____
ROOT
ATOM      1  N   UNL     1       2.359   7.244  18.748  0.00  0.00    +0.000 N 
ATOM      2  C   UNL     1       2.123   8.482  18.189  0.00  0.00    +0.000 C 
ATOM      3  O   UNL     1       2.515   8.818  17.078  0.00  0.00    +0.000 OA
ATOM      4  H   UNL     1       2.191   7.125  19.737  0.00  0.00    +0.000 HD
ENDROOT
BRANCH   2   5
ATOM      5  C   UNL     1       1.316   9.396  19.083  0.00  0.00    +0.000 A 
ATOM      6  C   UNL     1       0.802  10.506  18.532  0.00  0.00    +0.000 A 
ATOM      7  C   UNL     1      -0.036  11.398  19.370  0.00  0.00    +0.000 A 
ATOM      8  O   UNL     1      -0.486  12.441  18.913  0.00  0.00    +0.000 OA
ATOM      9  C   UNL     1      -0.322  10.971  20.762  0.00  0.00    +0.000 A 
ATOM     10  C   UNL     1      -1.148  11.739  21.591  0.00  0.00    +0.000 A 
ATOM     11  C   UNL     1      -1.405  11.313  22.894  0.00  0.00    +0.000 A 
ATOM     12  C   UNL     1      -0.838  10.129  23.367  0.00  0.00    +0.000 A 
ATOM     13  C   UNL     1      -0.016   9.361  22.535  0.00  0.00    +0.000 A 
ATOM     14  C   UNL     1       0.232   9.764  21.220  0.00  0.00    +0.000 A 
ATOM     15  N   UNL     1       1.120   9.035  20.408  0.00  0.00    +0.000 N 
ATOM     16  H   UNL     1       1.151   8.036  20.589  0.00  0.00    +0.000 HD
ENDBRANCH   2   5
BRANCH   1  17
ATOM     17  C   UNL     1       3.080   6.192  18.040  0.00  0.00    +0.000 C 
BRANCH  17  24
ATOM     18  C   UNL     1       5.286   4.461  19.106  0.00  0.00    +0.000 C 
ATOM     19  N   UNL     1       4.086   3.893  18.482  0.00  0.00    +0.000 NA
ATOM     20  C   UNL     1       3.849   2.553  19.050  0.00  0.00    +0.000 C 
ATOM     21  C   UNL     1       2.681   1.852  18.364  0.00  0.00    +0.000 C 
ATOM     22  C   UNL     1       1.419   2.689  18.474  0.00  0.00    +0.000 C 
ATOM     23  C   UNL     1       1.675   4.099  17.957  0.00  0.00    +0.000 C 
ATOM     24  C   UNL     1       2.889   4.769  18.645  0.00  0.00    +0.000 C 
ENDBRANCH  17  24
ENDBRANCH   1  17
TORSDOF 3
ENDMDL
MODEL 7
REMARK VINA RESULT:      -7.6      1.154      1.427
REMARK  Name = 
REMARK  4 active torsions:
REMARK  status: ('A' for Active; 'I' for Inactive)
REMARK    1  A    between atoms: C_1  and  N_2
REMARK    2  A    between atoms: C_7  and  C_8
REMARK    3  A    between atoms: C_8  and  N_9
REMARK    4  A    between atoms: C_10  and  C_12
REMARK                            x       y       z     vdW  Elec       q    Type
REMARK                         _______ _______ _______ _____ _____    ______ ____
ROOT
ATOM      1  N   UNL     1       2.167   7.655  19.325  0.00  0.00    +0.000 N 
ATOM      2  C   UNL     1       1.629   8.867  18.948  0.00  0.00    +0.000 C 
ATOM      3  O   UNL     1       1.794   9.376  17.846  0.00  0.00    +0.000 OA
ATOM      4  H   UNL     1       2.163   7.413  20.306  0.00  0.00    +0.000 HD
ENDROOT
BRANCH   2   5
ATOM      5  C   UNL     1       0.796   9.513  20.033  0.00  0.00    +0.000 A 
ATOM      6  C   UNL     1       1.095   9.209  21.305  0.00  0.00    +0.000 A 
ATOM      7  C   UNL     1       0.330   9.865  22.395  0.00  0.00    +0.000 A 
ATOM      8  O   UNL     1       0.545   9.580  23.565  0.00  0.00    +0.000 OA
ATOM      9  C   UNL     1      -0.680  10.884  22.014  0.00  0.00    +0.000 A 
ATOM     10  C   UNL     1      -1.400  11.578  22.993  0.00  0.00    +0.000 A 
ATOM     11  C   UNL     1      -2.340  12.534  22.609  0.00  0.00    +0.000 A 
ATOM     12  C   UNL     1      -2.561  12.792  21.256  0.00  0.00    +0.000 A 
ATOM     13  C   UNL     1      -1.838  12.100  20.280  0.00  0.00    +0.000 A 
ATOM     14  C   UNL     1      -0.876  11.154  20.650  0.00  0.00    +0.000 A 
ATOM     15  N   UNL     1      -0.203  10.403  19.669  0.00  0.00    +0.000 N 
ATOM     16  H   UNL     1      -0.052  10.880  18.786  0.00  0.00    +0.000 HD
ENDBRANCH   2   5
BRANCH   1  17
ATOM     17  C   UNL     1       2.967   6.840  18.419  0.00  0.00    +0.000 C 
BRANCH  17  24
ATOM     18  C   UNL     1       5.335   5.170  19.198  0.00  0.00    +0.000 C 
ATOM     19  N   UNL     1       4.211   4.616  18.434  0.00  0.00    +0.000 NA
ATOM     20  C   UNL     1       4.114   3.172  18.721  0.00  0.00    +0.000 C 
ATOM     21  C   UNL     1       3.038   2.504  17.872  0.00  0.00    +0.000 C 
ATOM     22  C   UNL     1       1.691   3.167  18.101  0.00  0.00    +0.000 C 
ATOM     23  C   UNL     1       1.799   4.670  17.880  0.00  0.00    +0.000 C 
ATOM     24  C   UNL     1       2.925   5.313  18.726  0.00  0.00    +0.000 C 
ENDBRANCH  17  24
ENDBRANCH   1  17
TORSDOF 3
ENDMDL
MODEL 8
REMARK VINA RESULT:      -7.5      1.820      2.378
REMARK  Name = 
REMARK  4 active torsions:
REMARK  status: ('A' for Active; 'I' for Inactive)
REMARK    1  A    between atoms: C_1  and  N_2
REMARK    2  A    between atoms: C_7  and  C_8
REMARK    3  A    between atoms: C_8  and  N_9
REMARK    4  A    between atoms: C_10  and  C_12
REMARK                            x       y       z     vdW  Elec       q    Type
REMARK                         _______ _______ _______ _____ _____    ______ ____
ROOT
ATOM      1  N   UNL     1       2.251   7.457  19.342  0.00  0.00    +0.000 N 
ATOM      2  C   UNL     1       1.968   8.533  18.528  0.00  0.00    +0.000 C 
ATOM      3  O   UNL     1       2.406   8.667  17.392  0.00  0.00    +0.000 OA
ATOM      4  H   UNL     1       2.029   7.528  20.325  0.00  0.00    +0.000 HD
ENDROOT
BRANCH   2   5
ATOM      5  C   UNL     1       1.045   9.543  19.174  0.00  0.00    +0.000 A 
ATOM      6  C   UNL     1       0.431  10.423  18.370  0.00  0.00    +0.000 A 
ATOM      7  C   UNL     1      -0.518  11.395  18.967  0.00  0.00    +0.000 A 
ATOM      8  O   UNL     1      -1.064  12.240  18.270  0.00  0.00    +0.000 OA
ATOM      9  C   UNL     1      -0.794  11.288  20.421  0.00  0.00    +0.000 A 
ATOM     10  C   UNL     1      -1.718  12.138  21.039  0.00  0.00    +0.000 A 
ATOM     11  C   UNL     1      -1.962  12.014  22.406  0.00  0.00    +0.000 A 
ATOM     12  C   UNL     1      -1.285  11.048  23.152  0.00  0.00    +0.000 A 
ATOM     13  C   UNL     1      -0.366  10.197  22.532  0.00  0.00    +0.000 A 
ATOM     14  C   UNL     1      -0.126  10.295  21.157  0.00  0.00    +0.000 A 
ATOM     15  N   UNL     1       0.855   9.492  20.547  0.00  0.00    +0.000 N 
ATOM     16  H   UNL     1       0.986   8.577  20.965  0.00  0.00    +0.000 HD
ENDBRANCH   2   5
BRANCH   1  17
ATOM     17  C   UNL     1       3.085   6.344  18.903  0.00  0.00    +0.000 C 
BRANCH  17  24
ATOM     18  C   UNL     1       5.032   4.062  18.850  0.00  0.00    +0.000 C 
ATOM     19  N   UNL     1       3.626   3.875  19.225  0.00  0.00    +0.000 NA
ATOM     20  C   UNL     1       3.532   2.720  20.138  0.00  0.00    +0.000 C 
ATOM     21  C   UNL     1       2.082   2.393  20.479  0.00  0.00    +0.000 C 
ATOM     22  C   UNL     1       1.396   3.597  21.100  0.00  0.00    +0.000 C 
ATOM     23  C   UNL     1       1.552   4.815  20.197  0.00  0.00    +0.000 C 
ATOM     24  C   UNL     1       3.032   5.098  19.837  0.00  0.00    +0.000 C 
ENDBRANCH  17  24
ENDBRANCH   1  17
TORSDOF 3
ENDMDL
MODEL 9
REMARK VINA RESULT:      -7.4      2.241      3.633
REMARK  Name = 
REMARK  4 active torsions:
REMARK  status: ('A' for Active; 'I' for Inactive)
REMARK    1  A    between atoms: C_1  and  N_2
REMARK    2  A    between atoms: C_7  and  C_8
REMARK    3  A    between atoms: C_8  and  N_9
REMARK    4  A    between atoms: C_10  and  C_12
REMARK                            x       y       z     vdW  Elec       q    Type
REMARK                         _______ _______ _______ _____ _____    ______ ____
ROOT
ATOM      1  N   UNL     1       3.111   6.211  19.905  0.00  0.00    +0.000 N 
ATOM      2  C   UNL     1       2.606   7.067  18.949  0.00  0.00    +0.000 C 
ATOM      3  O   UNL     1       2.759   6.915  17.744  0.00  0.00    +0.000 OA
ATOM      4  H   UNL     1       3.125   6.521  20.866  0.00  0.00    +0.000 HD
ENDROOT
BRANCH   2   5
ATOM      5  C   UNL     1       1.826   8.223  19.536  0.00  0.00    +0.000 A 
ATOM      6  C   UNL     1       1.468   9.213  18.706  0.00  0.00    +0.000 A 
ATOM      7  C   UNL     1       0.659  10.337  19.240  0.00  0.00    +0.000 A 
ATOM      8  O   UNL     1       0.351  11.279  18.522  0.00  0.00    +0.000 OA
ATOM      9  C   UNL     1       0.226  10.264  20.657  0.00  0.00    +0.000 A 
ATOM     10  C   UNL     1      -0.582  11.263  21.211  0.00  0.00    +0.000 A 
ATOM     11  C   UNL     1      -0.980  11.169  22.544  0.00  0.00    +0.000 A 
ATOM     12  C   UNL     1      -0.571  10.084  23.320  0.00  0.00    +0.000 A 
ATOM     13  C   UNL     1       0.233   9.084  22.763  0.00  0.00    +0.000 A 
ATOM     14  C   UNL     1       0.622   9.154  21.422  0.00  0.00    +0.000 A 
ATOM     15  N   UNL     1       1.494   8.191  20.882  0.00  0.00    +0.000 N 
ATOM     16  H   UNL     1       1.412   7.261  21.282  0.00  0.00    +0.000 HD
ENDBRANCH   2   5
BRANCH   1  17
ATOM     17  C   UNL     1       3.858   5.008  19.559  0.00  0.00    +0.000 C 
BRANCH  17  24
ATOM     18  C   UNL     1       4.077   3.874  16.790  0.00  0.00    +0.000 C 
ATOM     19  N   UNL     1       5.259   4.132  17.619  0.00  0.00    +0.000 NA
ATOM     20  C   UNL     1       6.407   4.401  16.732  0.00  0.00    +0.000 C 
ATOM     21  C   UNL     1       7.699   4.566  17.523  0.00  0.00    +0.000 C 
ATOM     22  C   UNL     1       7.563   5.684  18.540  0.00  0.00    +0.000 C 
ATOM     23  C   UNL     1       6.336   5.454  19.415  0.00  0.00    +0.000 C 
ATOM     24  C   UNL     1       5.046   5.252  18.582  0.00  0.00    +0.000 C 
ENDBRANCH  17  24
ENDBRANCH   1  17
TORSDOF 3
ENDMDL
