MODEL 1
REMARK VINA RESULT:      -8.3      0.000      0.000
REMARK  Name = 
REMARK  9 active torsions:
REMARK  status: ('A' for Active; 'I' for Inactive)
REMARK    1  A    between atoms: C_1  and  C_2
REMARK    2  A    between atoms: C_3  and  C_4
REMARK    3  A    between atoms: C_4  and  C_5
REMARK    4  A    between atoms: C_5  and  O_7
REMARK    5  A    between atoms: C_12  and  C_13
REMARK    6  A    between atoms: C_14  and  O_15
REMARK    7  A    between atoms: O_15  and  C_16
REMARK    8  A    between atoms: C_16  and  C_17
REMARK    9  A    between atoms: C_20  and  C_21
REMARK                            x       y       z     vdW  Elec       q    Type
REMARK                         _______ _______ _______ _____ _____    ______ ____
ROOT
ATOM      1  C   UNL     1       4.297   6.111  17.207  0.00  0.00    +0.000 C 
ATOM      2  C   UNL     1       3.422   6.103  18.436  0.00  0.00    +0.000 A 
ATOM      3  C   UNL     1       3.295   5.034  19.255  0.00  0.00    +0.000 A 
ATOM      4  C   UNL     1       2.432   5.100  20.466  0.00  0.00    +0.000 A 
ATOM      5  O   UNL     1       2.210   4.111  21.157  0.00  0.00    +0.000 OA
ATOM      6  O   UNL     1       1.880   6.323  20.790  0.00  0.00    +0.000 OA
ATOM      7  C   UNL     1       1.895   7.406  19.894  0.00  0.00    +0.000 A 
ATOM      8  C   UNL     1       1.092   8.515  20.217  0.00  0.00    +0.000 A 
ATOM      9  C   UNL     1       0.314   8.584  21.505  0.00  0.00    +0.000 C 
ATOM     10  C   UNL     1       1.018   9.580  19.305  0.00  0.00    +0.000 A 
ATOM     11  C   UNL     1       1.762   9.534  18.128  0.00  0.00    +0.000 A 
ATOM     12  C   UNL     1       2.577   8.427  17.849  0.00  0.00    +0.000 A 
ATOM     13  C   UNL     1       2.646   7.331  18.721  0.00  0.00    +0.000 A 
ENDROOT
BRANCH   3  14
ATOM     14  C   UNL     1       3.899   3.665  19.015  0.00  0.00    +0.000 C 
BRANCH  14  15
ATOM     15  C   UNL     1       3.159   2.784  18.023  0.00  0.00    +0.000 C 
ATOM     16  O   UNL     1       2.093   3.041  17.490  0.00  0.00    +0.000 OA
BRANCH  15  17
ATOM     17  O   UNL     1       3.809   1.611  17.804  0.00  0.00    +0.000 OA
ATOM     18  H   UNL     1       3.740   1.274  16.889  0.00  0.00    +0.000 HD
ENDBRANCH  15  17
ENDBRANCH  14  15
ENDBRANCH   3  14
BRANCH  10  19
ATOM     19  O   UNL     1       0.128  10.567  19.623  0.00  0.00    +0.000 OA
BRANCH  19  20
ATOM     20  C   UNL     1      -0.227  11.508  18.610  0.00  0.00    +0.000 C 
BRANCH  20  21
ATOM     21  C   UNL     1      -1.506  11.012  18.028  0.00  0.00    +0.000 A 
ATOM     22  C   UNL     1      -1.822   9.948  17.206  0.00  0.00    +0.000 A 
ATOM     23  C   UNL     1      -3.214  10.024  16.964  0.00  0.00    +0.000 A 
ATOM     24  C   UNL     1      -3.676  11.125  17.656  0.00  0.00    +0.000 A 
ATOM     25  O   UNL     1      -2.634  11.729  18.312  0.00  0.00    +0.000 OA
BRANCH  24  26
ATOM     26  C   UNL     1      -5.022  11.737  17.796  0.00  0.00    +0.000 C 
ATOM     27  F   UNL     1      -5.999  10.792  17.876  0.00  0.00    +0.000 F 
ATOM     28  F   UNL     1      -5.126  12.497  18.915  0.00  0.00    +0.000 F 
ATOM     29  F   UNL     1      -5.337  12.532  16.743  0.00  0.00    +0.000 F 
ENDBRANCH  24  26
ENDBRANCH  20  21
ENDBRANCH  19  20
ENDBRANCH  10  19
TORSDOF 7
ENDMDL
MODEL 2
REMARK VINA RESULT:      -8.2      3.597      4.797
REMARK  Name = 
REMARK  9 active torsions:
REMARK  status: ('A' for Active; 'I' for Inactive)
REMARK    1  A    between atoms: C_1  and  C_2
REMARK    2  A    between atoms: C_3  and  C_4
REMARK    3  A    between atoms: C_4  and  C_5
REMARK    4  A    between atoms: C_5  and  O_7
REMARK    5  A    between atoms: C_12  and  C_13
REMARK    6  A    between atoms: C_14  and  O_15
REMARK    7  A    between atoms: O_15  and  C_16
REMARK    8  A    between atoms: C_16  and  C_17
REMARK    9  A    between atoms: C_20  and  C_21
REMARK                            x       y       z     vdW  Elec       q    Type
REMARK                         _______ _______ _______ _____ _____    ______ ____
ROOT
ATOM      1  C   UNL     1       4.253   3.294  18.414  0.00  0.00    +0.000 C 
ATOM      2  C   UNL     1       4.167   4.679  17.822  0.00  0.00    +0.000 A 
ATOM      3  C   UNL     1       4.825   5.055  16.702  0.00  0.00    +0.000 A 
ATOM      4  C   UNL     1       4.678   6.433  16.157  0.00  0.00    +0.000 A 
ATOM      5  O   UNL     1       5.352   6.831  15.213  0.00  0.00    +0.000 OA
ATOM      6  O   UNL     1       3.749   7.260  16.757  0.00  0.00    +0.000 OA
ATOM      7  C   UNL     1       3.151   6.936  17.987  0.00  0.00    +0.000 A 
ATOM      8  C   UNL     1       2.418   7.952  18.628  0.00  0.00    +0.000 A 
ATOM      9  C   UNL     1       2.207   9.301  17.993  0.00  0.00    +0.000 C 
ATOM     10  C   UNL     1       1.877   7.691  19.898  0.00  0.00    +0.000 A 
ATOM     11  C   UNL     1       2.043   6.434  20.474  0.00  0.00    +0.000 A 
ATOM     12  C   UNL     1       2.753   5.432  19.795  0.00  0.00    +0.000 A 
ATOM     13  C   UNL     1       3.337   5.671  18.543  0.00  0.00    +0.000 A 
ENDROOT
BRANCH   3  14
ATOM     14  C   UNL     1       5.827   4.207  15.944  0.00  0.00    +0.000 C 
BRANCH  14  15
ATOM     15  C   UNL     1       7.285   4.590  16.127  0.00  0.00    +0.000 C 
ATOM     16  O   UNL     1       7.982   4.327  17.090  0.00  0.00    +0.000 OA
BRANCH  15  17
ATOM     17  O   UNL     1       7.751   5.323  15.081  0.00  0.00    +0.000 OA
ATOM     18  H   UNL     1       8.402   4.859  14.519  0.00  0.00    +0.000 HD
ENDBRANCH  15  17
ENDBRANCH  14  15
ENDBRANCH   3  14
BRANCH  10  19
ATOM     19  O   UNL     1       1.284   8.756  20.515  0.00  0.00    +0.000 OA
BRANCH  19  20
ATOM     20  C   UNL     1       1.361   8.841  21.938  0.00  0.00    +0.000 C 
BRANCH  20  21
ATOM     21  C   UNL     1       0.352   9.861  22.339  0.00  0.00    +0.000 A 
ATOM     22  C   UNL     1      -0.759   9.822  23.159  0.00  0.00    +0.000 A 
ATOM     23  C   UNL     1      -1.342  11.110  23.110  0.00  0.00    +0.000 A 
ATOM     24  C   UNL     1      -0.553  11.870  22.270  0.00  0.00    +0.000 A 
ATOM     25  O   UNL     1       0.486  11.109  21.800  0.00  0.00    +0.000 OA
BRANCH  24  26
ATOM     26  C   UNL     1      -0.638  13.278  21.807  0.00  0.00    +0.000 C 
ATOM     27  F   UNL     1      -0.647  13.362  20.449  0.00  0.00    +0.000 F 
ATOM     28  F   UNL     1      -1.767  13.893  22.241  0.00  0.00    +0.000 F 
ATOM     29  F   UNL     1       0.413  14.024  22.234  0.00  0.00    +0.000 F 
ENDBRANCH  24  26
ENDBRANCH  20  21
ENDBRANCH  19  20
ENDBRANCH  10  19
TORSDOF 7
ENDMDL
MODEL 3
REMARK VINA RESULT:      -8.2      1.579      1.999
REMARK  Name = 
REMARK  9 active torsions:
REMARK  status: ('A' for Active; 'I' for Inactive)
REMARK    1  A    between atoms: C_1  and  C_2
REMARK    2  A    between atoms: C_3  and  C_4
REMARK    3  A    between atoms: C_4  and  C_5
REMARK    4  A    between atoms: C_5  and  O_7
REMARK    5  A    between atoms: C_12  and  C_13
REMARK    6  A    between atoms: C_14  and  O_15
REMARK    7  A    between atoms: O_15  and  C_16
REMARK    8  A    between atoms: C_16  and  C_17
REMARK    9  A    between atoms: C_20  and  C_21
REMARK                            x       y       z     vdW  Elec       q    Type
REMARK                         _______ _______ _______ _____ _____    ______ ____
ROOT
ATOM      1  C   UNL     1       3.940   6.827  16.884  0.00  0.00    +0.000 C 
ATOM      2  C   UNL     1       3.177   6.671  18.176  0.00  0.00    +0.000 A 
ATOM      3  C   UNL     1       3.115   5.513  18.872  0.00  0.00    +0.000 A 
ATOM      4  C   UNL     1       2.363   5.434  20.154  0.00  0.00    +0.000 A 
ATOM      5  O   UNL     1       2.196   4.371  20.741  0.00  0.00    +0.000 OA
ATOM      6  O   UNL     1       1.851   6.609  20.667  0.00  0.00    +0.000 OA
ATOM      7  C   UNL     1       1.796   7.790  19.906  0.00  0.00    +0.000 A 
ATOM      8  C   UNL     1       1.033   8.851  20.427  0.00  0.00    +0.000 A 
ATOM      9  C   UNL     1       0.372   8.766  21.778  0.00  0.00    +0.000 C 
ATOM     10  C   UNL     1       0.886  10.016  19.656  0.00  0.00    +0.000 A 
ATOM     11  C   UNL     1       1.523  10.111  18.420  0.00  0.00    +0.000 A 
ATOM     12  C   UNL     1       2.302   9.046  17.942  0.00  0.00    +0.000 A 
ATOM     13  C   UNL     1       2.439   7.855  18.671  0.00  0.00    +0.000 A 
ENDROOT
BRANCH   3  14
ATOM     14  C   UNL     1       3.685   4.184  18.420  0.00  0.00    +0.000 C 
BRANCH  14  15
ATOM     15  C   UNL     1       5.002   3.781  19.062  0.00  0.00    +0.000 C 
ATOM     16  O   UNL     1       6.056   4.386  18.980  0.00  0.00    +0.000 OA
BRANCH  15  17
ATOM     17  O   UNL     1       4.897   2.606  19.737  0.00  0.00    +0.000 OA
ATOM     18  H   UNL     1       5.590   1.951  19.522  0.00  0.00    +0.000 HD
ENDBRANCH  15  17
ENDBRANCH  14  15
ENDBRANCH   3  14
BRANCH  10  19
ATOM     19  O   UNL     1       0.035  10.956  20.165  0.00  0.00    +0.000 OA
BRANCH  19  20
ATOM     20  C   UNL     1      -0.276  12.092  19.359  0.00  0.00    +0.000 C 
BRANCH  20  21
ATOM     21  C   UNL     1      -1.632  11.832  18.799  0.00  0.00    +0.000 A 
ATOM     22  C   UNL     1      -2.909  12.018  19.288  0.00  0.00    +0.000 A 
ATOM     23  C   UNL     1      -3.796  11.539  18.295  0.00  0.00    +0.000 A 
ATOM     24  C   UNL     1      -3.014  11.094  17.248  0.00  0.00    +0.000 A 
ATOM     25  O   UNL     1      -1.690  11.276  17.552  0.00  0.00    +0.000 OA
BRANCH  24  26
ATOM     26  C   UNL     1      -3.340  10.479  15.936  0.00  0.00    +0.000 C 
ATOM     27  F   UNL     1      -4.614  10.761  15.551  0.00  0.00    +0.000 F 
ATOM     28  F   UNL     1      -2.527  10.926  14.946  0.00  0.00    +0.000 F 
ATOM     29  F   UNL     1      -3.232   9.126  15.961  0.00  0.00    +0.000 F 
ENDBRANCH  24  26
ENDBRANCH  20  21
ENDBRANCH  19  20
ENDBRANCH  10  19
TORSDOF 7
ENDMDL
MODEL 4
REMARK VINA RESULT:      -8.2      7.025      8.968
REMARK  Name = 
REMARK  9 active torsions:
REMARK  status: ('A' for Active; 'I' for Inactive)
REMARK    1  A    between atoms: C_1  and  C_2
REMARK    2  A    between atoms: C_3  and  C_4
REMARK    3  A    between atoms: C_4  and  C_5
REMARK    4  A    between atoms: C_5  and  O_7
REMARK    5  A    between atoms: C_12  and  C_13
REMARK    6  A    between atoms: C_14  and  O_15
REMARK    7  A    between atoms: O_15  and  C_16
REMARK    8  A    between atoms: C_16  and  C_17
REMARK    9  A    between atoms: C_20  and  C_21
REMARK                            x       y       z     vdW  Elec       q    Type
REMARK                         _______ _______ _______ _____ _____    ______ ____
ROOT
ATOM      1  C   UNL     1       1.735   4.778  17.766  0.00  0.00    +0.000 C 
ATOM      2  C   UNL     1       3.086   4.353  18.286  0.00  0.00    +0.000 A 
ATOM      3  C   UNL     1       3.278   3.261  19.060  0.00  0.00    +0.000 A 
ATOM      4  C   UNL     1       4.642   2.884  19.522  0.00  0.00    +0.000 A 
ATOM      5  O   UNL     1       4.826   1.969  20.317  0.00  0.00    +0.000 OA
ATOM      6  O   UNL     1       5.707   3.607  19.022  0.00  0.00    +0.000 OA
ATOM      7  C   UNL     1       5.523   4.812  18.322  0.00  0.00    +0.000 A 
ATOM      8  C   UNL     1       6.670   5.592  18.080  0.00  0.00    +0.000 A 
ATOM      9  C   UNL     1       8.046   5.124  18.473  0.00  0.00    +0.000 C 
ATOM     10  C   UNL     1       6.514   6.841  17.458  0.00  0.00    +0.000 A 
ATOM     11  C   UNL     1       5.246   7.263  17.064  0.00  0.00    +0.000 A 
ATOM     12  C   UNL     1       4.126   6.449  17.293  0.00  0.00    +0.000 A 
ATOM     13  C   UNL     1       4.243   5.212  17.944  0.00  0.00    +0.000 A 
ENDROOT
BRANCH   3  14
ATOM     14  C   UNL     1       2.183   2.375  19.619  0.00  0.00    +0.000 C 
BRANCH  14  15
ATOM     15  C   UNL     1       1.541   2.858  20.909  0.00  0.00    +0.000 C 
ATOM     16  O   UNL     1       1.868   2.538  22.038  0.00  0.00    +0.000 OA
BRANCH  15  17
ATOM     17  O   UNL     1       0.494   3.691  20.672  0.00  0.00    +0.000 OA
ATOM     18  H   UNL     1       0.736   4.538  20.250  0.00  0.00    +0.000 HD
ENDBRANCH  15  17
ENDBRANCH  14  15
ENDBRANCH   3  14
BRANCH  10  19
ATOM     19  O   UNL     1       7.648   7.597  17.363  0.00  0.00    +0.000 OA
BRANCH  19  20
ATOM     20  C   UNL     1       8.322   7.957  18.569  0.00  0.00    +0.000 C 
BRANCH  20  21
ATOM     21  C   UNL     1       8.601   9.417  18.457  0.00  0.00    +0.000 A 
ATOM     22  C   UNL     1       8.196  10.392  17.567  0.00  0.00    +0.000 A 
ATOM     23  C   UNL     1       8.832  11.591  17.965  0.00  0.00    +0.000 A 
ATOM     24  C   UNL     1       9.585  11.288  19.081  0.00  0.00    +0.000 A 
ATOM     25  O   UNL     1       9.442   9.959  19.387  0.00  0.00    +0.000 OA
BRANCH  24  26
ATOM     26  C   UNL     1      10.477  12.100  19.947  0.00  0.00    +0.000 C 
ATOM     27  F   UNL     1      11.588  11.405  20.317  0.00  0.00    +0.000 F 
ATOM     28  F   UNL     1      10.913  13.224  19.324  0.00  0.00    +0.000 F 
ATOM     29  F   UNL     1       9.865  12.490  21.094  0.00  0.00    +0.000 F 
ENDBRANCH  24  26
ENDBRANCH  20  21
ENDBRANCH  19  20
ENDBRANCH  10  19
TORSDOF 7
ENDMDL
MODEL 5
REMARK VINA RESULT:      -8.2      7.129      8.860
REMARK  Name = 
REMARK  9 active torsions:
REMARK  status: ('A' for Active; 'I' for Inactive)
REMARK    1  A    between atoms: C_1  and  C_2
REMARK    2  A    between atoms: C_3  and  C_4
REMARK    3  A    between atoms: C_4  and  C_5
REMARK    4  A    between atoms: C_5  and  O_7
REMARK    5  A    between atoms: C_12  and  C_13
REMARK    6  A    between atoms: C_14  and  O_15
REMARK    7  A    between atoms: O_15  and  C_16
REMARK    8  A    between atoms: C_16  and  C_17
REMARK    9  A    between atoms: C_20  and  C_21
REMARK                            x       y       z     vdW  Elec       q    Type
REMARK                         _______ _______ _______ _____ _____    ______ ____
ROOT
ATOM      1  C   UNL     1       2.027   4.408  17.400  0.00  0.00    +0.000 C 
ATOM      2  C   UNL     1       3.294   4.141  18.174  0.00  0.00    +0.000 A 
ATOM      3  C   UNL     1       3.427   3.131  19.064  0.00  0.00    +0.000 A 
ATOM      4  C   UNL     1       4.714   2.909  19.777  0.00  0.00    +0.000 A 
ATOM      5  O   UNL     1       4.823   2.075  20.671  0.00  0.00    +0.000 OA
ATOM      6  O   UNL     1       5.795   3.680  19.399  0.00  0.00    +0.000 OA
ATOM      7  C   UNL     1       5.649   4.809  18.574  0.00  0.00    +0.000 A 
ATOM      8  C   UNL     1       6.761   5.663  18.457  0.00  0.00    +0.000 A 
ATOM      9  C   UNL     1       8.079   5.346  19.114  0.00  0.00    +0.000 C 
ATOM     10  C   UNL     1       6.626   6.843  17.709  0.00  0.00    +0.000 A 
ATOM     11  C   UNL     1       5.419   7.124  17.073  0.00  0.00    +0.000 A 
ATOM     12  C   UNL     1       4.337   6.236  17.184  0.00  0.00    +0.000 A 
ATOM     13  C   UNL     1       4.428   5.067  17.954  0.00  0.00    +0.000 A 
ENDROOT
BRANCH   3  14
ATOM     14  C   UNL     1       2.317   2.200  19.509  0.00  0.00    +0.000 C 
BRANCH  14  15
ATOM     15  C   UNL     1       1.442   2.713  20.640  0.00  0.00    +0.000 C 
ATOM     16  O   UNL     1       0.398   3.329  20.518  0.00  0.00    +0.000 OA
BRANCH  15  17
ATOM     17  O   UNL     1       1.978   2.440  21.858  0.00  0.00    +0.000 OA
ATOM     18  H   UNL     1       1.853   1.519  22.160  0.00  0.00    +0.000 HD
ENDBRANCH  15  17
ENDBRANCH  14  15
ENDBRANCH   3  14
BRANCH  10  19
ATOM     19  O   UNL     1       7.703   7.685  17.737  0.00  0.00    +0.000 OA
BRANCH  19  20
ATOM     20  C   UNL     1       7.495   9.058  17.406  0.00  0.00    +0.000 C 
BRANCH  20  21
ATOM     21  C   UNL     1       8.477   9.825  18.224  0.00  0.00    +0.000 A 
ATOM     22  C   UNL     1       9.105   9.575  19.428  0.00  0.00    +0.000 A 
ATOM     23  C   UNL     1       9.904  10.708  19.709  0.00  0.00    +0.000 A 
ATOM     24  C   UNL     1       9.727  11.587  18.660  0.00  0.00    +0.000 A 
ATOM     25  O   UNL     1       8.858  11.047  17.747  0.00  0.00    +0.000 OA
BRANCH  24  26
ATOM     26  C   UNL     1      10.273  12.938  18.372  0.00  0.00    +0.000 C 
ATOM     27  F   UNL     1       9.724  13.474  17.248  0.00  0.00    +0.000 F 
ATOM     28  F   UNL     1      10.029  13.815  19.378  0.00  0.00    +0.000 F 
ATOM     29  F   UNL     1      11.616  12.918  18.176  0.00  0.00    +0.000 F 
ENDBRANCH  24  26
ENDBRANCH  20  21
ENDBRANCH  19  20
ENDBRANCH  10  19
TORSDOF 7
ENDMDL
MODEL 6
REMARK VINA RESULT:      -8.2      2.339      3.286
REMARK  Name = 
REMARK  9 active torsions:
REMARK  status: ('A' for Active; 'I' for Inactive)
REMARK    1  A    between atoms: C_1  and  C_2
REMARK    2  A    between atoms: C_3  and  C_4
REMARK    3  A    between atoms: C_4  and  C_5
REMARK    4  A    between atoms: C_5  and  O_7
REMARK    5  A    between atoms: C_12  and  C_13
REMARK    6  A    between atoms: C_14  and  O_15
REMARK    7  A    between atoms: O_15  and  C_16
REMARK    8  A    between atoms: C_16  and  C_17
REMARK    9  A    between atoms: C_20  and  C_21
REMARK                            x       y       z     vdW  Elec       q    Type
REMARK                         _______ _______ _______ _____ _____    ______ ____
ROOT
ATOM      1  C   UNL     1       3.772   3.833  19.353  0.00  0.00    +0.000 C 
ATOM      2  C   UNL     1       3.816   5.100  18.535  0.00  0.00    +0.000 A 
ATOM      3  C   UNL     1       4.584   5.251  17.432  0.00  0.00    +0.000 A 
ATOM      4  C   UNL     1       4.563   6.522  16.657  0.00  0.00    +0.000 A 
ATOM      5  O   UNL     1       5.334   6.724  15.725  0.00  0.00    +0.000 OA
ATOM      6  O   UNL     1       3.638   7.478  17.024  0.00  0.00    +0.000 OA
ATOM      7  C   UNL     1       2.923   7.395  18.232  0.00  0.00    +0.000 A 
ATOM      8  C   UNL     1       2.201   8.535  18.627  0.00  0.00    +0.000 A 
ATOM      9  C   UNL     1       2.121   9.765  17.761  0.00  0.00    +0.000 C 
ATOM     10  C   UNL     1       1.543   8.518  19.868  0.00  0.00    +0.000 A 
ATOM     11  C   UNL     1       1.587   7.371  20.657  0.00  0.00    +0.000 A 
ATOM     12  C   UNL     1       2.291   6.238  20.220  0.00  0.00    +0.000 A 
ATOM     13  C   UNL     1       2.989   6.235  19.003  0.00  0.00    +0.000 A 
ENDROOT
BRANCH   3  14
ATOM     14  C   UNL     1       5.593   4.244  16.919  0.00  0.00    +0.000 C 
BRANCH  14  15
ATOM     15  C   UNL     1       7.037   4.499  17.314  0.00  0.00    +0.000 C 
ATOM     16  O   UNL     1       7.482   4.506  18.449  0.00  0.00    +0.000 OA
BRANCH  15  17
ATOM     17  O   UNL     1       7.818   4.769  16.235  0.00  0.00    +0.000 OA
ATOM     18  H   UNL     1       7.955   4.011  15.634  0.00  0.00    +0.000 HD
ENDBRANCH  15  17
ENDBRANCH  14  15
ENDBRANCH   3  14
BRANCH  10  19
ATOM     19  O   UNL     1       0.965   9.697  20.244  0.00  0.00    +0.000 OA
BRANCH  19  20
ATOM     20  C   UNL     1      -0.450   9.725  20.436  0.00  0.00    +0.000 C 
BRANCH  20  21
ATOM     21  C   UNL     1      -0.991  10.583  19.345  0.00  0.00    +0.000 A 
ATOM     22  C   UNL     1      -0.739  11.882  18.949  0.00  0.00    +0.000 A 
ATOM     23  C   UNL     1      -1.602  12.147  17.861  0.00  0.00    +0.000 A 
ATOM     24  C   UNL     1      -2.330  10.996  17.643  0.00  0.00    +0.000 A 
ATOM     25  O   UNL     1      -1.955  10.035  18.547  0.00  0.00    +0.000 OA
BRANCH  24  26
ATOM     26  C   UNL     1      -3.392  10.642  16.667  0.00  0.00    +0.000 C 
ATOM     27  F   UNL     1      -3.104   9.488  16.005  0.00  0.00    +0.000 F 
ATOM     28  F   UNL     1      -4.596  10.454  17.265  0.00  0.00    +0.000 F 
ATOM     29  F   UNL     1      -3.561  11.600  15.721  0.00  0.00    +0.000 F 
ENDBRANCH  24  26
ENDBRANCH  20  21
ENDBRANCH  19  20
ENDBRANCH  10  19
TORSDOF 7
ENDMDL
MODEL 7
REMARK VINA RESULT:      -8.1      1.787      2.844
REMARK  Name = 
REMARK  9 active torsions:
REMARK  status: ('A' for Active; 'I' for Inactive)
REMARK    1  A    between atoms: C_1  and  C_2
REMARK    2  A    between atoms: C_3  and  C_4
REMARK    3  A    between atoms: C_4  and  C_5
REMARK    4  A    between atoms: C_5  and  O_7
REMARK    5  A    between atoms: C_12  and  C_13
REMARK    6  A    between atoms: C_14  and  O_15
REMARK    7  A    between atoms: O_15  and  C_16
REMARK    8  A    between atoms: C_16  and  C_17
REMARK    9  A    between atoms: C_20  and  C_21
REMARK                            x       y       z     vdW  Elec       q    Type
REMARK                         _______ _______ _______ _____ _____    ______ ____
ROOT
ATOM      1  C   UNL     1       1.743   4.002  21.071  0.00  0.00    +0.000 C 
ATOM      2  C   UNL     1       2.181   4.923  19.959  0.00  0.00    +0.000 A 
ATOM      3  C   UNL     1       2.905   4.514  18.893  0.00  0.00    +0.000 A 
ATOM      4  C   UNL     1       3.286   5.470  17.817  0.00  0.00    +0.000 A 
ATOM      5  O   UNL     1       4.038   5.150  16.903  0.00  0.00    +0.000 OA
ATOM      6  O   UNL     1       2.761   6.745  17.883  0.00  0.00    +0.000 OA
ATOM      7  C   UNL     1       2.115   7.224  19.035  0.00  0.00    +0.000 A 
ATOM      8  C   UNL     1       1.845   8.604  19.090  0.00  0.00    +0.000 A 
ATOM      9  C   UNL     1       2.153   9.520  17.935  0.00  0.00    +0.000 C 
ATOM     10  C   UNL     1       1.276   9.132  20.260  0.00  0.00    +0.000 A 
ATOM     11  C   UNL     1       0.960   8.282  21.319  0.00  0.00    +0.000 A 
ATOM     12  C   UNL     1       1.214   6.905  21.221  0.00  0.00    +0.000 A 
ATOM     13  C   UNL     1       1.814   6.352  20.081  0.00  0.00    +0.000 A 
ENDROOT
BRANCH   3  14
ATOM     14  C   UNL     1       3.485   3.126  18.703  0.00  0.00    +0.000 C 
BRANCH  14  15
ATOM     15  C   UNL     1       4.773   2.843  19.457  0.00  0.00    +0.000 C 
ATOM     16  O   UNL     1       4.911   2.054  20.374  0.00  0.00    +0.000 OA
BRANCH  15  17
ATOM     17  O   UNL     1       5.799   3.618  19.015  0.00  0.00    +0.000 OA
ATOM     18  H   UNL     1       6.685   3.224  19.133  0.00  0.00    +0.000 HD
ENDBRANCH  15  17
ENDBRANCH  14  15
ENDBRANCH   3  14
BRANCH  10  19
ATOM     19  O   UNL     1       1.153  10.492  20.294  0.00  0.00    +0.000 OA
BRANCH  19  20
ATOM     20  C   UNL     1      -0.112  11.047  20.654  0.00  0.00    +0.000 C 
BRANCH  20  21
ATOM     21  C   UNL     1      -0.826  11.296  19.369  0.00  0.00    +0.000 A 
ATOM     22  C   UNL     1      -0.800  12.333  18.458  0.00  0.00    +0.000 A 
ATOM     23  C   UNL     1      -1.737  12.008  17.450  0.00  0.00    +0.000 A 
ATOM     24  C   UNL     1      -2.280  10.786  17.793  0.00  0.00    +0.000 A 
ATOM     25  O   UNL     1      -1.720  10.346  18.965  0.00  0.00    +0.000 OA
BRANCH  24  26
ATOM     26  C   UNL     1      -3.309   9.925  17.158  0.00  0.00    +0.000 C 
ATOM     27  F   UNL     1      -2.866   9.390  15.987  0.00  0.00    +0.000 F 
ATOM     28  F   UNL     1      -3.664   8.881  17.950  0.00  0.00    +0.000 F 
ATOM     29  F   UNL     1      -4.444  10.609  16.866  0.00  0.00    +0.000 F 
ENDBRANCH  24  26
ENDBRANCH  20  21
ENDBRANCH  19  20
ENDBRANCH  10  19
TORSDOF 7
ENDMDL
MODEL 8
REMARK VINA RESULT:      -8.0      1.236      1.603
REMARK  Name = 
REMARK  9 active torsions:
REMARK  status: ('A' for Active; 'I' for Inactive)
REMARK    1  A    between atoms: C_1  and  C_2
REMARK    2  A    between atoms: C_3  and  C_4
REMARK    3  A    between atoms: C_4  and  C_5
REMARK    4  A    between atoms: C_5  and  O_7
REMARK    5  A    between atoms: C_12  and  C_13
REMARK    6  A    between atoms: C_14  and  O_15
REMARK    7  A    between atoms: O_15  and  C_16
REMARK    8  A    between atoms: C_16  and  C_17
REMARK    9  A    between atoms: C_20  and  C_21
REMARK                            x       y       z     vdW  Elec       q    Type
REMARK                         _______ _______ _______ _____ _____    ______ ____
ROOT
ATOM      1  C   UNL     1       4.074   6.175  17.020  0.00  0.00    +0.000 C 
ATOM      2  C   UNL     1       3.212   6.172  18.257  0.00  0.00    +0.000 A 
ATOM      3  C   UNL     1       2.989   5.070  19.009  0.00  0.00    +0.000 A 
ATOM      4  C   UNL     1       2.145   5.140  20.234  0.00  0.00    +0.000 A 
ATOM      5  O   UNL     1       1.835   4.135  20.864  0.00  0.00    +0.000 OA
ATOM      6  O   UNL     1       1.716   6.388  20.641  0.00  0.00    +0.000 OA
ATOM      7  C   UNL     1       1.829   7.519  19.815  0.00  0.00    +0.000 A 
ATOM      8  C   UNL     1       1.139   8.677  20.218  0.00  0.00    +0.000 A 
ATOM      9  C   UNL     1       0.380   8.737  21.518  0.00  0.00    +0.000 C 
ATOM     10  C   UNL     1       1.160   9.800  19.376  0.00  0.00    +0.000 A 
ATOM     11  C   UNL     1       1.887   9.759  18.188  0.00  0.00    +0.000 A 
ATOM     12  C   UNL     1       2.590   8.598  17.829  0.00  0.00    +0.000 A 
ATOM     13  C   UNL     1       2.560   7.448  18.630  0.00  0.00    +0.000 A 
ENDROOT
BRANCH   3  14
ATOM     14  C   UNL     1       3.457   3.667  18.675  0.00  0.00    +0.000 C 
BRANCH  14  15
ATOM     15  C   UNL     1       4.711   3.204  19.395  0.00  0.00    +0.000 C 
ATOM     16  O   UNL     1       4.756   2.438  20.341  0.00  0.00    +0.000 OA
BRANCH  15  17
ATOM     17  O   UNL     1       5.830   3.781  18.883  0.00  0.00    +0.000 OA
ATOM     18  H   UNL     1       5.985   4.699  19.179  0.00  0.00    +0.000 HD
ENDBRANCH  15  17
ENDBRANCH  14  15
ENDBRANCH   3  14
BRANCH  10  19
ATOM     19  O   UNL     1       0.372  10.845  19.768  0.00  0.00    +0.000 OA
BRANCH  19  20
ATOM     20  C   UNL     1      -0.035  11.791  18.779  0.00  0.00    +0.000 C 
BRANCH  20  21
ATOM     21  C   UNL     1      -1.510  11.935  18.939  0.00  0.00    +0.000 A 
ATOM     22  C   UNL     1      -2.311  12.378  19.973  0.00  0.00    +0.000 A 
ATOM     23  C   UNL     1      -3.649  12.241  19.534  0.00  0.00    +0.000 A 
ATOM     24  C   UNL     1      -3.595  11.730  18.254  0.00  0.00    +0.000 A 
ATOM     25  O   UNL     1      -2.287  11.547  17.885  0.00  0.00    +0.000 OA
BRANCH  24  26
ATOM     26  C   UNL     1      -4.644  11.358  17.271  0.00  0.00    +0.000 C 
ATOM     27  F   UNL     1      -4.125  10.669  16.218  0.00  0.00    +0.000 F 
ATOM     28  F   UNL     1      -5.601  10.566  17.818  0.00  0.00    +0.000 F 
ATOM     29  F   UNL     1      -5.272  12.443  16.753  0.00  0.00    +0.000 F 
ENDBRANCH  24  26
ENDBRANCH  20  21
ENDBRANCH  19  20
ENDBRANCH  10  19
TORSDOF 7
ENDMDL
MODEL 9
REMARK VINA RESULT:      -7.9      1.036      1.377
REMARK  Name = 
REMARK  9 active torsions:
REMARK  status: ('A' for Active; 'I' for Inactive)
REMARK    1  A    between atoms: C_1  and  C_2
REMARK    2  A    between atoms: C_3  and  C_4
REMARK    3  A    between atoms: C_4  and  C_5
REMARK    4  A    between atoms: C_5  and  O_7
REMARK    5  A    between atoms: C_12  and  C_13
REMARK    6  A    between atoms: C_14  and  O_15
REMARK    7  A    between atoms: O_15  and  C_16
REMARK    8  A    between atoms: C_16  and  C_17
REMARK    9  A    between atoms: C_20  and  C_21
REMARK                            x       y       z     vdW  Elec       q    Type
REMARK                         _______ _______ _______ _____ _____    ______ ____
ROOT
ATOM      1  C   UNL     1       3.852   5.668  17.332  0.00  0.00    +0.000 C 
ATOM      2  C   UNL     1       2.976   5.831  18.549  0.00  0.00    +0.000 A 
ATOM      3  C   UNL     1       2.648   4.810  19.375  0.00  0.00    +0.000 A 
ATOM      4  C   UNL     1       1.797   5.043  20.574  0.00  0.00    +0.000 A 
ATOM      5  O   UNL     1       1.392   4.118  21.269  0.00  0.00    +0.000 OA
ATOM      6  O   UNL     1       1.474   6.350  20.882  0.00  0.00    +0.000 OA
ATOM      7  C   UNL     1       1.696   7.403  19.978  0.00  0.00    +0.000 A 
ATOM      8  C   UNL     1       1.104   8.642  20.283  0.00  0.00    +0.000 A 
ATOM      9  C   UNL     1       0.337   8.864  21.561  0.00  0.00    +0.000 C 
ATOM     10  C   UNL     1       1.234   9.695  19.363  0.00  0.00    +0.000 A 
ATOM     11  C   UNL     1       1.971   9.503  18.195  0.00  0.00    +0.000 A 
ATOM     12  C   UNL     1       2.574   8.264  17.934  0.00  0.00    +0.000 A 
ATOM     13  C   UNL     1       2.433   7.182  18.816  0.00  0.00    +0.000 A 
ENDROOT
BRANCH   3  14
ATOM     14  C   UNL     1       2.996   3.352  19.152  0.00  0.00    +0.000 C 
BRANCH  14  15
ATOM     15  C   UNL     1       4.195   2.837  19.928  0.00  0.00    +0.000 C 
ATOM     16  O   UNL     1       5.354   2.848  19.551  0.00  0.00    +0.000 OA
BRANCH  15  17
ATOM     17  O   UNL     1       3.833   2.302  21.123  0.00  0.00    +0.000 OA
ATOM     18  H   UNL     1       4.199   2.765  21.903  0.00  0.00    +0.000 HD
ENDBRANCH  15  17
ENDBRANCH  14  15
ENDBRANCH   3  14
BRANCH  10  19
ATOM     19  O   UNL     1       0.535  10.829  19.662  0.00  0.00    +0.000 OA
BRANCH  19  20
ATOM     20  C   UNL     1       0.078  11.645  18.584  0.00  0.00    +0.000 C 
BRANCH  20  21
ATOM     21  C   UNL     1      -1.245  11.088  18.186  0.00  0.00    +0.000 A 
ATOM     22  C   UNL     1      -1.625   9.968  17.474  0.00  0.00    +0.000 A 
ATOM     23  C   UNL     1      -3.037  10.000  17.392  0.00  0.00    +0.000 A 
ATOM     24  C   UNL     1      -3.446  11.133  18.065  0.00  0.00    +0.000 A 
ATOM     25  O   UNL     1      -2.353  11.798  18.556  0.00  0.00    +0.000 OA
BRANCH  24  26
ATOM     26  C   UNL     1      -4.783  11.725  18.324  0.00  0.00    +0.000 C 
ATOM     27  F   UNL     1      -4.749  12.616  19.353  0.00  0.00    +0.000 F 
ATOM     28  F   UNL     1      -5.263  12.396  17.247  0.00  0.00    +0.000 F 
ATOM     29  F   UNL     1      -5.706  10.787  18.654  0.00  0.00    +0.000 F 
ENDBRANCH  24  26
ENDBRANCH  20  21
ENDBRANCH  19  20
ENDBRANCH  10  19
TORSDOF 7
ENDMDL
