MODEL 1
REMARK VINA RESULT:      -9.1      0.000      0.000
REMARK  Name = 
REMARK  9 active torsions:
REMARK  status: ('A' for Active; 'I' for Inactive)
REMARK    1  A    between atoms: C_1  and  C_2
REMARK    2  A    between atoms: N_5  and  C_6
REMARK    3  A    between atoms: C_6  and  C_7
REMARK    4  A    between atoms: C_6  and  C_8
REMARK    5  A    between atoms: C_12  and  C_13
REMARK    6  A    between atoms: C_20  and  C_21
REMARK    7  A    between atoms: N_26  and  C_27
REMARK    8  A    between atoms: C_27  and  C_28
REMARK    9  A    between atoms: C_28  and  O_30
REMARK                            x       y       z     vdW  Elec       q    Type
REMARK                         _______ _______ _______ _____ _____    ______ ____
ROOT
ATOM      1  C   UNL     1       3.921   0.856  18.968  0.00  0.00    +0.000 C 
ATOM      2  C   UNL     1       3.695   2.311  18.691  0.00  0.00    +0.000 A 
ATOM      3  N   UNL     1       4.459   2.933  17.777  0.00  0.00    +0.000 NA
ATOM      4  C   UNL     1       4.275   4.259  17.603  0.00  0.00    +0.000 A 
ATOM      5  N   UNL     1       5.045   4.945  16.632  0.00  0.00    +0.000 N 
ATOM      6  C   UNL     1       3.291   4.963  18.334  0.00  0.00    +0.000 A 
ATOM      7  C   UNL     1       3.031   6.352  18.254  0.00  0.00    +0.000 A 
ATOM      8  C   UNL     1       2.079   6.955  19.083  0.00  0.00    +0.000 A 
ATOM      9  C   UNL     1       1.354   6.172  19.979  0.00  0.00    +0.000 A 
ATOM     10  C   UNL     1       1.585   4.801  20.034  0.00  0.00    +0.000 A 
ATOM     11  C   UNL     1       2.546   4.196  19.244  0.00  0.00    +0.000 A 
ATOM     12  N   UNL     1       2.728   2.892  19.417  0.00  0.00    +0.000 NA
ATOM     13  H   UNL     1       5.163   5.917  16.882  0.00  0.00    +0.000 HD
ENDROOT
BRANCH   8  14
ATOM     14  C   UNL     1       1.799   8.386  18.995  0.00  0.00    +0.000 A 
ATOM     15  C   UNL     1       2.231   9.234  17.906  0.00  0.00    +0.000 A 
ATOM     16  C   UNL     1       2.016  10.555  17.940  0.00  0.00    +0.000 A 
ATOM     17  C   UNL     1       1.334  11.173  19.109  0.00  0.00    +0.000 A 
ATOM     18  O   UNL     1       1.196  12.391  19.160  0.00  0.00    +0.000 OA
ATOM     19  N   UNL     1       0.921  10.295  20.110  0.00  0.00    +0.000 N 
ATOM     20  C   UNL     1       1.146   8.932  20.034  0.00  0.00    +0.000 A 
BRANCH  19  21
ATOM     21  C   UNL     1       0.209  10.832  21.276  0.00  0.00    +0.000 C 
BRANCH  21  22
ATOM     22  C   UNL     1       0.230   9.907  22.492  0.00  0.00    +0.000 C 
ATOM     23  O   UNL     1      -0.778   9.417  22.970  0.00  0.00    +0.000 OA
BRANCH  22  24
ATOM     24  O   UNL     1       1.461   9.633  22.983  0.00  0.00    +0.000 OA
ATOM     25  H   UNL     1       2.148  10.185  22.560  0.00  0.00    +0.000 HD
ENDBRANCH  22  24
ENDBRANCH  21  22
ENDBRANCH  19  21
ENDBRANCH   8  14
BRANCH   5  26
ATOM     26  C   UNL     1       6.356   4.383  16.269  0.00  0.00    +0.000 C 
ATOM     27  C   UNL     1       7.480   5.202  16.923  0.00  0.00    +0.000 C 
BRANCH  26  28
ATOM     28  C   UNL     1       6.450   4.378  14.731  0.00  0.00    +0.000 A 
ATOM     29  C   UNL     1       7.529   5.039  14.117  0.00  0.00    +0.000 A 
ATOM     30  C   UNL     1       7.695   5.025  12.728  0.00  0.00    +0.000 A 
ATOM     31  C   UNL     1       6.766   4.380  11.916  0.00  0.00    +0.000 A 
ATOM     32  C   UNL     1       5.645   3.764  12.483  0.00  0.00    +0.000 A 
ATOM     33  C   UNL     1       5.517   3.736  13.890  0.00  0.00    +0.000 A 
BRANCH  32  34
ATOM     34  C   UNL     1       4.557   3.195  11.599  0.00  0.00    +0.000 C 
ATOM     35  F   UNL     1       3.386   2.956  12.254  0.00  0.00    +0.000 F 
ATOM     36  F   UNL     1       4.241   4.008  10.554  0.00  0.00    +0.000 F 
ATOM     37  F   UNL     1       4.918   2.002  11.047  0.00  0.00    +0.000 F 
ENDBRANCH  32  34
ENDBRANCH  26  28
ENDBRANCH   5  26
TORSDOF 7
ENDMDL
MODEL 2
REMARK VINA RESULT:      -8.4      5.659      9.675
REMARK  Name = 
REMARK  9 active torsions:
REMARK  status: ('A' for Active; 'I' for Inactive)
REMARK    1  A    between atoms: C_1  and  C_2
REMARK    2  A    between atoms: N_5  and  C_6
REMARK    3  A    between atoms: C_6  and  C_7
REMARK    4  A    between atoms: C_6  and  C_8
REMARK    5  A    between atoms: C_12  and  C_13
REMARK    6  A    between atoms: C_20  and  C_21
REMARK    7  A    between atoms: N_26  and  C_27
REMARK    8  A    between atoms: C_27  and  C_28
REMARK    9  A    between atoms: C_28  and  O_30
REMARK                            x       y       z     vdW  Elec       q    Type
REMARK                         _______ _______ _______ _____ _____    ______ ____
ROOT
ATOM      1  C   UNL     1      -1.328  10.842  22.894  0.00  0.00    +0.000 C 
ATOM      2  C   UNL     1      -0.407  10.308  21.840  0.00  0.00    +0.000 A 
ATOM      3  N   UNL     1      -0.171  11.043  20.739  0.00  0.00    +0.000 NA
ATOM      4  C   UNL     1       0.607  10.502  19.778  0.00  0.00    +0.000 A 
ATOM      5  N   UNL     1       0.898  11.254  18.614  0.00  0.00    +0.000 N 
ATOM      6  C   UNL     1       1.182   9.221  19.938  0.00  0.00    +0.000 A 
ATOM      7  C   UNL     1       1.988   8.546  18.989  0.00  0.00    +0.000 A 
ATOM      8  C   UNL     1       2.443   7.244  19.227  0.00  0.00    +0.000 A 
ATOM      9  C   UNL     1       2.124   6.613  20.427  0.00  0.00    +0.000 A 
ATOM     10  C   UNL     1       1.360   7.288  21.375  0.00  0.00    +0.000 A 
ATOM     11  C   UNL     1       0.876   8.563  21.141  0.00  0.00    +0.000 A 
ATOM     12  N   UNL     1       0.108   9.094  22.084  0.00  0.00    +0.000 NA
ATOM     13  H   UNL     1       1.074  10.649  17.824  0.00  0.00    +0.000 HD
ENDROOT
BRANCH   8  14
ATOM     14  C   UNL     1       3.285   6.550  18.255  0.00  0.00    +0.000 A 
ATOM     15  C   UNL     1       4.054   7.212  17.224  0.00  0.00    +0.000 A 
ATOM     16  C   UNL     1       4.730   6.502  16.313  0.00  0.00    +0.000 A 
ATOM     17  C   UNL     1       4.692   5.016  16.342  0.00  0.00    +0.000 A 
ATOM     18  O   UNL     1       5.264   4.374  15.467  0.00  0.00    +0.000 OA
ATOM     19  N   UNL     1       3.954   4.443  17.378  0.00  0.00    +0.000 N 
ATOM     20  C   UNL     1       3.281   5.208  18.313  0.00  0.00    +0.000 A 
BRANCH  19  21
ATOM     21  C   UNL     1       3.904   2.980  17.489  0.00  0.00    +0.000 C 
BRANCH  21  22
ATOM     22  C   UNL     1       3.829   2.473  18.928  0.00  0.00    +0.000 C 
ATOM     23  O   UNL     1       2.792   2.098  19.447  0.00  0.00    +0.000 OA
BRANCH  22  24
ATOM     24  O   UNL     1       5.014   2.429  19.582  0.00  0.00    +0.000 OA
ATOM     25  H   UNL     1       5.401   3.321  19.684  0.00  0.00    +0.000 HD
ENDBRANCH  22  24
ENDBRANCH  21  22
ENDBRANCH  19  21
ENDBRANCH   8  14
BRANCH   5  26
ATOM     26  C   UNL     1      -0.060  12.298  18.212  0.00  0.00    +0.000 C 
ATOM     27  C   UNL     1      -0.088  13.420  19.262  0.00  0.00    +0.000 C 
BRANCH  26  28
ATOM     28  C   UNL     1      -1.433  11.624  18.034  0.00  0.00    +0.000 A 
ATOM     29  C   UNL     1      -1.518  10.453  17.260  0.00  0.00    +0.000 A 
ATOM     30  C   UNL     1      -2.728   9.769  17.106  0.00  0.00    +0.000 A 
ATOM     31  C   UNL     1      -3.893  10.260  17.692  0.00  0.00    +0.000 A 
ATOM     32  C   UNL     1      -3.864  11.456  18.418  0.00  0.00    +0.000 A 
ATOM     33  C   UNL     1      -2.626  12.107  18.613  0.00  0.00    +0.000 A 
BRANCH  32  34
ATOM     34  C   UNL     1      -5.148  12.071  18.926  0.00  0.00    +0.000 C 
ATOM     35  F   UNL     1      -4.978  12.879  20.012  0.00  0.00    +0.000 F 
ATOM     36  F   UNL     1      -5.781  12.832  17.991  0.00  0.00    +0.000 F 
ATOM     37  F   UNL     1      -6.051  11.125  19.312  0.00  0.00    +0.000 F 
ENDBRANCH  32  34
ENDBRANCH  26  28
ENDBRANCH   5  26
TORSDOF 7
ENDMDL
MODEL 3
REMARK VINA RESULT:      -8.2      3.803      5.146
REMARK  Name = 
REMARK  9 active torsions:
REMARK  status: ('A' for Active; 'I' for Inactive)
REMARK    1  A    between atoms: C_1  and  C_2
REMARK    2  A    between atoms: N_5  and  C_6
REMARK    3  A    between atoms: C_6  and  C_7
REMARK    4  A    between atoms: C_6  and  C_8
REMARK    5  A    between atoms: C_12  and  C_13
REMARK    6  A    between atoms: C_20  and  C_21
REMARK    7  A    between atoms: N_26  and  C_27
REMARK    8  A    between atoms: C_27  and  C_28
REMARK    9  A    between atoms: C_28  and  O_30
REMARK                            x       y       z     vdW  Elec       q    Type
REMARK                         _______ _______ _______ _____ _____    ______ ____
ROOT
ATOM      1  C   UNL     1       3.831   2.097  17.908  0.00  0.00    +0.000 C 
ATOM      2  C   UNL     1       3.410   3.508  18.186  0.00  0.00    +0.000 A 
ATOM      3  N   UNL     1       3.902   4.503  17.427  0.00  0.00    +0.000 NA
ATOM      4  C   UNL     1       3.556   5.767  17.749  0.00  0.00    +0.000 A 
ATOM      5  N   UNL     1       4.035   6.840  16.960  0.00  0.00    +0.000 N 
ATOM      6  C   UNL     1       2.680   6.034  18.826  0.00  0.00    +0.000 A 
ATOM      7  C   UNL     1       2.274   7.315  19.270  0.00  0.00    +0.000 A 
ATOM      8  C   UNL     1       1.459   7.461  20.398  0.00  0.00    +0.000 A 
ATOM      9  C   UNL     1       1.017   6.329  21.078  0.00  0.00    +0.000 A 
ATOM     10  C   UNL     1       1.389   5.067  20.623  0.00  0.00    +0.000 A 
ATOM     11  C   UNL     1       2.220   4.907  19.529  0.00  0.00    +0.000 A 
ATOM     12  N   UNL     1       2.562   3.665  19.213  0.00  0.00    +0.000 NA
ATOM     13  H   UNL     1       4.106   7.689  17.504  0.00  0.00    +0.000 HD
ENDROOT
BRANCH   8  14
ATOM     14  C   UNL     1       1.028   8.782  20.851  0.00  0.00    +0.000 A 
ATOM     15  C   UNL     1       0.668   9.097  22.216  0.00  0.00    +0.000 A 
ATOM     16  C   UNL     1       0.194  10.307  22.537  0.00  0.00    +0.000 A 
ATOM     17  C   UNL     1       0.021  11.347  21.487  0.00  0.00    +0.000 A 
ATOM     18  O   UNL     1      -0.472  12.432  21.779  0.00  0.00    +0.000 OA
ATOM     19  N   UNL     1       0.412  10.985  20.199  0.00  0.00    +0.000 N 
ATOM     20  C   UNL     1       0.914   9.729  19.905  0.00  0.00    +0.000 A 
BRANCH  19  21
ATOM     21  C   UNL     1       0.303  11.974  19.120  0.00  0.00    +0.000 C 
BRANCH  21  22
ATOM     22  C   UNL     1      -1.023  11.919  18.363  0.00  0.00    +0.000 C 
ATOM     23  O   UNL     1      -1.933  11.169  18.671  0.00  0.00    +0.000 OA
BRANCH  22  24
ATOM     24  O   UNL     1      -1.135  12.798  17.339  0.00  0.00    +0.000 OA
ATOM     25  H   UNL     1      -1.674  13.574  17.589  0.00  0.00    +0.000 HD
ENDBRANCH  22  24
ENDBRANCH  21  22
ENDBRANCH  19  21
ENDBRANCH   8  14
BRANCH   5  26
ATOM     26  C   UNL     1       5.291   6.643  16.218  0.00  0.00    +0.000 C 
ATOM     27  C   UNL     1       5.378   5.196  15.705  0.00  0.00    +0.000 C 
BRANCH  26  28
ATOM     28  C   UNL     1       6.452   7.001  17.165  0.00  0.00    +0.000 A 
ATOM     29  C   UNL     1       6.961   6.008  18.020  0.00  0.00    +0.000 A 
ATOM     30  C   UNL     1       8.046   6.260  18.864  0.00  0.00    +0.000 A 
ATOM     31  C   UNL     1       8.629   7.525  18.901  0.00  0.00    +0.000 A 
ATOM     32  C   UNL     1       8.113   8.559  18.112  0.00  0.00    +0.000 A 
ATOM     33  C   UNL     1       7.052   8.277  17.223  0.00  0.00    +0.000 A 
BRANCH  32  34
ATOM     34  C   UNL     1       8.642   9.968  18.260  0.00  0.00    +0.000 C 
ATOM     35  F   UNL     1       7.828  10.919  17.720  0.00  0.00    +0.000 F 
ATOM     36  F   UNL     1       8.832  10.333  19.558  0.00  0.00    +0.000 F 
ATOM     37  F   UNL     1       9.849  10.128  17.647  0.00  0.00    +0.000 F 
ENDBRANCH  32  34
ENDBRANCH  26  28
ENDBRANCH   5  26
TORSDOF 7
ENDMDL
MODEL 4
REMARK VINA RESULT:      -8.2      5.934     10.031
REMARK  Name = 
REMARK  9 active torsions:
REMARK  status: ('A' for Active; 'I' for Inactive)
REMARK    1  A    between atoms: C_1  and  C_2
REMARK    2  A    between atoms: N_5  and  C_6
REMARK    3  A    between atoms: C_6  and  C_7
REMARK    4  A    between atoms: C_6  and  C_8
REMARK    5  A    between atoms: C_12  and  C_13
REMARK    6  A    between atoms: C_20  and  C_21
REMARK    7  A    between atoms: N_26  and  C_27
REMARK    8  A    between atoms: C_27  and  C_28
REMARK    9  A    between atoms: C_28  and  O_30
REMARK                            x       y       z     vdW  Elec       q    Type
REMARK                         _______ _______ _______ _____ _____    ______ ____
ROOT
ATOM      1  C   UNL     1      -1.395  12.453  22.967  0.00  0.00    +0.000 C 
ATOM      2  C   UNL     1      -0.610  11.622  21.999  0.00  0.00    +0.000 A 
ATOM      3  N   UNL     1      -0.491  12.034  20.725  0.00  0.00    +0.000 NA
ATOM      4  C   UNL     1       0.163  11.228  19.863  0.00  0.00    +0.000 A 
ATOM      5  N   UNL     1       0.330  11.638  18.518  0.00  0.00    +0.000 N 
ATOM      6  C   UNL     1       0.733  10.008  20.292  0.00  0.00    +0.000 A 
ATOM      7  C   UNL     1       1.414   9.074  19.474  0.00  0.00    +0.000 A 
ATOM      8  C   UNL     1       1.872   7.860  19.996  0.00  0.00    +0.000 A 
ATOM      9  C   UNL     1       1.683   7.577  21.347  0.00  0.00    +0.000 A 
ATOM     10  C   UNL     1       1.044   8.509  22.160  0.00  0.00    +0.000 A 
ATOM     11  C   UNL     1       0.556   9.700  21.652  0.00  0.00    +0.000 A 
ATOM     12  N   UNL     1      -0.090  10.492  22.498  0.00  0.00    +0.000 NA
ATOM     13  H   UNL     1       0.405  10.841  17.901  0.00  0.00    +0.000 HD
ENDROOT
BRANCH   8  14
ATOM     14  C   UNL     1       2.586   6.899  19.158  0.00  0.00    +0.000 A 
ATOM     15  C   UNL     1       3.379   7.259  18.002  0.00  0.00    +0.000 A 
ATOM     16  C   UNL     1       3.929   6.315  17.229  0.00  0.00    +0.000 A 
ATOM     17  C   UNL     1       3.724   4.875  17.544  0.00  0.00    +0.000 A 
ATOM     18  O   UNL     1       4.180   4.017  16.795  0.00  0.00    +0.000 OA
ATOM     19  N   UNL     1       2.972   4.601  18.686  0.00  0.00    +0.000 N 
ATOM     20  C   UNL     1       2.432   5.602  19.472  0.00  0.00    +0.000 A 
BRANCH  19  21
ATOM     21  C   UNL     1       2.761   3.201  19.076  0.00  0.00    +0.000 C 
BRANCH  21  22
ATOM     22  C   UNL     1       3.784   2.680  20.083  0.00  0.00    +0.000 C 
ATOM     23  O   UNL     1       3.514   2.458  21.251  0.00  0.00    +0.000 OA
BRANCH  22  24
ATOM     24  O   UNL     1       5.016   2.440  19.576  0.00  0.00    +0.000 OA
ATOM     25  H   UNL     1       5.470   3.269  19.326  0.00  0.00    +0.000 HD
ENDBRANCH  22  24
ENDBRANCH  21  22
ENDBRANCH  19  21
ENDBRANCH   8  14
BRANCH   5  26
ATOM     26  C   UNL     1      -0.651  12.583  17.960  0.00  0.00    +0.000 C 
ATOM     27  C   UNL     1      -0.713  13.852  18.826  0.00  0.00    +0.000 C 
BRANCH  26  28
ATOM     28  C   UNL     1      -2.007  11.856  17.885  0.00  0.00    +0.000 A 
ATOM     29  C   UNL     1      -2.151  10.783  16.988  0.00  0.00    +0.000 A 
ATOM     30  C   UNL     1      -3.341  10.052  16.913  0.00  0.00    +0.000 A 
ATOM     31  C   UNL     1      -4.430  10.400  17.708  0.00  0.00    +0.000 A 
ATOM     32  C   UNL     1      -4.349  11.500  18.569  0.00  0.00    +0.000 A 
ATOM     33  C   UNL     1      -3.124  12.195  18.677  0.00  0.00    +0.000 A 
BRANCH  32  34
ATOM     34  C   UNL     1      -5.573  11.973  19.321  0.00  0.00    +0.000 C 
ATOM     35  F   UNL     1      -6.504  10.997  19.524  0.00  0.00    +0.000 F 
ATOM     36  F   UNL     1      -5.282  12.473  20.553  0.00  0.00    +0.000 F 
ATOM     37  F   UNL     1      -6.227  12.969  18.658  0.00  0.00    +0.000 F 
ENDBRANCH  32  34
ENDBRANCH  26  28
ENDBRANCH   5  26
TORSDOF 7
ENDMDL
MODEL 5
REMARK VINA RESULT:      -8.2      5.774      9.695
REMARK  Name = 
REMARK  9 active torsions:
REMARK  status: ('A' for Active; 'I' for Inactive)
REMARK    1  A    between atoms: C_1  and  C_2
REMARK    2  A    between atoms: N_5  and  C_6
REMARK    3  A    between atoms: C_6  and  C_7
REMARK    4  A    between atoms: C_6  and  C_8
REMARK    5  A    between atoms: C_12  and  C_13
REMARK    6  A    between atoms: C_20  and  C_21
REMARK    7  A    between atoms: N_26  and  C_27
REMARK    8  A    between atoms: C_27  and  C_28
REMARK    9  A    between atoms: C_28  and  O_30
REMARK                            x       y       z     vdW  Elec       q    Type
REMARK                         _______ _______ _______ _____ _____    ______ ____
ROOT
ATOM      1  C   UNL     1      -1.062  10.858  22.960  0.00  0.00    +0.000 C 
ATOM      2  C   UNL     1      -0.224  10.214  21.898  0.00  0.00    +0.000 A 
ATOM      3  N   UNL     1       0.035  10.890  20.765  0.00  0.00    +0.000 NA
ATOM      4  C   UNL     1       0.734  10.255  19.802  0.00  0.00    +0.000 A 
ATOM      5  N   UNL     1       1.047  10.942  18.604  0.00  0.00    +0.000 N 
ATOM      6  C   UNL     1       1.205   8.936  19.989  0.00  0.00    +0.000 A 
ATOM      7  C   UNL     1       1.921   8.165  19.041  0.00  0.00    +0.000 A 
ATOM      8  C   UNL     1       2.273   6.838  19.311  0.00  0.00    +0.000 A 
ATOM      9  C   UNL     1       1.943   6.276  20.542  0.00  0.00    +0.000 A 
ATOM     10  C   UNL     1       1.269   7.043  21.488  0.00  0.00    +0.000 A 
ATOM     11  C   UNL     1       0.885   8.346  21.224  0.00  0.00    +0.000 A 
ATOM     12  N   UNL     1       0.196   8.970  22.170  0.00  0.00    +0.000 NA
ATOM     13  H   UNL     1       1.146  10.298  17.830  0.00  0.00    +0.000 HD
ENDROOT
BRANCH   8  14
ATOM     14  C   UNL     1       3.022   6.044  18.339  0.00  0.00    +0.000 A 
ATOM     15  C   UNL     1       2.548   4.805  17.763  0.00  0.00    +0.000 A 
ATOM     16  C   UNL     1       3.330   4.086  16.948  0.00  0.00    +0.000 A 
ATOM     17  C   UNL     1       4.708   4.550  16.630  0.00  0.00    +0.000 A 
ATOM     18  O   UNL     1       5.439   3.855  15.932  0.00  0.00    +0.000 OA
ATOM     19  N   UNL     1       5.090   5.765  17.198  0.00  0.00    +0.000 N 
ATOM     20  C   UNL     1       4.249   6.490  18.023  0.00  0.00    +0.000 A 
BRANCH  19  21
ATOM     21  C   UNL     1       6.423   6.300  16.897  0.00  0.00    +0.000 C 
BRANCH  21  22
ATOM     22  C   UNL     1       7.451   6.052  18.000  0.00  0.00    +0.000 C 
ATOM     23  O   UNL     1       7.685   4.945  18.453  0.00  0.00    +0.000 OA
BRANCH  22  24
ATOM     24  O   UNL     1       8.122   7.152  18.416  0.00  0.00    +0.000 OA
ATOM     25  H   UNL     1       7.700   7.555  19.200  0.00  0.00    +0.000 HD
ENDBRANCH  22  24
ENDBRANCH  21  22
ENDBRANCH  19  21
ENDBRANCH   8  14
BRANCH   5  26
ATOM     26  C   UNL     1       0.167  12.048  18.193  0.00  0.00    +0.000 C 
ATOM     27  C   UNL     1       0.256  13.197  19.210  0.00  0.00    +0.000 C 
BRANCH  26  28
ATOM     28  C   UNL     1      -1.261  11.484  18.068  0.00  0.00    +0.000 A 
ATOM     29  C   UNL     1      -1.464  10.313  17.316  0.00  0.00    +0.000 A 
ATOM     30  C   UNL     1      -2.729   9.726  17.210  0.00  0.00    +0.000 A 
ATOM     31  C   UNL     1      -3.831  10.316  17.823  0.00  0.00    +0.000 A 
ATOM     32  C   UNL     1      -3.684  11.515  18.530  0.00  0.00    +0.000 A 
ATOM     33  C   UNL     1      -2.392  12.068  18.677  0.00  0.00    +0.000 A 
BRANCH  32  34
ATOM     34  C   UNL     1      -4.898  12.237  19.068  0.00  0.00    +0.000 C 
ATOM     35  F   UNL     1      -4.596  13.329  19.827  0.00  0.00    +0.000 F 
ATOM     36  F   UNL     1      -5.731  12.684  18.088  0.00  0.00    +0.000 F 
ATOM     37  F   UNL     1      -5.659  11.435  19.866  0.00  0.00    +0.000 F 
ENDBRANCH  32  34
ENDBRANCH  26  28
ENDBRANCH   5  26
TORSDOF 7
ENDMDL
MODEL 6
REMARK VINA RESULT:      -8.2      6.044     10.052
REMARK  Name = 
REMARK  9 active torsions:
REMARK  status: ('A' for Active; 'I' for Inactive)
REMARK    1  A    between atoms: C_1  and  C_2
REMARK    2  A    between atoms: N_5  and  C_6
REMARK    3  A    between atoms: C_6  and  C_7
REMARK    4  A    between atoms: C_6  and  C_8
REMARK    5  A    between atoms: C_12  and  C_13
REMARK    6  A    between atoms: C_20  and  C_21
REMARK    7  A    between atoms: N_26  and  C_27
REMARK    8  A    between atoms: C_27  and  C_28
REMARK    9  A    between atoms: C_28  and  O_30
REMARK                            x       y       z     vdW  Elec       q    Type
REMARK                         _______ _______ _______ _____ _____    ______ ____
ROOT
ATOM      1  C   UNL     1      -1.310  12.896  23.022  0.00  0.00    +0.000 C 
ATOM      2  C   UNL     1      -0.579  11.971  22.098  0.00  0.00    +0.000 A 
ATOM      3  N   UNL     1      -0.470  12.292  20.797  0.00  0.00    +0.000 NA
ATOM      4  C   UNL     1       0.134  11.404  19.980  0.00  0.00    +0.000 A 
ATOM      5  N   UNL     1       0.290  11.716  18.607  0.00  0.00    +0.000 N 
ATOM      6  C   UNL     1       0.663  10.192  20.480  0.00  0.00    +0.000 A 
ATOM      7  C   UNL     1       1.289   9.178  19.715  0.00  0.00    +0.000 A 
ATOM      8  C   UNL     1       1.709   7.984  20.310  0.00  0.00    +0.000 A 
ATOM      9  C   UNL     1       1.537   7.800  21.679  0.00  0.00    +0.000 A 
ATOM     10  C   UNL     1       0.952   8.809  22.439  0.00  0.00    +0.000 A 
ATOM     11  C   UNL     1       0.502   9.982  21.860  0.00  0.00    +0.000 A 
ATOM     12  N   UNL     1      -0.094  10.855  22.663  0.00  0.00    +0.000 NA
ATOM     13  H   UNL     1       0.320  10.877  18.044  0.00  0.00    +0.000 HD
ENDROOT
BRANCH   8  14
ATOM     14  C   UNL     1       2.367   6.941  19.525  0.00  0.00    +0.000 A 
ATOM     15  C   UNL     1       2.902   7.138  18.196  0.00  0.00    +0.000 A 
ATOM     16  C   UNL     1       3.409   6.111  17.503  0.00  0.00    +0.000 A 
ATOM     17  C   UNL     1       3.420   4.744  18.090  0.00  0.00    +0.000 A 
ATOM     18  O   UNL     1       3.829   3.797  17.424  0.00  0.00    +0.000 OA
ATOM     19  N   UNL     1       2.913   4.630  19.384  0.00  0.00    +0.000 N 
ATOM     20  C   UNL     1       2.412   5.717  20.077  0.00  0.00    +0.000 A 
BRANCH  19  21
ATOM     21  C   UNL     1       2.927   3.316  20.038  0.00  0.00    +0.000 C 
BRANCH  21  22
ATOM     22  C   UNL     1       1.805   3.123  21.058  0.00  0.00    +0.000 C 
ATOM     23  O   UNL     1       2.007   3.024  22.256  0.00  0.00    +0.000 OA
BRANCH  22  24
ATOM     24  O   UNL     1       0.555   3.109  20.539  0.00  0.00    +0.000 OA
ATOM     25  H   UNL     1       0.510   2.572  19.724  0.00  0.00    +0.000 HD
ENDBRANCH  22  24
ENDBRANCH  21  22
ENDBRANCH  19  21
ENDBRANCH   8  14
BRANCH   5  26
ATOM     26  C   UNL     1      -0.664  12.661  18.004  0.00  0.00    +0.000 C 
ATOM     27  C   UNL     1      -0.701  13.964  18.819  0.00  0.00    +0.000 C 
BRANCH  26  28
ATOM     28  C   UNL     1      -2.036  11.965  17.948  0.00  0.00    +0.000 A 
ATOM     29  C   UNL     1      -2.213  10.886  17.063  0.00  0.00    +0.000 A 
ATOM     30  C   UNL     1      -3.420  10.182  17.005  0.00  0.00    +0.000 A 
ATOM     31  C   UNL     1      -4.494  10.563  17.805  0.00  0.00    +0.000 A 
ATOM     32  C   UNL     1      -4.381  11.669  18.653  0.00  0.00    +0.000 A 
ATOM     33  C   UNL     1      -3.140  12.338  18.744  0.00  0.00    +0.000 A 
BRANCH  32  34
ATOM     34  C   UNL     1      -5.588  12.179  19.409  0.00  0.00    +0.000 C 
ATOM     35  F   UNL     1      -6.118  11.268  20.275  0.00  0.00    +0.000 F 
ATOM     36  F   UNL     1      -5.323  13.289  20.152  0.00  0.00    +0.000 F 
ATOM     37  F   UNL     1      -6.607  12.524  18.572  0.00  0.00    +0.000 F 
ENDBRANCH  32  34
ENDBRANCH  26  28
ENDBRANCH   5  26
TORSDOF 7
ENDMDL
MODEL 7
REMARK VINA RESULT:      -8.1      4.524      7.642
REMARK  Name = 
REMARK  9 active torsions:
REMARK  status: ('A' for Active; 'I' for Inactive)
REMARK    1  A    between atoms: C_1  and  C_2
REMARK    2  A    between atoms: N_5  and  C_6
REMARK    3  A    between atoms: C_6  and  C_7
REMARK    4  A    between atoms: C_6  and  C_8
REMARK    5  A    between atoms: C_12  and  C_13
REMARK    6  A    between atoms: C_20  and  C_21
REMARK    7  A    between atoms: N_26  and  C_27
REMARK    8  A    between atoms: C_27  and  C_28
REMARK    9  A    between atoms: C_28  and  O_30
REMARK                            x       y       z     vdW  Elec       q    Type
REMARK                         _______ _______ _______ _____ _____    ______ ____
ROOT
ATOM      1  C   UNL     1      -2.929  10.228  17.668  0.00  0.00    +0.000 C 
ATOM      2  C   UNL     1      -1.566  10.762  17.985  0.00  0.00    +0.000 A 
ATOM      3  N   UNL     1      -0.552   9.902  18.184  0.00  0.00    +0.000 NA
ATOM      4  C   UNL     1       0.646  10.414  18.536  0.00  0.00    +0.000 A 
ATOM      5  N   UNL     1       1.744   9.542  18.732  0.00  0.00    +0.000 N 
ATOM      6  C   UNL     1       0.837  11.809  18.658  0.00  0.00    +0.000 A 
ATOM      7  C   UNL     1       2.037  12.453  19.046  0.00  0.00    +0.000 A 
ATOM      8  C   UNL     1       2.088  13.843  19.206  0.00  0.00    +0.000 A 
ATOM      9  C   UNL     1       0.952  14.606  18.949  0.00  0.00    +0.000 A 
ATOM     10  C   UNL     1      -0.219  13.977  18.535  0.00  0.00    +0.000 A 
ATOM     11  C   UNL     1      -0.294  12.602  18.404  0.00  0.00    +0.000 A 
ATOM     12  N   UNL     1      -1.473  12.098  18.061  0.00  0.00    +0.000 NA
ATOM     13  H   UNL     1       2.406   9.931  19.389  0.00  0.00    +0.000 HD
ENDROOT
BRANCH   8  14
ATOM     14  C   UNL     1       3.328  14.512  19.594  0.00  0.00    +0.000 A 
ATOM     15  C   UNL     1       3.518  15.210  20.846  0.00  0.00    +0.000 A 
ATOM     16  C   UNL     1       4.651  15.878  21.093  0.00  0.00    +0.000 A 
ATOM     17  C   UNL     1       5.734  15.917  20.073  0.00  0.00    +0.000 A 
ATOM     18  O   UNL     1       6.744  16.582  20.281  0.00  0.00    +0.000 OA
ATOM     19  N   UNL     1       5.495  15.201  18.901  0.00  0.00    +0.000 N 
ATOM     20  C   UNL     1       4.317  14.509  18.686  0.00  0.00    +0.000 A 
BRANCH  19  21
ATOM     21  C   UNL     1       6.536  15.168  17.866  0.00  0.00    +0.000 C 
BRANCH  21  22
ATOM     22  C   UNL     1       7.496  13.986  17.994  0.00  0.00    +0.000 C 
ATOM     23  O   UNL     1       8.276  13.861  18.922  0.00  0.00    +0.000 OA
BRANCH  22  24
ATOM     24  O   UNL     1       7.392  13.055  17.017  0.00  0.00    +0.000 OA
ATOM     25  H   UNL     1       8.040  12.333  17.137  0.00  0.00    +0.000 HD
ENDBRANCH  22  24
ENDBRANCH  21  22
ENDBRANCH  19  21
ENDBRANCH   8  14
BRANCH   5  26
ATOM     26  C   UNL     1       1.457   8.149  19.113  0.00  0.00    +0.000 C 
ATOM     27  C   UNL     1       1.551   7.990  20.639  0.00  0.00    +0.000 C 
BRANCH  26  28
ATOM     28  C   UNL     1       2.458   7.247  18.365  0.00  0.00    +0.000 A 
ATOM     29  C   UNL     1       3.484   7.849  17.616  0.00  0.00    +0.000 A 
ATOM     30  C   UNL     1       4.451   7.083  16.959  0.00  0.00    +0.000 A 
ATOM     31  C   UNL     1       4.396   5.692  17.005  0.00  0.00    +0.000 A 
ATOM     32  C   UNL     1       3.356   5.052  17.688  0.00  0.00    +0.000 A 
ATOM     33  C   UNL     1       2.417   5.837  18.394  0.00  0.00    +0.000 A 
BRANCH  32  34
ATOM     34  C   UNL     1       3.205   3.549  17.615  0.00  0.00    +0.000 C 
ATOM     35  F   UNL     1       4.342   2.902  17.228  0.00  0.00    +0.000 F 
ATOM     36  F   UNL     1       2.845   2.992  18.803  0.00  0.00    +0.000 F 
ATOM     37  F   UNL     1       2.248   3.174  16.720  0.00  0.00    +0.000 F 
ENDBRANCH  32  34
ENDBRANCH  26  28
ENDBRANCH   5  26
TORSDOF 7
ENDMDL
MODEL 8
REMARK VINA RESULT:      -8.1      5.889      9.995
REMARK  Name = 
REMARK  9 active torsions:
REMARK  status: ('A' for Active; 'I' for Inactive)
REMARK    1  A    between atoms: C_1  and  C_2
REMARK    2  A    between atoms: N_5  and  C_6
REMARK    3  A    between atoms: C_6  and  C_7
REMARK    4  A    between atoms: C_6  and  C_8
REMARK    5  A    between atoms: C_12  and  C_13
REMARK    6  A    between atoms: C_20  and  C_21
REMARK    7  A    between atoms: N_26  and  C_27
REMARK    8  A    between atoms: C_27  and  C_28
REMARK    9  A    between atoms: C_28  and  O_30
REMARK                            x       y       z     vdW  Elec       q    Type
REMARK                         _______ _______ _______ _____ _____    ______ ____
ROOT
ATOM      1  C   UNL     1      -0.943  12.257  22.779  0.00  0.00    +0.000 C 
ATOM      2  C   UNL     1      -0.250  11.393  21.770  0.00  0.00    +0.000 A 
ATOM      3  N   UNL     1      -0.185  11.798  20.490  0.00  0.00    +0.000 NA
ATOM      4  C   UNL     1       0.385  10.963  19.596  0.00  0.00    +0.000 A 
ATOM      5  N   UNL     1       0.493  11.365  18.242  0.00  0.00    +0.000 N 
ATOM      6  C   UNL     1       0.924   9.720  19.996  0.00  0.00    +0.000 A 
ATOM      7  C   UNL     1       1.516   8.757  19.144  0.00  0.00    +0.000 A 
ATOM      8  C   UNL     1       1.950   7.524  19.644  0.00  0.00    +0.000 A 
ATOM      9  C   UNL     1       1.826   7.251  21.004  0.00  0.00    +0.000 A 
ATOM     10  C   UNL     1       1.274   8.211  21.848  0.00  0.00    +0.000 A 
ATOM     11  C   UNL     1       0.811   9.420  21.364  0.00  0.00    +0.000 A 
ATOM     12  N   UNL     1       0.248  10.241  22.243  0.00  0.00    +0.000 NA
ATOM     13  H   UNL     1       0.498  10.564  17.624  0.00  0.00    +0.000 HD
ENDROOT
BRANCH   8  14
ATOM     14  C   UNL     1       2.574   6.533  18.770  0.00  0.00    +0.000 A 
ATOM     15  C   UNL     1       1.882   5.395  18.206  0.00  0.00    +0.000 A 
ATOM     16  C   UNL     1       2.542   4.479  17.487  0.00  0.00    +0.000 A 
ATOM     17  C   UNL     1       4.007   4.615  17.265  0.00  0.00    +0.000 A 
ATOM     18  O   UNL     1       4.616   3.739  16.658  0.00  0.00    +0.000 OA
ATOM     19  N   UNL     1       4.606   5.748  17.814  0.00  0.00    +0.000 N 
ATOM     20  C   UNL     1       3.888   6.684  18.538  0.00  0.00    +0.000 A 
BRANCH  19  21
ATOM     21  C   UNL     1       6.042   5.965  17.603  0.00  0.00    +0.000 C 
BRANCH  21  22
ATOM     22  C   UNL     1       6.931   5.234  18.608  0.00  0.00    +0.000 C 
ATOM     23  O   UNL     1       6.869   5.423  19.811  0.00  0.00    +0.000 OA
BRANCH  22  24
ATOM     24  O   UNL     1       7.774   4.321  18.070  0.00  0.00    +0.000 OA
ATOM     25  H   UNL     1       8.154   3.735  18.754  0.00  0.00    +0.000 HD
ENDBRANCH  22  24
ENDBRANCH  21  22
ENDBRANCH  19  21
ENDBRANCH   8  14
BRANCH   5  26
ATOM     26  C   UNL     1      -0.476  12.351  17.736  0.00  0.00    +0.000 C 
ATOM     27  C   UNL     1      -0.421  13.628  18.589  0.00  0.00    +0.000 C 
BRANCH  26  28
ATOM     28  C   UNL     1      -1.867  11.689  17.758  0.00  0.00    +0.000 A 
ATOM     29  C   UNL     1      -2.094  10.562  16.948  0.00  0.00    +0.000 A 
ATOM     30  C   UNL     1      -3.319   9.889  16.964  0.00  0.00    +0.000 A 
ATOM     31  C   UNL     1      -4.362  10.348  17.765  0.00  0.00    +0.000 A 
ATOM     32  C   UNL     1      -4.199  11.502  18.539  0.00  0.00    +0.000 A 
ATOM     33  C   UNL     1      -2.939  12.141  18.556  0.00  0.00    +0.000 A 
BRANCH  32  34
ATOM     34  C   UNL     1      -5.372  12.089  19.290  0.00  0.00    +0.000 C 
ATOM     35  F   UNL     1      -5.749  13.321  18.843  0.00  0.00    +0.000 F 
ATOM     36  F   UNL     1      -6.489  11.313  19.227  0.00  0.00    +0.000 F 
ATOM     37  F   UNL     1      -5.102  12.248  20.617  0.00  0.00    +0.000 F 
ENDBRANCH  32  34
ENDBRANCH  26  28
ENDBRANCH   5  26
TORSDOF 7
ENDMDL
MODEL 9
REMARK VINA RESULT:      -8.1      1.318      1.515
REMARK  Name = 
REMARK  9 active torsions:
REMARK  status: ('A' for Active; 'I' for Inactive)
REMARK    1  A    between atoms: C_1  and  C_2
REMARK    2  A    between atoms: N_5  and  C_6
REMARK    3  A    between atoms: C_6  and  C_7
REMARK    4  A    between atoms: C_6  and  C_8
REMARK    5  A    between atoms: C_12  and  C_13
REMARK    6  A    between atoms: C_20  and  C_21
REMARK    7  A    between atoms: N_26  and  C_27
REMARK    8  A    between atoms: C_27  and  C_28
REMARK    9  A    between atoms: C_28  and  O_30
REMARK                            x       y       z     vdW  Elec       q    Type
REMARK                         _______ _______ _______ _____ _____    ______ ____
ROOT
ATOM      1  C   UNL     1       4.135   1.345  20.362  0.00  0.00    +0.000 C 
ATOM      2  C   UNL     1       3.864   2.715  19.820  0.00  0.00    +0.000 A 
ATOM      3  N   UNL     1       4.560   3.151  18.756  0.00  0.00    +0.000 NA
ATOM      4  C   UNL     1       4.340   4.415  18.338  0.00  0.00    +0.000 A 
ATOM      5  N   UNL     1       5.037   4.903  17.206  0.00  0.00    +0.000 N 
ATOM      6  C   UNL     1       3.387   5.241  18.976  0.00  0.00    +0.000 A 
ATOM      7  C   UNL     1       3.096   6.586  18.642  0.00  0.00    +0.000 A 
ATOM      8  C   UNL     1       2.182   7.332  19.395  0.00  0.00    +0.000 A 
ATOM      9  C   UNL     1       1.527   6.736  20.469  0.00  0.00    +0.000 A 
ATOM     10  C   UNL     1       1.788   5.404  20.778  0.00  0.00    +0.000 A 
ATOM     11  C   UNL     1       2.712   4.663  20.064  0.00  0.00    +0.000 A 
ATOM     12  N   UNL     1       2.931   3.420  20.476  0.00  0.00    +0.000 NA
ATOM     13  H   UNL     1       5.151   5.907  17.253  0.00  0.00    +0.000 HD
ENDROOT
BRANCH   8  14
ATOM     14  C   UNL     1       1.870   8.717  19.045  0.00  0.00    +0.000 A 
ATOM     15  C   UNL     1       2.360   9.388  17.861  0.00  0.00    +0.000 A 
ATOM     16  C   UNL     1       2.105  10.686  17.656  0.00  0.00    +0.000 A 
ATOM     17  C   UNL     1       1.318  11.462  18.651  0.00  0.00    +0.000 A 
ATOM     18  O   UNL     1       1.142  12.665  18.486  0.00  0.00    +0.000 OA
ATOM     19  N   UNL     1       0.855  10.747  19.755  0.00  0.00    +0.000 N 
ATOM     20  C   UNL     1       1.123   9.401  19.928  0.00  0.00    +0.000 A 
BRANCH  19  21
ATOM     21  C   UNL     1       0.040  11.442  20.760  0.00  0.00    +0.000 C 
BRANCH  21  22
ATOM     22  C   UNL     1      -1.424  11.609  20.359  0.00  0.00    +0.000 C 
ATOM     23  O   UNL     1      -1.883  11.168  19.320  0.00  0.00    +0.000 OA
BRANCH  22  24
ATOM     24  O   UNL     1      -2.197  12.253  21.266  0.00  0.00    +0.000 OA
ATOM     25  H   UNL     1      -2.643  11.625  21.868  0.00  0.00    +0.000 HD
ENDBRANCH  22  24
ENDBRANCH  21  22
ENDBRANCH  19  21
ENDBRANCH   8  14
BRANCH   5  26
ATOM     26  C   UNL     1       6.335   4.291  16.879  0.00  0.00    +0.000 C 
ATOM     27  C   UNL     1       7.456   4.973  17.680  0.00  0.00    +0.000 C 
BRANCH  26  28
ATOM     28  C   UNL     1       6.540   4.418  15.357  0.00  0.00    +0.000 A 
ATOM     29  C   UNL     1       7.551   5.268  14.878  0.00  0.00    +0.000 A 
ATOM     30  C   UNL     1       7.817   5.385  13.510  0.00  0.00    +0.000 A 
ATOM     31  C   UNL     1       7.053   4.680  12.584  0.00  0.00    +0.000 A 
ATOM     32  C   UNL     1       5.997   3.870  13.015  0.00  0.00    +0.000 A 
ATOM     33  C   UNL     1       5.774   3.717  14.401  0.00  0.00    +0.000 A 
BRANCH  32  34
ATOM     34  C   UNL     1       5.071   3.224  12.009  0.00  0.00    +0.000 C 
ATOM     35  F   UNL     1       5.282   1.887  11.848  0.00  0.00    +0.000 F 
ATOM     36  F   UNL     1       3.755   3.357  12.334  0.00  0.00    +0.000 F 
ATOM     37  F   UNL     1       5.205   3.768  10.766  0.00  0.00    +0.000 F 
ENDBRANCH  32  34
ENDBRANCH  26  28
ENDBRANCH   5  26
TORSDOF 7
ENDMDL
