MODEL 1
REMARK VINA RESULT:      -7.2      0.000      0.000
REMARK  Name = 
REMARK  4 active torsions:
REMARK  status: ('A' for Active; 'I' for Inactive)
REMARK    1  A    between atoms: C_5  and  C_6
REMARK    2  A    between atoms: C_6  and  C_7
REMARK    3  A    between atoms: C_7  and  N_8
REMARK    4  A    between atoms: N_8  and  C_9
REMARK                            x       y       z     vdW  Elec       q    Type
REMARK                         _______ _______ _______ _____ _____    ______ ____
ROOT
ATOM      1  N   UNL     1       2.947   3.585  17.102  0.00  0.00    +0.000 N 
ATOM      2  H   UNL     1       2.305   2.977  16.600  0.00  0.00    +0.000 HD
ENDROOT
BRANCH   1   3
ATOM      3  C   UNL     1       2.418   3.792  18.408  0.00  0.00    +0.000 A 
ATOM      4  N   UNL     1       2.098   2.717  19.170  0.00  0.00    +0.000 NA
ATOM      5  N   UNL     1       1.598   2.858  20.428  0.00  0.00    +0.000 NA
ATOM      6  C   UNL     1       1.441   4.093  20.929  0.00  0.00    +0.000 A 
ATOM      7  C   UNL     1       1.758   5.245  20.228  0.00  0.00    +0.000 A 
ATOM      8  C   UNL     1       1.597   6.515  20.812  0.00  0.00    +0.000 A 
ATOM      9  C   UNL     1       1.927   7.667  20.104  0.00  0.00    +0.000 A 
ATOM     10  C   UNL     1       2.407   7.562  18.804  0.00  0.00    +0.000 A 
ATOM     11  C   UNL     1       2.572   6.302  18.216  0.00  0.00    +0.000 A 
ATOM     12  C   UNL     1       2.255   5.109  18.915  0.00  0.00    +0.000 A 
ENDBRANCH   1   3
BRANCH   1  13
ATOM     13  C   UNL     1       4.321   3.049  17.124  0.00  0.00    +0.000 C 
BRANCH  13  14
ATOM     14  C   UNL     1       5.214   3.797  16.125  0.00  0.00    +0.000 C 
BRANCH  14  19
ATOM     15 CL   UNL     1       8.463   8.231  18.631  0.00  0.00    +0.000 Cl
ATOM     16  C   UNL     1       7.519   6.971  17.937  0.00  0.00    +0.000 A 
ATOM     17  C   UNL     1       7.792   5.642  18.257  0.00  0.00    +0.000 A 
ATOM     18  C   UNL     1       7.038   4.618  17.678  0.00  0.00    +0.000 A 
ATOM     19  C   UNL     1       6.010   4.913  16.770  0.00  0.00    +0.000 A 
ATOM     20  C   UNL     1       5.733   6.257  16.474  0.00  0.00    +0.000 A 
ATOM     21  C   UNL     1       6.488   7.281  17.053  0.00  0.00    +0.000 A 
ENDBRANCH  14  19
ENDBRANCH  13  14
ENDBRANCH   1  13
TORSDOF 4
ENDMDL
MODEL 2
REMARK VINA RESULT:      -7.1      2.862      5.956
REMARK  Name = 
REMARK  4 active torsions:
REMARK  status: ('A' for Active; 'I' for Inactive)
REMARK    1  A    between atoms: C_5  and  C_6
REMARK    2  A    between atoms: C_6  and  C_7
REMARK    3  A    between atoms: C_7  and  N_8
REMARK    4  A    between atoms: N_8  and  C_9
REMARK                            x       y       z     vdW  Elec       q    Type
REMARK                         _______ _______ _______ _____ _____    ______ ____
ROOT
ATOM      1  N   UNL     1       3.660   4.144  18.477  0.00  0.00    +0.000 N 
ATOM      2  H   UNL     1       3.259   3.858  17.587  0.00  0.00    +0.000 HD
ENDROOT
BRANCH   1   3
ATOM      3  C   UNL     1       5.039   4.431  18.260  0.00  0.00    +0.000 A 
ATOM      4  N   UNL     1       5.854   4.605  19.328  0.00  0.00    +0.000 NA
ATOM      5  N   UNL     1       7.181   4.871  19.177  0.00  0.00    +0.000 NA
ATOM      6  C   UNL     1       7.692   4.938  17.939  0.00  0.00    +0.000 A 
ATOM      7  C   UNL     1       6.935   4.755  16.792  0.00  0.00    +0.000 A 
ATOM      8  C   UNL     1       7.529   4.811  15.517  0.00  0.00    +0.000 A 
ATOM      9  C   UNL     1       6.763   4.618  14.371  0.00  0.00    +0.000 A 
ATOM     10  C   UNL     1       5.398   4.379  14.486  0.00  0.00    +0.000 A 
ATOM     11  C   UNL     1       4.801   4.320  15.751  0.00  0.00    +0.000 A 
ATOM     12  C   UNL     1       5.555   4.502  16.938  0.00  0.00    +0.000 A 
ENDBRANCH   1   3
BRANCH   1  13
ATOM     13  C   UNL     1       2.932   5.277  19.078  0.00  0.00    +0.000 C 
BRANCH  13  14
ATOM     14  C   UNL     1       3.016   6.518  18.181  0.00  0.00    +0.000 C 
BRANCH  14  19
ATOM     15 CL   UNL     1      -0.083  11.219  20.369  0.00  0.00    +0.000 Cl
ATOM     16  C   UNL     1       0.776   9.869  19.738  0.00  0.00    +0.000 A 
ATOM     17  C   UNL     1       1.143   8.823  20.584  0.00  0.00    +0.000 A 
ATOM     18  C   UNL     1       1.857   7.735  20.076  0.00  0.00    +0.000 A 
ATOM     19  C   UNL     1       2.217   7.687  18.720  0.00  0.00    +0.000 A 
ATOM     20  C   UNL     1       1.823   8.738  17.877  0.00  0.00    +0.000 A 
ATOM     21  C   UNL     1       1.109   9.826  18.386  0.00  0.00    +0.000 A 
ENDBRANCH  14  19
ENDBRANCH  13  14
ENDBRANCH   1  13
TORSDOF 4
ENDMDL
MODEL 3
REMARK VINA RESULT:      -7.0      2.543      5.488
REMARK  Name = 
REMARK  4 active torsions:
REMARK  status: ('A' for Active; 'I' for Inactive)
REMARK    1  A    between atoms: C_5  and  C_6
REMARK    2  A    between atoms: C_6  and  C_7
REMARK    3  A    between atoms: C_7  and  N_8
REMARK    4  A    between atoms: N_8  and  C_9
REMARK                            x       y       z     vdW  Elec       q    Type
REMARK                         _______ _______ _______ _____ _____    ______ ____
ROOT
ATOM      1  N   UNL     1       4.293   3.289  19.301  0.00  0.00    +0.000 N 
ATOM      2  H   UNL     1       4.390   2.429  18.766  0.00  0.00    +0.000 HD
ENDROOT
BRANCH   1   3
ATOM      3  C   UNL     1       5.375   4.145  18.949  0.00  0.00    +0.000 A 
ATOM      4  N   UNL     1       6.154   4.663  19.930  0.00  0.00    +0.000 NA
ATOM      5  N   UNL     1       7.207   5.478  19.648  0.00  0.00    +0.000 NA
ATOM      6  C   UNL     1       7.491   5.753  18.366  0.00  0.00    +0.000 A 
ATOM      7  C   UNL     1       6.759   5.252  17.301  0.00  0.00    +0.000 A 
ATOM      8  C   UNL     1       7.115   5.553  15.973  0.00  0.00    +0.000 A 
ATOM      9  C   UNL     1       6.380   5.039  14.909  0.00  0.00    +0.000 A 
ATOM     10  C   UNL     1       5.277   4.231  15.160  0.00  0.00    +0.000 A 
ATOM     11  C   UNL     1       4.916   3.926  16.479  0.00  0.00    +0.000 A 
ATOM     12  C   UNL     1       5.651   4.425  17.584  0.00  0.00    +0.000 A 
ENDBRANCH   1   3
BRANCH   1  13
ATOM     13  C   UNL     1       2.977   3.924  19.101  0.00  0.00    +0.000 C 
BRANCH  13  14
ATOM     14  C   UNL     1       2.651   4.880  20.256  0.00  0.00    +0.000 C 
BRANCH  14  19
ATOM     15 CL   UNL     1       1.413  10.501  18.421  0.00  0.00    +0.000 Cl
ATOM     16  C   UNL     1       1.743   8.891  18.932  0.00  0.00    +0.000 A 
ATOM     17  C   UNL     1       1.376   8.481  20.212  0.00  0.00    +0.000 A 
ATOM     18  C   UNL     1       1.661   7.180  20.634  0.00  0.00    +0.000 A 
ATOM     19  C   UNL     1       2.320   6.281  19.783  0.00  0.00    +0.000 A 
ATOM     20  C   UNL     1       2.665   6.702  18.489  0.00  0.00    +0.000 A 
ATOM     21  C   UNL     1       2.380   8.005  18.068  0.00  0.00    +0.000 A 
ENDBRANCH  14  19
ENDBRANCH  13  14
ENDBRANCH   1  13
TORSDOF 4
ENDMDL
MODEL 4
REMARK VINA RESULT:      -7.0      3.953      5.944
REMARK  Name = 
REMARK  4 active torsions:
REMARK  status: ('A' for Active; 'I' for Inactive)
REMARK    1  A    between atoms: C_5  and  C_6
REMARK    2  A    between atoms: C_6  and  C_7
REMARK    3  A    between atoms: C_7  and  N_8
REMARK    4  A    between atoms: N_8  and  C_9
REMARK                            x       y       z     vdW  Elec       q    Type
REMARK                         _______ _______ _______ _____ _____    ______ ____
ROOT
ATOM      1  N   UNL     1       6.650   8.068  17.380  0.00  0.00    +0.000 N 
ATOM      2  H   UNL     1       6.068   8.662  16.793  0.00  0.00    +0.000 HD
ENDROOT
BRANCH   1   3
ATOM      3  C   UNL     1       6.495   6.727  16.927  0.00  0.00    +0.000 A 
ATOM      4  N   UNL     1       7.530   6.118  16.297  0.00  0.00    +0.000 NA
ATOM      5  N   UNL     1       7.439   4.835  15.853  0.00  0.00    +0.000 NA
ATOM      6  C   UNL     1       6.304   4.153  16.067  0.00  0.00    +0.000 A 
ATOM      7  C   UNL     1       5.204   4.690  16.717  0.00  0.00    +0.000 A 
ATOM      8  C   UNL     1       4.047   3.922  16.937  0.00  0.00    +0.000 A 
ATOM      9  C   UNL     1       2.950   4.466  17.598  0.00  0.00    +0.000 A 
ATOM     10  C   UNL     1       2.994   5.786  18.035  0.00  0.00    +0.000 A 
ATOM     11  C   UNL     1       4.143   6.557  17.822  0.00  0.00    +0.000 A 
ATOM     12  C   UNL     1       5.281   6.028  17.160  0.00  0.00    +0.000 A 
ENDBRANCH   1   3
BRANCH   1  13
ATOM     13  C   UNL     1       8.058   8.506  17.394  0.00  0.00    +0.000 C 
BRANCH  13  14
ATOM     14  C   UNL     1       8.540   8.748  18.830  0.00  0.00    +0.000 C 
BRANCH  14  19
ATOM     15 CL   UNL     1      10.989  14.224  19.544  0.00  0.00    +0.000 Cl
ATOM     16  C   UNL     1      10.316  12.653  19.342  0.00  0.00    +0.000 A 
ATOM     17  C   UNL     1      10.037  12.178  18.062  0.00  0.00    +0.000 A 
ATOM     18  C   UNL     1       9.473  10.911  17.898  0.00  0.00    +0.000 A 
ATOM     19  C   UNL     1       9.177  10.111  19.013  0.00  0.00    +0.000 A 
ATOM     20  C   UNL     1       9.483  10.595  20.294  0.00  0.00    +0.000 A 
ATOM     21  C   UNL     1      10.047  11.864  20.457  0.00  0.00    +0.000 A 
ENDBRANCH  14  19
ENDBRANCH  13  14
ENDBRANCH   1  13
TORSDOF 4
ENDMDL
MODEL 5
REMARK VINA RESULT:      -7.0      3.960      5.886
REMARK  Name = 
REMARK  4 active torsions:
REMARK  status: ('A' for Active; 'I' for Inactive)
REMARK    1  A    between atoms: C_5  and  C_6
REMARK    2  A    between atoms: C_6  and  C_7
REMARK    3  A    between atoms: C_7  and  N_8
REMARK    4  A    between atoms: N_8  and  C_9
REMARK                            x       y       z     vdW  Elec       q    Type
REMARK                         _______ _______ _______ _____ _____    ______ ____
ROOT
ATOM      1  N   UNL     1       6.692   8.065  17.328  0.00  0.00    +0.000 N 
ATOM      2  H   UNL     1       6.171   8.672  16.700  0.00  0.00    +0.000 HD
ENDROOT
BRANCH   1   3
ATOM      3  C   UNL     1       6.510   6.723  16.885  0.00  0.00    +0.000 A 
ATOM      4  N   UNL     1       7.529   6.092  16.251  0.00  0.00    +0.000 NA
ATOM      5  N   UNL     1       7.412   4.808  15.817  0.00  0.00    +0.000 NA
ATOM      6  C   UNL     1       6.266   4.147  16.044  0.00  0.00    +0.000 A 
ATOM      7  C   UNL     1       5.182   4.709  16.700  0.00  0.00    +0.000 A 
ATOM      8  C   UNL     1       4.013   3.962  16.934  0.00  0.00    +0.000 A 
ATOM      9  C   UNL     1       2.931   4.530  17.601  0.00  0.00    +0.000 A 
ATOM     10  C   UNL     1       3.002   5.852  18.029  0.00  0.00    +0.000 A 
ATOM     11  C   UNL     1       4.163   6.601  17.801  0.00  0.00    +0.000 A 
ATOM     12  C   UNL     1       5.286   6.047  17.133  0.00  0.00    +0.000 A 
ENDBRANCH   1   3
BRANCH   1  13
ATOM     13  C   UNL     1       8.114   8.446  17.420  0.00  0.00    +0.000 C 
BRANCH  13  14
ATOM     14  C   UNL     1       8.494   8.793  18.865  0.00  0.00    +0.000 C 
BRANCH  14  19
ATOM     15 CL   UNL     1      11.356  14.093  19.337  0.00  0.00    +0.000 Cl
ATOM     16  C   UNL     1      10.517  12.596  19.205  0.00  0.00    +0.000 A 
ATOM     17  C   UNL     1      10.330  11.803  20.336  0.00  0.00    +0.000 A 
ATOM     18  C   UNL     1       9.666  10.579  20.225  0.00  0.00    +0.000 A 
ATOM     19  C   UNL     1       9.189  10.134  18.983  0.00  0.00    +0.000 A 
ATOM     20  C   UNL     1       9.366  10.953  17.857  0.00  0.00    +0.000 A 
ATOM     21  C   UNL     1      10.032  12.178  17.968  0.00  0.00    +0.000 A 
ENDBRANCH  14  19
ENDBRANCH  13  14
ENDBRANCH   1  13
TORSDOF 4
ENDMDL
MODEL 6
REMARK VINA RESULT:      -7.0      2.795      5.945
REMARK  Name = 
REMARK  4 active torsions:
REMARK  status: ('A' for Active; 'I' for Inactive)
REMARK    1  A    between atoms: C_5  and  C_6
REMARK    2  A    between atoms: C_6  and  C_7
REMARK    3  A    between atoms: C_7  and  N_8
REMARK    4  A    between atoms: N_8  and  C_9
REMARK                            x       y       z     vdW  Elec       q    Type
REMARK                         _______ _______ _______ _____ _____    ______ ____
ROOT
ATOM      1  N   UNL     1       3.527   3.901  18.246  0.00  0.00    +0.000 N 
ATOM      2  H   UNL     1       3.201   3.578  17.338  0.00  0.00    +0.000 HD
ENDROOT
BRANCH   1   3
ATOM      3  C   UNL     1       4.900   4.255  18.113  0.00  0.00    +0.000 A 
ATOM      4  N   UNL     1       5.649   4.431  19.229  0.00  0.00    +0.000 NA
ATOM      5  N   UNL     1       6.968   4.759  19.159  0.00  0.00    +0.000 NA
ATOM      6  C   UNL     1       7.541   4.890  17.953  0.00  0.00    +0.000 A 
ATOM      7  C   UNL     1       6.856   4.712  16.762  0.00  0.00    +0.000 A 
ATOM      8  C   UNL     1       7.512   4.837  15.524  0.00  0.00    +0.000 A 
ATOM      9  C   UNL     1       6.819   4.647  14.331  0.00  0.00    +0.000 A 
ATOM     10  C   UNL     1       5.462   4.345  14.365  0.00  0.00    +0.000 A 
ATOM     11  C   UNL     1       4.801   4.217  15.593  0.00  0.00    +0.000 A 
ATOM     12  C   UNL     1       5.482   4.394  16.824  0.00  0.00    +0.000 A 
ENDBRANCH   1   3
BRANCH   1  13
ATOM     13  C   UNL     1       2.703   5.005  18.773  0.00  0.00    +0.000 C 
BRANCH  13  14
ATOM     14  C   UNL     1       3.195   6.357  18.241  0.00  0.00    +0.000 C 
BRANCH  14  19
ATOM     15 CL   UNL     1      -0.234  10.952  20.143  0.00  0.00    +0.000 Cl
ATOM     16  C   UNL     1       0.765   9.656  19.610  0.00  0.00    +0.000 A 
ATOM     17  C   UNL     1       1.176   9.599  18.279  0.00  0.00    +0.000 A 
ATOM     18  C   UNL     1       1.971   8.537  17.842  0.00  0.00    +0.000 A 
ATOM     19  C   UNL     1       2.356   7.520  18.728  0.00  0.00    +0.000 A 
ATOM     20  C   UNL     1       1.951   7.602  20.070  0.00  0.00    +0.000 A 
ATOM     21  C   UNL     1       1.155   8.665  20.507  0.00  0.00    +0.000 A 
ENDBRANCH  14  19
ENDBRANCH  13  14
ENDBRANCH   1  13
TORSDOF 4
ENDMDL
MODEL 7
REMARK VINA RESULT:      -7.0      0.718      1.135
REMARK  Name = 
REMARK  4 active torsions:
REMARK  status: ('A' for Active; 'I' for Inactive)
REMARK    1  A    between atoms: C_5  and  C_6
REMARK    2  A    between atoms: C_6  and  C_7
REMARK    3  A    between atoms: C_7  and  N_8
REMARK    4  A    between atoms: N_8  and  C_9
REMARK                            x       y       z     vdW  Elec       q    Type
REMARK                         _______ _______ _______ _____ _____    ______ ____
ROOT
ATOM      1  N   UNL     1       2.646   2.784  17.497  0.00  0.00    +0.000 N 
ATOM      2  H   UNL     1       2.126   1.929  17.312  0.00  0.00    +0.000 HD
ENDROOT
BRANCH   1   3
ATOM      3  C   UNL     1       2.254   3.262  18.780  0.00  0.00    +0.000 A 
ATOM      4  N   UNL     1       1.965   2.369  19.758  0.00  0.00    +0.000 NA
ATOM      5  N   UNL     1       1.595   2.772  21.005  0.00  0.00    +0.000 NA
ATOM      6  C   UNL     1       1.539   4.085  21.272  0.00  0.00    +0.000 A 
ATOM      7  C   UNL     1       1.836   5.065  20.339  0.00  0.00    +0.000 A 
ATOM      8  C   UNL     1       1.785   6.429  20.681  0.00  0.00    +0.000 A 
ATOM      9  C   UNL     1       2.093   7.407  19.739  0.00  0.00    +0.000 A 
ATOM     10  C   UNL     1       2.441   7.033  18.446  0.00  0.00    +0.000 A 
ATOM     11  C   UNL     1       2.495   5.678  18.098  0.00  0.00    +0.000 A 
ATOM     12  C   UNL     1       2.197   4.658  19.037  0.00  0.00    +0.000 A 
ENDBRANCH   1   3
BRANCH   1  13
ATOM     13  C   UNL     1       4.103   2.585  17.384  0.00  0.00    +0.000 C 
BRANCH  13  14
ATOM     14  C   UNL     1       4.703   3.531  16.336  0.00  0.00    +0.000 C 
BRANCH  14  19
ATOM     15 CL   UNL     1       8.418   7.648  18.732  0.00  0.00    +0.000 Cl
ATOM     16  C   UNL     1       7.381   6.458  18.047  0.00  0.00    +0.000 A 
ATOM     17  C   UNL     1       7.117   6.472  16.679  0.00  0.00    +0.000 A 
ATOM     18  C   UNL     1       6.260   5.518  16.126  0.00  0.00    +0.000 A 
ATOM     19  C   UNL     1       5.654   4.546  16.937  0.00  0.00    +0.000 A 
ATOM     20  C   UNL     1       5.946   4.532  18.310  0.00  0.00    +0.000 A 
ATOM     21  C   UNL     1       6.803   5.488  18.862  0.00  0.00    +0.000 A 
ENDBRANCH  14  19
ENDBRANCH  13  14
ENDBRANCH   1  13
TORSDOF 4
ENDMDL
MODEL 8
REMARK VINA RESULT:      -6.9      2.271      5.162
REMARK  Name = 
REMARK  4 active torsions:
REMARK  status: ('A' for Active; 'I' for Inactive)
REMARK    1  A    between atoms: C_5  and  C_6
REMARK    2  A    between atoms: C_6  and  C_7
REMARK    3  A    between atoms: C_7  and  N_8
REMARK    4  A    between atoms: N_8  and  C_9
REMARK                            x       y       z     vdW  Elec       q    Type
REMARK                         _______ _______ _______ _____ _____    ______ ____
ROOT
ATOM      1  N   UNL     1       4.197   2.210  17.874  0.00  0.00    +0.000 N 
ATOM      2  H   UNL     1       4.222   2.013  16.877  0.00  0.00    +0.000 HD
ENDROOT
BRANCH   1   3
ATOM      3  C   UNL     1       5.013   3.353  18.112  0.00  0.00    +0.000 A 
ATOM      4  N   UNL     1       5.266   3.732  19.389  0.00  0.00    +0.000 NA
ATOM      5  N   UNL     1       6.046   4.810  19.671  0.00  0.00    +0.000 NA
ATOM      6  C   UNL     1       6.595   5.498  18.658  0.00  0.00    +0.000 A 
ATOM      7  C   UNL     1       6.404   5.170  17.326  0.00  0.00    +0.000 A 
ATOM      8  C   UNL     1       7.024   5.912  16.303  0.00  0.00    +0.000 A 
ATOM      9  C   UNL     1       6.834   5.572  14.966  0.00  0.00    +0.000 A 
ATOM     10  C   UNL     1       6.014   4.497  14.639  0.00  0.00    +0.000 A 
ATOM     11  C   UNL     1       5.395   3.753  15.651  0.00  0.00    +0.000 A 
ATOM     12  C   UNL     1       5.577   4.068  17.022  0.00  0.00    +0.000 A 
ENDBRANCH   1   3
BRANCH   1  13
ATOM     13  C   UNL     1       2.820   2.379  18.375  0.00  0.00    +0.000 C 
BRANCH  13  14
ATOM     14  C   UNL     1       2.131   3.564  17.687  0.00  0.00    +0.000 C 
BRANCH  14  19
ATOM     15 CL   UNL     1       1.785   8.386  21.310  0.00  0.00    +0.000 Cl
ATOM     16  C   UNL     1       1.859   7.019  20.267  0.00  0.00    +0.000 A 
ATOM     17  C   UNL     1       1.418   5.777  20.718  0.00  0.00    +0.000 A 
ATOM     18  C   UNL     1       1.497   4.663  19.879  0.00  0.00    +0.000 A 
ATOM     19  C   UNL     1       2.023   4.781  18.583  0.00  0.00    +0.000 A 
ATOM     20  C   UNL     1       2.444   6.043  18.136  0.00  0.00    +0.000 A 
ATOM     21  C   UNL     1       2.366   7.157  18.977  0.00  0.00    +0.000 A 
ENDBRANCH  14  19
ENDBRANCH  13  14
ENDBRANCH   1  13
TORSDOF 4
ENDMDL
MODEL 9
REMARK VINA RESULT:      -6.8      2.931      4.704
REMARK  Name = 
REMARK  4 active torsions:
REMARK  status: ('A' for Active; 'I' for Inactive)
REMARK    1  A    between atoms: C_5  and  C_6
REMARK    2  A    between atoms: C_6  and  C_7
REMARK    3  A    between atoms: C_7  and  N_8
REMARK    4  A    between atoms: N_8  and  C_9
REMARK                            x       y       z     vdW  Elec       q    Type
REMARK                         _______ _______ _______ _____ _____    ______ ____
ROOT
ATOM      1  N   UNL     1       4.905   5.019  17.377  0.00  0.00    +0.000 N 
ATOM      2  H   UNL     1       5.826   4.760  17.030  0.00  0.00    +0.000 HD
ENDROOT
BRANCH   1   3
ATOM      3  C   UNL     1       4.543   4.081  18.386  0.00  0.00    +0.000 A 
ATOM      4  N   UNL     1       5.491   3.635  19.247  0.00  0.00    +0.000 NA
ATOM      5  N   UNL     1       5.196   2.747  20.235  0.00  0.00    +0.000 NA
ATOM      6  C   UNL     1       3.930   2.323  20.370  0.00  0.00    +0.000 A 
ATOM      7  C   UNL     1       2.896   2.740  19.547  0.00  0.00    +0.000 A 
ATOM      8  C   UNL     1       1.581   2.282  19.749  0.00  0.00    +0.000 A 
ATOM      9  C   UNL     1       0.546   2.712  18.924  0.00  0.00    +0.000 A 
ATOM     10  C   UNL     1       0.817   3.593  17.882  0.00  0.00    +0.000 A 
ATOM     11  C   UNL     1       2.123   4.054  17.675  0.00  0.00    +0.000 A 
ATOM     12  C   UNL     1       3.196   3.643  18.505  0.00  0.00    +0.000 A 
ENDBRANCH   1   3
BRANCH   1  13
ATOM     13  C   UNL     1       4.862   6.414  17.855  0.00  0.00    +0.000 C 
BRANCH  13  14
ATOM     14  C   UNL     1       3.722   7.186  17.179  0.00  0.00    +0.000 C 
BRANCH  14  19
ATOM     15 CL   UNL     1      -0.017   9.708  21.199  0.00  0.00    +0.000 Cl
ATOM     16  C   UNL     1       1.027   8.977  20.042  0.00  0.00    +0.000 A 
ATOM     17  C   UNL     1       1.687   7.790  20.355  0.00  0.00    +0.000 A 
ATOM     18  C   UNL     1       2.549   7.207  19.424  0.00  0.00    +0.000 A 
ATOM     19  C   UNL     1       2.765   7.809  18.174  0.00  0.00    +0.000 A 
ATOM     20  C   UNL     1       2.077   8.993  17.866  0.00  0.00    +0.000 A 
ATOM     21  C   UNL     1       1.215   9.577  18.799  0.00  0.00    +0.000 A 
ENDBRANCH  14  19
ENDBRANCH  13  14
ENDBRANCH   1  13
TORSDOF 4
ENDMDL
