MODEL 1
REMARK VINA RESULT:      -8.1      0.000      0.000
REMARK  Name = 
REMARK  2 active torsions:
REMARK  status: ('A' for Active; 'I' for Inactive)
REMARK    1  A    between atoms: C_2  and  C_3
REMARK    2  A    between atoms: C_7  and  N_8
REMARK                            x       y       z     vdW  Elec       q    Type
REMARK                         _______ _______ _______ _____ _____    ______ ____
ROOT
ATOM      1  N   UNL     1       2.409   7.409  18.484  0.00  0.00    +0.000 N 
ATOM      2  C   UNL     1       2.434   8.428  17.538  0.00  0.00    +0.000 A 
ATOM      3  N   UNL     1       1.964   9.624  17.689  0.00  0.00    +0.000 NA
ATOM      4  C   UNL     1       1.385   9.842  18.896  0.00  0.00    +0.000 A 
ATOM      5  S   UNL     1       0.638  11.330  19.275  0.00  0.00    +0.000 S 
ATOM      6  C   UNL     1       0.166  10.771  20.812  0.00  0.00    +0.000 A 
ATOM      7  C   UNL     1       0.604   9.485  21.069  0.00  0.00    +0.000 A 
ATOM      8  C   UNL     1       1.293   8.944  19.939  0.00  0.00    +0.000 A 
ATOM      9  C   UNL     1       1.854   7.617  19.755  0.00  0.00    +0.000 A 
ATOM     10  O   UNL     1       1.781   6.760  20.634  0.00  0.00    +0.000 OA
ATOM     11  C   UNL     1       0.308   8.787  22.363  0.00  0.00    +0.000 C 
ATOM     12  C   UNL     1      -0.138   9.776  23.449  0.00  0.00    +0.000 C 
ATOM     13  C   UNL     1      -1.179  10.767  22.912  0.00  0.00    +0.000 C 
ATOM     14  C   UNL     1      -0.607  11.625  21.769  0.00  0.00    +0.000 C 
ENDROOT
BRANCH   1  19
ATOM     15  C   UNL     1       4.755   4.609  17.757  0.00  0.00    +0.000 A 
ATOM     16  C   UNL     1       3.860   3.562  17.518  0.00  0.00    +0.000 A 
ATOM     17  C   UNL     1       2.488   3.793  17.589  0.00  0.00    +0.000 A 
ATOM     18  C   UNL     1       2.010   5.074  17.880  0.00  0.00    +0.000 A 
ATOM     19  C   UNL     1       2.905   6.122  18.140  0.00  0.00    +0.000 A 
ATOM     20  C   UNL     1       4.285   5.882  18.086  0.00  0.00    +0.000 A 
BRANCH  15  22
ATOM     21  O   UNL     1       6.964   4.605  18.589  0.00  0.00    +0.000 OA
ATOM     22  C   UNL     1       6.208   4.381  17.657  0.00  0.00    +0.000 C 
ENDBRANCH  15  22
ENDBRANCH   1  19
TORSDOF 2
ENDMDL
MODEL 2
REMARK VINA RESULT:      -8.0      4.102      6.065
REMARK  Name = 
REMARK  2 active torsions:
REMARK  status: ('A' for Active; 'I' for Inactive)
REMARK    1  A    between atoms: C_2  and  C_3
REMARK    2  A    between atoms: C_7  and  N_8
REMARK                            x       y       z     vdW  Elec       q    Type
REMARK                         _______ _______ _______ _____ _____    ______ ____
ROOT
ATOM      1  N   UNL     1       5.128   5.249  15.800  0.00  0.00    +0.000 N 
ATOM      2  C   UNL     1       4.995   6.609  16.054  0.00  0.00    +0.000 A 
ATOM      3  N   UNL     1       4.335   7.144  17.032  0.00  0.00    +0.000 NA
ATOM      4  C   UNL     1       3.719   6.245  17.840  0.00  0.00    +0.000 A 
ATOM      5  S   UNL     1       2.738   6.741  19.146  0.00  0.00    +0.000 S 
ATOM      6  C   UNL     1       2.351   5.133  19.546  0.00  0.00    +0.000 A 
ATOM      7  C   UNL     1       2.990   4.213  18.734  0.00  0.00    +0.000 A 
ATOM      8  C   UNL     1       3.767   4.871  17.730  0.00  0.00    +0.000 A 
ATOM      9  C   UNL     1       4.537   4.295  16.641  0.00  0.00    +0.000 A 
ATOM     10  O   UNL     1       4.598   3.079  16.470  0.00  0.00    +0.000 OA
ATOM     11  C   UNL     1       2.802   2.735  18.903  0.00  0.00    +0.000 C 
ATOM     12  C   UNL     1       2.192   2.397  20.272  0.00  0.00    +0.000 C 
ATOM     13  C   UNL     1       1.009   3.316  20.602  0.00  0.00    +0.000 C 
ATOM     14  C   UNL     1       1.443   4.790  20.685  0.00  0.00    +0.000 C 
ENDROOT
BRANCH   1  19
ATOM     15  C   UNL     1       5.915   3.572  12.568  0.00  0.00    +0.000 A 
ATOM     16  C   UNL     1       7.214   4.032  12.336  0.00  0.00    +0.000 A 
ATOM     17  C   UNL     1       7.823   4.884  13.254  0.00  0.00    +0.000 A 
ATOM     18  C   UNL     1       7.142   5.262  14.414  0.00  0.00    +0.000 A 
ATOM     19  C   UNL     1       5.830   4.819  14.641  0.00  0.00    +0.000 A 
ATOM     20  C   UNL     1       5.213   3.976  13.706  0.00  0.00    +0.000 A 
BRANCH  15  22
ATOM     21  O   UNL     1       4.140   2.831  11.200  0.00  0.00    +0.000 OA
ATOM     22  C   UNL     1       5.272   2.648  11.616  0.00  0.00    +0.000 C 
ENDBRANCH  15  22
ENDBRANCH   1  19
TORSDOF 2
ENDMDL
MODEL 3
REMARK VINA RESULT:      -7.9      1.334      2.013
REMARK  Name = 
REMARK  2 active torsions:
REMARK  status: ('A' for Active; 'I' for Inactive)
REMARK    1  A    between atoms: C_2  and  C_3
REMARK    2  A    between atoms: C_7  and  N_8
REMARK                            x       y       z     vdW  Elec       q    Type
REMARK                         _______ _______ _______ _____ _____    ______ ____
ROOT
ATOM      1  N   UNL     1       2.410   7.404  18.527  0.00  0.00    +0.000 N 
ATOM      2  C   UNL     1       2.429   8.393  17.550  0.00  0.00    +0.000 A 
ATOM      3  N   UNL     1       1.940   9.587  17.660  0.00  0.00    +0.000 NA
ATOM      4  C   UNL     1       1.348   9.833  18.855  0.00  0.00    +0.000 A 
ATOM      5  S   UNL     1       0.577  11.321  19.182  0.00  0.00    +0.000 S 
ATOM      6  C   UNL     1       0.100  10.803  20.732  0.00  0.00    +0.000 A 
ATOM      7  C   UNL     1       0.554   9.532  21.032  0.00  0.00    +0.000 A 
ATOM      8  C   UNL     1       1.261   8.967  19.925  0.00  0.00    +0.000 A 
ATOM      9  C   UNL     1       1.842   7.643  19.787  0.00  0.00    +0.000 A 
ATOM     10  O   UNL     1       1.774   6.813  20.691  0.00  0.00    +0.000 OA
ATOM     11  C   UNL     1       0.258   8.870  22.345  0.00  0.00    +0.000 C 
ATOM     12  C   UNL     1      -0.211   9.886  23.396  0.00  0.00    +0.000 C 
ATOM     13  C   UNL     1      -1.262  10.845  22.820  0.00  0.00    +0.000 C 
ATOM     14  C   UNL     1      -0.693  11.674  21.656  0.00  0.00    +0.000 C 
ENDROOT
BRANCH   1  19
ATOM     15  C   UNL     1       2.633   3.723  18.002  0.00  0.00    +0.000 A 
ATOM     16  C   UNL     1       3.958   3.591  17.576  0.00  0.00    +0.000 A 
ATOM     17  C   UNL     1       4.769   4.718  17.475  0.00  0.00    +0.000 A 
ATOM     18  C   UNL     1       4.264   5.975  17.818  0.00  0.00    +0.000 A 
ATOM     19  C   UNL     1       2.928   6.115  18.227  0.00  0.00    +0.000 A 
ATOM     20  C   UNL     1       2.109   4.980  18.310  0.00  0.00    +0.000 A 
BRANCH  15  22
ATOM     21  O   UNL     1       0.760   2.539  18.817  0.00  0.00    +0.000 OA
ATOM     22  C   UNL     1       1.775   2.532  18.139  0.00  0.00    +0.000 C 
ENDBRANCH  15  22
ENDBRANCH   1  19
TORSDOF 2
ENDMDL
MODEL 4
REMARK VINA RESULT:      -7.5      2.684      7.481
REMARK  Name = 
REMARK  2 active torsions:
REMARK  status: ('A' for Active; 'I' for Inactive)
REMARK    1  A    between atoms: C_2  and  C_3
REMARK    2  A    between atoms: C_7  and  N_8
REMARK                            x       y       z     vdW  Elec       q    Type
REMARK                         _______ _______ _______ _____ _____    ______ ____
ROOT
ATOM      1  N   UNL     1       2.187   7.127  19.619  0.00  0.00    +0.000 N 
ATOM      2  C   UNL     1       2.021   5.956  20.350  0.00  0.00    +0.000 A 
ATOM      3  N   UNL     1       2.569   4.811  20.095  0.00  0.00    +0.000 NA
ATOM      4  C   UNL     1       3.352   4.807  18.987  0.00  0.00    +0.000 A 
ATOM      5  S   UNL     1       4.110   3.382  18.431  0.00  0.00    +0.000 S 
ATOM      6  C   UNL     1       4.777   4.187  17.088  0.00  0.00    +0.000 A 
ATOM      7  C   UNL     1       4.474   5.537  17.072  0.00  0.00    +0.000 A 
ATOM      8  C   UNL     1       3.626   5.884  18.169  0.00  0.00    +0.000 A 
ATOM      9  C   UNL     1       3.022   7.165  18.493  0.00  0.00    +0.000 A 
ATOM     10  O   UNL     1       3.203   8.157  17.789  0.00  0.00    +0.000 OA
ATOM     11  C   UNL     1       4.958   6.448  15.983  0.00  0.00    +0.000 C 
ATOM     12  C   UNL     1       6.108   5.815  15.186  0.00  0.00    +0.000 C 
ATOM     13  C   UNL     1       5.801   4.356  14.821  0.00  0.00    +0.000 C 
ATOM     14  C   UNL     1       5.626   3.483  16.075  0.00  0.00    +0.000 C 
ENDROOT
BRANCH   1  19
ATOM     15  C   UNL     1       0.286   9.608  21.644  0.00  0.00    +0.000 A 
ATOM     16  C   UNL     1       0.077  10.621  20.704  0.00  0.00    +0.000 A 
ATOM     17  C   UNL     1       0.557  10.471  19.405  0.00  0.00    +0.000 A 
ATOM     18  C   UNL     1       1.229   9.301  19.041  0.00  0.00    +0.000 A 
ATOM     19  C   UNL     1       1.459   8.291  19.987  0.00  0.00    +0.000 A 
ATOM     20  C   UNL     1       0.990   8.453  21.298  0.00  0.00    +0.000 A 
BRANCH  15  22
ATOM     21  O   UNL     1       0.464   9.605  23.998  0.00  0.00    +0.000 OA
ATOM     22  C   UNL     1      -0.243   9.746  23.014  0.00  0.00    +0.000 C 
ENDBRANCH  15  22
ENDBRANCH   1  19
TORSDOF 2
ENDMDL
MODEL 5
REMARK VINA RESULT:      -7.3      3.013      7.458
REMARK  Name = 
REMARK  2 active torsions:
REMARK  status: ('A' for Active; 'I' for Inactive)
REMARK    1  A    between atoms: C_2  and  C_3
REMARK    2  A    between atoms: C_7  and  N_8
REMARK                            x       y       z     vdW  Elec       q    Type
REMARK                         _______ _______ _______ _____ _____    ______ ____
ROOT
ATOM      1  N   UNL     1       1.315   9.065  19.226  0.00  0.00    +0.000 N 
ATOM      2  C   UNL     1       1.067   8.330  20.379  0.00  0.00    +0.000 A 
ATOM      3  N   UNL     1       1.593   7.187  20.686  0.00  0.00    +0.000 NA
ATOM      4  C   UNL     1       2.443   6.700  19.748  0.00  0.00    +0.000 A 
ATOM      5  S   UNL     1       3.188   5.174  19.921  0.00  0.00    +0.000 S 
ATOM      6  C   UNL     1       3.963   5.313  18.413  0.00  0.00    +0.000 A 
ATOM      7  C   UNL     1       3.706   6.521  17.791  0.00  0.00    +0.000 A 
ATOM      8  C   UNL     1       2.802   7.312  18.565  0.00  0.00    +0.000 A 
ATOM      9  C   UNL     1       2.220   8.607  18.257  0.00  0.00    +0.000 A 
ATOM     10  O   UNL     1       2.476   9.194  17.207  0.00  0.00    +0.000 OA
ATOM     11  C   UNL     1       4.286   6.866  16.451  0.00  0.00    +0.000 C 
ATOM     12  C   UNL     1       5.463   5.947  16.091  0.00  0.00    +0.000 C 
ATOM     13  C   UNL     1       5.132   4.476  16.375  0.00  0.00    +0.000 C 
ATOM     14  C   UNL     1       4.851   4.237  17.869  0.00  0.00    +0.000 C 
ENDROOT
BRANCH   1  19
ATOM     15  C   UNL     1      -1.310  11.461  18.112  0.00  0.00    +0.000 A 
ATOM     16  C   UNL     1      -0.810  12.664  18.618  0.00  0.00    +0.000 A 
ATOM     17  C   UNL     1       0.396  12.675  19.315  0.00  0.00    +0.000 A 
ATOM     18  C   UNL     1       1.111  11.487  19.489  0.00  0.00    +0.000 A 
ATOM     19  C   UNL     1       0.603  10.274  19.000  0.00  0.00    +0.000 A 
ATOM     20  C   UNL     1      -0.620  10.264  18.315  0.00  0.00    +0.000 A 
BRANCH  15  22
ATOM     21  O   UNL     1      -2.616  11.105  16.177  0.00  0.00    +0.000 OA
ATOM     22  C   UNL     1      -2.572  11.444  17.349  0.00  0.00    +0.000 C 
ENDBRANCH  15  22
ENDBRANCH   1  19
TORSDOF 2
ENDMDL
MODEL 6
REMARK VINA RESULT:      -7.3      1.980      2.593
REMARK  Name = 
REMARK  2 active torsions:
REMARK  status: ('A' for Active; 'I' for Inactive)
REMARK    1  A    between atoms: C_2  and  C_3
REMARK    2  A    between atoms: C_7  and  N_8
REMARK                            x       y       z     vdW  Elec       q    Type
REMARK                         _______ _______ _______ _____ _____    ______ ____
ROOT
ATOM      1  N   UNL     1       2.039   7.690  19.464  0.00  0.00    +0.000 N 
ATOM      2  C   UNL     1       2.200   8.332  18.242  0.00  0.00    +0.000 A 
ATOM      3  N   UNL     1       1.735   9.498  17.924  0.00  0.00    +0.000 NA
ATOM      4  C   UNL     1       1.014  10.093  18.907  0.00  0.00    +0.000 A 
ATOM      5  S   UNL     1       0.252  11.603  18.670  0.00  0.00    +0.000 S 
ATOM      6  C   UNL     1      -0.416  11.579  20.235  0.00  0.00    +0.000 A 
ATOM      7  C   UNL     1      -0.037  10.465  20.961  0.00  0.00    +0.000 A 
ATOM      8  C   UNL     1       0.778   9.595  20.171  0.00  0.00    +0.000 A 
ATOM      9  C   UNL     1       1.334   8.297  20.514  0.00  0.00    +0.000 A 
ATOM     10  O   UNL     1       1.138   7.783  21.614  0.00  0.00    +0.000 OA
ATOM     11  C   UNL     1      -0.503  10.234  22.367  0.00  0.00    +0.000 C 
ATOM     12  C   UNL     1      -1.063  11.518  22.995  0.00  0.00    +0.000 C 
ATOM     13  C   UNL     1      -2.011  12.246  22.033  0.00  0.00    +0.000 C 
ATOM     14  C   UNL     1      -1.287  12.684  20.748  0.00  0.00    +0.000 C 
ENDROOT
BRANCH   1  19
ATOM     15  C   UNL     1       2.301   4.099  20.419  0.00  0.00    +0.000 A 
ATOM     16  C   UNL     1       3.563   3.776  19.912  0.00  0.00    +0.000 A 
ATOM     17  C   UNL     1       4.321   4.751  19.268  0.00  0.00    +0.000 A 
ATOM     18  C   UNL     1       3.827   6.052  19.146  0.00  0.00    +0.000 A 
ATOM     19  C   UNL     1       2.552   6.375  19.637  0.00  0.00    +0.000 A 
ATOM     20  C   UNL     1       1.784   5.387  20.268  0.00  0.00    +0.000 A 
BRANCH  15  22
ATOM     21  O   UNL     1       1.841   2.632  22.211  0.00  0.00    +0.000 OA
ATOM     22  C   UNL     1       1.503   3.081  21.128  0.00  0.00    +0.000 C 
ENDBRANCH  15  22
ENDBRANCH   1  19
TORSDOF 2
ENDMDL
MODEL 7
REMARK VINA RESULT:      -7.2      3.189      4.696
REMARK  Name = 
REMARK  2 active torsions:
REMARK  status: ('A' for Active; 'I' for Inactive)
REMARK    1  A    between atoms: C_2  and  C_3
REMARK    2  A    between atoms: C_7  and  N_8
REMARK                            x       y       z     vdW  Elec       q    Type
REMARK                         _______ _______ _______ _____ _____    ______ ____
ROOT
ATOM      1  N   UNL     1       4.570   4.916  17.235  0.00  0.00    +0.000 N 
ATOM      2  C   UNL     1       4.383   3.849  18.106  0.00  0.00    +0.000 A 
ATOM      3  N   UNL     1       3.637   3.847  19.164  0.00  0.00    +0.000 NA
ATOM      4  C   UNL     1       3.019   5.029  19.408  0.00  0.00    +0.000 A 
ATOM      5  S   UNL     1       2.047   5.264  20.791  0.00  0.00    +0.000 S 
ATOM      6  C   UNL     1       1.747   6.887  20.381  0.00  0.00    +0.000 A 
ATOM      7  C   UNL     1       2.334   7.252  19.183  0.00  0.00    +0.000 A 
ATOM      8  C   UNL     1       3.092   6.170  18.635  0.00  0.00    +0.000 A 
ATOM      9  C   UNL     1       3.913   6.138  17.437  0.00  0.00    +0.000 A 
ATOM     10  O   UNL     1       4.042   7.128  16.720  0.00  0.00    +0.000 OA
ATOM     11  C   UNL     1       2.202   8.635  18.619  0.00  0.00    +0.000 C 
ATOM     12  C   UNL     1       1.053   9.408  19.283  0.00  0.00    +0.000 C 
ATOM     13  C   UNL     1       1.080   9.252  20.809  0.00  0.00    +0.000 C 
ATOM     14  C   UNL     1       0.901   7.783  21.231  0.00  0.00    +0.000 C 
ENDROOT
BRANCH   1  19
ATOM     15  C   UNL     1       5.978   4.085  13.888  0.00  0.00    +0.000 A 
ATOM     16  C   UNL     1       7.277   4.587  14.010  0.00  0.00    +0.000 A 
ATOM     17  C   UNL     1       7.680   5.186  15.200  0.00  0.00    +0.000 A 
ATOM     18  C   UNL     1       6.791   5.268  16.276  0.00  0.00    +0.000 A 
ATOM     19  C   UNL     1       5.480   4.783  16.151  0.00  0.00    +0.000 A 
ATOM     20  C   UNL     1       5.072   4.197  14.945  0.00  0.00    +0.000 A 
BRANCH  15  22
ATOM     21  O   UNL     1       6.342   2.852  11.908  0.00  0.00    +0.000 OA
ATOM     22  C   UNL     1       5.551   3.424  12.641  0.00  0.00    +0.000 C 
ENDBRANCH  15  22
ENDBRANCH   1  19
TORSDOF 2
ENDMDL
MODEL 8
REMARK VINA RESULT:      -7.1      1.597      1.712
REMARK  Name = 
REMARK  2 active torsions:
REMARK  status: ('A' for Active; 'I' for Inactive)
REMARK    1  A    between atoms: C_2  and  C_3
REMARK    2  A    between atoms: C_7  and  N_8
REMARK                            x       y       z     vdW  Elec       q    Type
REMARK                         _______ _______ _______ _____ _____    ______ ____
ROOT
ATOM      1  N   UNL     1       2.444   6.243  18.834  0.00  0.00    +0.000 N 
ATOM      2  C   UNL     1       2.793   7.088  17.787  0.00  0.00    +0.000 A 
ATOM      3  N   UNL     1       2.577   8.364  17.729  0.00  0.00    +0.000 NA
ATOM      4  C   UNL     1       1.928   8.864  18.810  0.00  0.00    +0.000 A 
ATOM      5  S   UNL     1       1.481  10.510  18.904  0.00  0.00    +0.000 S 
ATOM      6  C   UNL     1       0.734  10.284  20.416  0.00  0.00    +0.000 A 
ATOM      7  C   UNL     1       0.853   8.987  20.881  0.00  0.00    +0.000 A 
ATOM      8  C   UNL     1       1.531   8.163  19.929  0.00  0.00    +0.000 A 
ATOM      9  C   UNL     1       1.810   6.738  19.983  0.00  0.00    +0.000 A 
ATOM     10  O   UNL     1       1.459   6.049  20.939  0.00  0.00    +0.000 OA
ATOM     11  C   UNL     1       0.273   8.556  22.195  0.00  0.00    +0.000 C 
ATOM     12  C   UNL     1      -0.067   9.760  23.085  0.00  0.00    +0.000 C 
ATOM     13  C   UNL     1      -0.804  10.850  22.296  0.00  0.00    +0.000 C 
ATOM     14  C   UNL     1       0.061  11.402  21.149  0.00  0.00    +0.000 C 
ENDROOT
BRANCH   1  19
ATOM     15  C   UNL     1       3.908   2.859  19.361  0.00  0.00    +0.000 A 
ATOM     16  C   UNL     1       3.110   2.085  18.513  0.00  0.00    +0.000 A 
ATOM     17  C   UNL     1       2.101   2.690  17.767  0.00  0.00    +0.000 A 
ATOM     18  C   UNL     1       1.902   4.070  17.853  0.00  0.00    +0.000 A 
ATOM     19  C   UNL     1       2.688   4.848  18.718  0.00  0.00    +0.000 A 
ATOM     20  C   UNL     1       3.690   4.233  19.481  0.00  0.00    +0.000 A 
BRANCH  15  22
ATOM     21  O   UNL     1       4.824   1.800  21.262  0.00  0.00    +0.000 OA
ATOM     22  C   UNL     1       4.996   2.232  20.133  0.00  0.00    +0.000 C 
ENDBRANCH  15  22
ENDBRANCH   1  19
TORSDOF 2
ENDMDL
MODEL 9
REMARK VINA RESULT:      -7.1      2.825      7.354
REMARK  Name = 
REMARK  2 active torsions:
REMARK  status: ('A' for Active; 'I' for Inactive)
REMARK    1  A    between atoms: C_2  and  C_3
REMARK    2  A    between atoms: C_7  and  N_8
REMARK                            x       y       z     vdW  Elec       q    Type
REMARK                         _______ _______ _______ _____ _____    ______ ____
ROOT
ATOM      1  N   UNL     1       1.322   8.966  19.412  0.00  0.00    +0.000 N 
ATOM      2  C   UNL     1       1.101   8.159  20.523  0.00  0.00    +0.000 A 
ATOM      3  N   UNL     1       1.635   7.001  20.746  0.00  0.00    +0.000 NA
ATOM      4  C   UNL     1       2.464   6.576  19.760  0.00  0.00    +0.000 A 
ATOM      5  S   UNL     1       3.215   5.044  19.821  0.00  0.00    +0.000 S 
ATOM      6  C   UNL     1       3.955   5.278  18.307  0.00  0.00    +0.000 A 
ATOM      7  C   UNL     1       3.682   6.522  17.767  0.00  0.00    +0.000 A 
ATOM      8  C   UNL     1       2.795   7.261  18.610  0.00  0.00    +0.000 A 
ATOM      9  C   UNL     1       2.205   8.571  18.396  0.00  0.00    +0.000 A 
ATOM     10  O   UNL     1       2.436   9.223  17.379  0.00  0.00    +0.000 OA
ATOM     11  C   UNL     1       4.231   6.951  16.439  0.00  0.00    +0.000 C 
ATOM     12  C   UNL     1       5.400   6.060  15.996  0.00  0.00    +0.000 C 
ATOM     13  C   UNL     1       5.078   4.573  16.195  0.00  0.00    +0.000 C 
ATOM     14  C   UNL     1       4.832   4.240  17.677  0.00  0.00    +0.000 C 
ENDROOT
BRANCH   1  19
ATOM     15  C   UNL     1       0.315  12.531  19.798  0.00  0.00    +0.000 A 
ATOM     16  C   UNL     1      -0.796  12.590  18.952  0.00  0.00    +0.000 A 
ATOM     17  C   UNL     1      -1.210  11.449  18.269  0.00  0.00    +0.000 A 
ATOM     18  C   UNL     1      -0.525  10.244  18.445  0.00  0.00    +0.000 A 
ATOM     19  C   UNL     1       0.603  10.185  19.278  0.00  0.00    +0.000 A 
ATOM     20  C   UNL     1       1.027  11.339  19.950  0.00  0.00    +0.000 A 
BRANCH  15  22
ATOM     21  O   UNL     1       1.221  13.652  21.667  0.00  0.00    +0.000 OA
ATOM     22  C   UNL     1       0.743  13.726  20.547  0.00  0.00    +0.000 C 
ENDBRANCH  15  22
ENDBRANCH   1  19
TORSDOF 2
ENDMDL
