MODEL 1
REMARK VINA RESULT:      -8.5      0.000      0.000
REMARK  Name = 
REMARK  11 active torsions:
REMARK  status: ('A' for Active; 'I' for Inactive)
REMARK    1  A    between atoms: C_1  and  C_2
REMARK    2  A    between atoms: C_2  and  C_3
REMARK    3  A    between atoms: C_4  and  C_5
REMARK    4  A    between atoms: C_5  and  C_6
REMARK    5  A    between atoms: C_8  and  C_9
REMARK    6  A    between atoms: C_15  and  C_16
REMARK    7  A    between atoms: C_16  and  C_17
REMARK    8  A    between atoms: C_18  and  C_19
REMARK    9  A    between atoms: C_18  and  C_20
REMARK   10  A    between atoms: C_21  and  O_22
REMARK   11  A    between atoms: C_28  and  O_29
REMARK                            x       y       z     vdW  Elec       q    Type
REMARK                         _______ _______ _______ _____ _____    ______ ____
ROOT
ATOM      1  C   UNL     1       1.989   7.771  20.115  0.00  0.00    +0.000 C 
ATOM      2  C   UNL     1       1.002   7.842  21.274  0.00  0.00    +0.000 C 
ATOM      3  C   UNL     1       1.121   9.233  21.768  0.00  0.00    +0.000 C 
ATOM      4  O   UNL     1       1.509   9.571  22.875  0.00  0.00    +0.000 OA
ATOM      5  C   UNL     1       0.719  10.182  20.750  0.00  0.00    +0.000 A 
ATOM      6  C   UNL     1      -0.277  11.106  21.067  0.00  0.00    +0.000 A 
ATOM      7  C   UNL     1      -0.903  11.782  20.022  0.00  0.00    +0.000 A 
ATOM      8  C   UNL     1      -0.283  11.761  18.762  0.00  0.00    +0.000 A 
ATOM      9  C   UNL     1       0.709  10.818  18.456  0.00  0.00    +0.000 A 
ATOM     10  C   UNL     1       1.098   9.906  19.435  0.00  0.00    +0.000 A 
ATOM     11  O   UNL     1       1.681   8.708  19.044  0.00  0.00    +0.000 OA
ENDROOT
BRANCH   1  14
ATOM     12  C   UNL     1       2.649   4.383  18.289  0.00  0.00    +0.000 A 
ATOM     13  C   UNL     1       2.666   5.771  18.558  0.00  0.00    +0.000 A 
ATOM     14  C   UNL     1       2.099   6.284  19.738  0.00  0.00    +0.000 A 
ATOM     15  C   UNL     1       1.479   5.371  20.619  0.00  0.00    +0.000 A 
ATOM     16  C   UNL     1       1.443   4.003  20.360  0.00  0.00    +0.000 A 
ATOM     17  C   UNL     1       2.042   3.511  19.210  0.00  0.00    +0.000 A 
BRANCH  17  18
ATOM     18  O   UNL     1       2.027   2.165  18.971  0.00  0.00    +0.000 OA
ATOM     19  H   UNL     1       2.186   2.015  18.023  0.00  0.00    +0.000 HD
ENDBRANCH  17  18
BRANCH  12  20
ATOM     20  C   UNL     1       3.297   3.809  17.038  0.00  0.00    +0.000 C 
BRANCH  20  24
ATOM     21  C   UNL     1       7.136   4.558  16.823  0.00  0.00    +0.000 C 
ATOM     22  C   UNL     1       5.653   4.694  16.598  0.00  0.00    +0.000 C 
ATOM     23  C   UNL     1       5.187   5.906  15.846  0.00  0.00    +0.000 C 
ATOM     24  C   UNL     1       4.804   3.770  17.092  0.00  0.00    +0.000 C 
ENDBRANCH  20  24
ENDBRANCH  12  20
ENDBRANCH   1  14
BRANCH   8  25
ATOM     25  O   UNL     1      -0.708  12.583  17.757  0.00  0.00    +0.000 OA
ATOM     26  H   UNL     1      -0.167  13.399  17.785  0.00  0.00    +0.000 HD
ENDBRANCH   8  25
BRANCH   7  27
ATOM     27  C   UNL     1      -2.385  12.087  20.157  0.00  0.00    +0.000 C 
BRANCH  27  28
ATOM     28  C   UNL     1      -2.815  13.366  20.801  0.00  0.00    +0.000 C 
ATOM     29  C   UNL     1      -3.131  13.452  22.115  0.00  0.00    +0.000 C 
ATOM     30  C   UNL     1      -3.076  12.295  23.086  0.00  0.00    +0.000 C 
ATOM     31  C   UNL     1      -3.593  14.738  22.746  0.00  0.00    +0.000 C 
ENDBRANCH  27  28
ENDBRANCH   7  27
TORSDOF 7
ENDMDL
MODEL 2
REMARK VINA RESULT:      -8.5      1.134      1.676
REMARK  Name = 
REMARK  11 active torsions:
REMARK  status: ('A' for Active; 'I' for Inactive)
REMARK    1  A    between atoms: C_1  and  C_2
REMARK    2  A    between atoms: C_2  and  C_3
REMARK    3  A    between atoms: C_4  and  C_5
REMARK    4  A    between atoms: C_5  and  C_6
REMARK    5  A    between atoms: C_8  and  C_9
REMARK    6  A    between atoms: C_15  and  C_16
REMARK    7  A    between atoms: C_16  and  C_17
REMARK    8  A    between atoms: C_18  and  C_19
REMARK    9  A    between atoms: C_18  and  C_20
REMARK   10  A    between atoms: C_21  and  O_22
REMARK   11  A    between atoms: C_28  and  O_29
REMARK                            x       y       z     vdW  Elec       q    Type
REMARK                         _______ _______ _______ _____ _____    ______ ____
ROOT
ATOM      1  C   UNL     1       1.896   7.817  20.238  0.00  0.00    +0.000 C 
ATOM      2  C   UNL     1       0.774   7.881  21.267  0.00  0.00    +0.000 C 
ATOM      3  C   UNL     1       0.860   9.254  21.814  0.00  0.00    +0.000 C 
ATOM      4  O   UNL     1       1.115   9.551  22.971  0.00  0.00    +0.000 OA
ATOM      5  C   UNL     1       0.609  10.241  20.784  0.00  0.00    +0.000 A 
ATOM      6  C   UNL     1      -0.399  11.180  21.003  0.00  0.00    +0.000 A 
ATOM      7  C   UNL     1      -0.876  11.901  19.909  0.00  0.00    +0.000 A 
ATOM      8  C   UNL     1      -0.104  11.899  18.736  0.00  0.00    +0.000 A 
ATOM      9  C   UNL     1       0.898  10.940  18.527  0.00  0.00    +0.000 A 
ATOM     10  C   UNL     1       1.142   9.992  19.518  0.00  0.00    +0.000 A 
ATOM     11  O   UNL     1       1.744   8.791  19.166  0.00  0.00    +0.000 OA
ENDROOT
BRANCH   1  14
ATOM     12  C   UNL     1       2.587   4.472  18.346  0.00  0.00    +0.000 A 
ATOM     13  C   UNL     1       2.590   5.854  18.641  0.00  0.00    +0.000 A 
ATOM     14  C   UNL     1       2.020   6.339  19.832  0.00  0.00    +0.000 A 
ATOM     15  C   UNL     1       1.410   5.403  20.696  0.00  0.00    +0.000 A 
ATOM     16  C   UNL     1       1.388   4.040  20.411  0.00  0.00    +0.000 A 
ATOM     17  C   UNL     1       1.990   3.576  19.251  0.00  0.00    +0.000 A 
BRANCH  17  18
ATOM     18  O   UNL     1       1.988   2.235  18.986  0.00  0.00    +0.000 OA
ATOM     19  H   UNL     1       1.989   2.108  18.021  0.00  0.00    +0.000 HD
ENDBRANCH  17  18
BRANCH  12  20
ATOM     20  C   UNL     1       3.239   3.929  17.084  0.00  0.00    +0.000 C 
BRANCH  20  24
ATOM     21  C   UNL     1       7.098   4.584  16.920  0.00  0.00    +0.000 C 
ATOM     22  C   UNL     1       5.622   4.758  16.677  0.00  0.00    +0.000 C 
ATOM     23  C   UNL     1       5.195   5.985  15.925  0.00  0.00    +0.000 C 
ATOM     24  C   UNL     1       4.744   3.853  17.156  0.00  0.00    +0.000 C 
ENDBRANCH  20  24
ENDBRANCH  12  20
ENDBRANCH   1  14
BRANCH   8  25
ATOM     25  O   UNL     1      -0.382  12.759  17.712  0.00  0.00    +0.000 OA
ATOM     26  H   UNL     1      -1.282  13.118  17.856  0.00  0.00    +0.000 HD
ENDBRANCH   8  25
BRANCH   7  27
ATOM     27  C   UNL     1      -2.356  12.239  19.870  0.00  0.00    +0.000 C 
BRANCH  27  28
ATOM     28  C   UNL     1      -3.203  11.697  18.763  0.00  0.00    +0.000 C 
ATOM     29  C   UNL     1      -4.550  11.823  18.747  0.00  0.00    +0.000 C 
ATOM     30  C   UNL     1      -5.358  12.528  19.812  0.00  0.00    +0.000 C 
ATOM     31  C   UNL     1      -5.396  11.247  17.643  0.00  0.00    +0.000 C 
ENDBRANCH  27  28
ENDBRANCH   7  27
TORSDOF 7
ENDMDL
MODEL 3
REMARK VINA RESULT:      -8.2      1.480      1.664
REMARK  Name = 
REMARK  11 active torsions:
REMARK  status: ('A' for Active; 'I' for Inactive)
REMARK    1  A    between atoms: C_1  and  C_2
REMARK    2  A    between atoms: C_2  and  C_3
REMARK    3  A    between atoms: C_4  and  C_5
REMARK    4  A    between atoms: C_5  and  C_6
REMARK    5  A    between atoms: C_8  and  C_9
REMARK    6  A    between atoms: C_15  and  C_16
REMARK    7  A    between atoms: C_16  and  C_17
REMARK    8  A    between atoms: C_18  and  C_19
REMARK    9  A    between atoms: C_18  and  C_20
REMARK   10  A    between atoms: C_21  and  O_22
REMARK   11  A    between atoms: C_28  and  O_29
REMARK                            x       y       z     vdW  Elec       q    Type
REMARK                         _______ _______ _______ _____ _____    ______ ____
ROOT
ATOM      1  C   UNL     1       1.683   8.476  20.414  0.00  0.00    +0.000 C 
ATOM      2  C   UNL     1       0.479   8.381  21.343  0.00  0.00    +0.000 C 
ATOM      3  C   UNL     1       0.329   9.751  21.886  0.00  0.00    +0.000 C 
ATOM      4  O   UNL     1       0.441  10.075  23.058  0.00  0.00    +0.000 OA
ATOM      5  C   UNL     1       0.035  10.699  20.831  0.00  0.00    +0.000 A 
ATOM      6  C   UNL     1      -1.107  11.490  20.956  0.00  0.00    +0.000 A 
ATOM      7  C   UNL     1      -1.582  12.144  19.821  0.00  0.00    +0.000 A 
ATOM      8  C   UNL     1      -0.720  12.253  18.718  0.00  0.00    +0.000 A 
ATOM      9  C   UNL     1       0.418  11.441  18.602  0.00  0.00    +0.000 A 
ATOM     10  C   UNL     1       0.704  10.530  19.617  0.00  0.00    +0.000 A 
ATOM     11  O   UNL     1       1.492   9.425  19.326  0.00  0.00    +0.000 OA
ENDROOT
BRANCH   1  14
ATOM     12  C   UNL     1       3.040   5.270  18.644  0.00  0.00    +0.000 A 
ATOM     13  C   UNL     1       2.834   6.638  18.937  0.00  0.00    +0.000 A 
ATOM     14  C   UNL     1       2.041   7.031  20.031  0.00  0.00    +0.000 A 
ATOM     15  C   UNL     1       1.430   6.013  20.796  0.00  0.00    +0.000 A 
ATOM     16  C   UNL     1       1.613   4.663  20.510  0.00  0.00    +0.000 A 
ATOM     17  C   UNL     1       2.430   4.295  19.452  0.00  0.00    +0.000 A 
BRANCH  17  18
ATOM     18  O   UNL     1       2.628   2.968  19.189  0.00  0.00    +0.000 OA
ATOM     19  H   UNL     1       2.967   2.877  18.281  0.00  0.00    +0.000 HD
ENDBRANCH  17  18
BRANCH  12  20
ATOM     20  C   UNL     1       3.931   4.832  17.491  0.00  0.00    +0.000 C 
BRANCH  20  24
ATOM     21  C   UNL     1       7.233   6.935  17.379  0.00  0.00    +0.000 C 
ATOM     22  C   UNL     1       6.168   5.999  17.888  0.00  0.00    +0.000 C 
ATOM     23  C   UNL     1       6.444   5.293  19.183  0.00  0.00    +0.000 C 
ATOM     24  C   UNL     1       5.042   5.800  17.173  0.00  0.00    +0.000 C 
ENDBRANCH  20  24
ENDBRANCH  12  20
ENDBRANCH   1  14
BRANCH   8  25
ATOM     25  O   UNL     1      -1.024  13.072  17.667  0.00  0.00    +0.000 OA
ATOM     26  H   UNL     1      -0.915  12.556  16.842  0.00  0.00    +0.000 HD
ENDBRANCH   8  25
BRANCH   7  27
ATOM     27  C   UNL     1      -3.086  12.277  19.652  0.00  0.00    +0.000 C 
BRANCH  27  28
ATOM     28  C   UNL     1      -3.911  12.779  20.793  0.00  0.00    +0.000 C 
ATOM     29  C   UNL     1      -5.246  12.574  20.875  0.00  0.00    +0.000 C 
ATOM     30  C   UNL     1      -6.059  11.813  19.853  0.00  0.00    +0.000 C 
ATOM     31  C   UNL     1      -6.071  13.111  22.013  0.00  0.00    +0.000 C 
ENDBRANCH  27  28
ENDBRANCH   7  27
TORSDOF 7
ENDMDL
MODEL 4
REMARK VINA RESULT:      -8.1      1.720      2.649
REMARK  Name = 
REMARK  11 active torsions:
REMARK  status: ('A' for Active; 'I' for Inactive)
REMARK    1  A    between atoms: C_1  and  C_2
REMARK    2  A    between atoms: C_2  and  C_3
REMARK    3  A    between atoms: C_4  and  C_5
REMARK    4  A    between atoms: C_5  and  C_6
REMARK    5  A    between atoms: C_8  and  C_9
REMARK    6  A    between atoms: C_15  and  C_16
REMARK    7  A    between atoms: C_16  and  C_17
REMARK    8  A    between atoms: C_18  and  C_19
REMARK    9  A    between atoms: C_18  and  C_20
REMARK   10  A    between atoms: C_21  and  O_22
REMARK   11  A    between atoms: C_28  and  O_29
REMARK                            x       y       z     vdW  Elec       q    Type
REMARK                         _______ _______ _______ _____ _____    ______ ____
ROOT
ATOM      1  C   UNL     1       1.635   7.505  20.676  0.00  0.00    +0.000 C 
ATOM      2  C   UNL     1       0.155   7.473  21.034  0.00  0.00    +0.000 C 
ATOM      3  C   UNL     1      -0.094   8.786  21.673  0.00  0.00    +0.000 C 
ATOM      4  O   UNL     1      -0.441   8.967  22.829  0.00  0.00    +0.000 OA
ATOM      5  C   UNL     1       0.141   9.871  20.742  0.00  0.00    +0.000 A 
ATOM      6  C   UNL     1      -0.888  10.788  20.527  0.00  0.00    +0.000 A 
ATOM      7  C   UNL     1      -0.808  11.615  19.408  0.00  0.00    +0.000 A 
ATOM      8  C   UNL     1       0.432  11.725  18.760  0.00  0.00    +0.000 A 
ATOM      9  C   UNL     1       1.451  10.786  18.979  0.00  0.00    +0.000 A 
ATOM     10  C   UNL     1       1.229   9.744  19.876  0.00  0.00    +0.000 A 
ATOM     11  O   UNL     1       1.977   8.581  19.755  0.00  0.00    +0.000 OA
ENDROOT
BRANCH   1  14
ATOM     12  C   UNL     1       3.373   4.346  19.176  0.00  0.00    +0.000 A 
ATOM     13  C   UNL     1       3.175   5.688  19.575  0.00  0.00    +0.000 A 
ATOM     14  C   UNL     1       2.004   6.074  20.251  0.00  0.00    +0.000 A 
ATOM     15  C   UNL     1       1.021   5.085  20.479  0.00  0.00    +0.000 A 
ATOM     16  C   UNL     1       1.198   3.763  20.079  0.00  0.00    +0.000 A 
ATOM     17  C   UNL     1       2.376   3.393  19.449  0.00  0.00    +0.000 A 
BRANCH  17  18
ATOM     18  O   UNL     1       2.557   2.089  19.080  0.00  0.00    +0.000 OA
ATOM     19  H   UNL     1       3.512   1.915  19.008  0.00  0.00    +0.000 HD
ENDBRANCH  17  18
BRANCH  12  20
ATOM     20  C   UNL     1       4.654   3.906  18.483  0.00  0.00    +0.000 C 
BRANCH  20  24
ATOM     21  C   UNL     1       5.548   4.450  14.709  0.00  0.00    +0.000 C 
ATOM     22  C   UNL     1       5.711   4.371  16.204  0.00  0.00    +0.000 C 
ATOM     23  C   UNL     1       7.097   4.552  16.749  0.00  0.00    +0.000 C 
ATOM     24  C   UNL     1       4.645   4.112  16.990  0.00  0.00    +0.000 C 
ENDBRANCH  20  24
ENDBRANCH  12  20
ENDBRANCH   1  14
BRANCH   8  25
ATOM     25  O   UNL     1       0.646  12.683  17.809  0.00  0.00    +0.000 OA
ATOM     26  H   UNL     1       1.613  12.783  17.695  0.00  0.00    +0.000 HD
ENDBRANCH   8  25
BRANCH   7  27
ATOM     27  C   UNL     1      -2.099  11.963  18.687  0.00  0.00    +0.000 C 
BRANCH  27  28
ATOM     28  C   UNL     1      -2.243  11.627  17.237  0.00  0.00    +0.000 C 
ATOM     29  C   UNL     1      -2.818  10.480  16.807  0.00  0.00    +0.000 C 
ATOM     30  C   UNL     1      -3.395   9.418  17.715  0.00  0.00    +0.000 C 
ATOM     31  C   UNL     1      -2.930  10.138  15.345  0.00  0.00    +0.000 C 
ENDBRANCH  27  28
ENDBRANCH   7  27
TORSDOF 7
ENDMDL
MODEL 5
REMARK VINA RESULT:      -8.1      4.502      7.773
REMARK  Name = 
REMARK  11 active torsions:
REMARK  status: ('A' for Active; 'I' for Inactive)
REMARK    1  A    between atoms: C_1  and  C_2
REMARK    2  A    between atoms: C_2  and  C_3
REMARK    3  A    between atoms: C_4  and  C_5
REMARK    4  A    between atoms: C_5  and  C_6
REMARK    5  A    between atoms: C_8  and  C_9
REMARK    6  A    between atoms: C_15  and  C_16
REMARK    7  A    between atoms: C_16  and  C_17
REMARK    8  A    between atoms: C_18  and  C_19
REMARK    9  A    between atoms: C_18  and  C_20
REMARK   10  A    between atoms: C_21  and  O_22
REMARK   11  A    between atoms: C_28  and  O_29
REMARK                            x       y       z     vdW  Elec       q    Type
REMARK                         _______ _______ _______ _____ _____    ______ ____
ROOT
ATOM      1  C   UNL     1       5.968   5.581  16.272  0.00  0.00    +0.000 C 
ATOM      2  C   UNL     1       5.704   4.353  17.134  0.00  0.00    +0.000 C 
ATOM      3  C   UNL     1       5.720   4.873  18.521  0.00  0.00    +0.000 C 
ATOM      4  O   UNL     1       6.516   4.564  19.394  0.00  0.00    +0.000 OA
ATOM      5  C   UNL     1       4.654   5.832  18.730  0.00  0.00    +0.000 A 
ATOM      6  C   UNL     1       3.763   5.607  19.779  0.00  0.00    +0.000 A 
ATOM      7  C   UNL     1       2.560   6.311  19.782  0.00  0.00    +0.000 A 
ATOM      8  C   UNL     1       2.455   7.434  18.945  0.00  0.00    +0.000 A 
ATOM      9  C   UNL     1       3.354   7.638  17.888  0.00  0.00    +0.000 A 
ATOM     10  C   UNL     1       4.381   6.719  17.687  0.00  0.00    +0.000 A 
ATOM     11  O   UNL     1       4.956   6.617  16.427  0.00  0.00    +0.000 OA
ENDROOT
BRANCH   1  14
ATOM     12  C   UNL     1       5.669   3.869  12.774  0.00  0.00    +0.000 A 
ATOM     13  C   UNL     1       5.298   4.363  14.046  0.00  0.00    +0.000 A 
ATOM     14  C   UNL     1       6.222   5.056  14.849  0.00  0.00    +0.000 A 
ATOM     15  C   UNL     1       7.538   5.202  14.357  0.00  0.00    +0.000 A 
ATOM     16  C   UNL     1       7.920   4.708  13.113  0.00  0.00    +0.000 A 
ATOM     17  C   UNL     1       6.985   4.063  12.318  0.00  0.00    +0.000 A 
BRANCH  17  18
ATOM     18  O   UNL     1       7.357   3.601  11.087  0.00  0.00    +0.000 OA
ATOM     19  H   UNL     1       7.263   4.324  10.442  0.00  0.00    +0.000 HD
ENDBRANCH  17  18
BRANCH  12  20
ATOM     20  C   UNL     1       4.668   3.157  11.877  0.00  0.00    +0.000 C 
BRANCH  20  24
ATOM     21  C   UNL     1       2.373   4.751   9.133  0.00  0.00    +0.000 C 
ATOM     22  C   UNL     1       3.065   3.703   9.964  0.00  0.00    +0.000 C 
ATOM     23  C   UNL     1       2.677   2.274   9.721  0.00  0.00    +0.000 C 
ATOM     24  C   UNL     1       3.963   4.067  10.903  0.00  0.00    +0.000 C 
ENDBRANCH  20  24
ENDBRANCH  12  20
ENDBRANCH   1  14
BRANCH   8  25
ATOM     25  O   UNL     1       1.406   8.301  19.063  0.00  0.00    +0.000 OA
ATOM     26  H   UNL     1       1.771   9.208  19.123  0.00  0.00    +0.000 HD
ENDBRANCH   8  25
BRANCH   7  27
ATOM     27  C   UNL     1       1.319   5.599  20.291  0.00  0.00    +0.000 C 
BRANCH  27  28
ATOM     28  C   UNL     1       1.247   4.107  20.219  0.00  0.00    +0.000 C 
ATOM     29  C   UNL     1       1.242   3.433  19.046  0.00  0.00    +0.000 C 
ATOM     30  C   UNL     1       1.323   4.082  17.684  0.00  0.00    +0.000 C 
ATOM     31  C   UNL     1       1.138   1.932  18.985  0.00  0.00    +0.000 C 
ENDBRANCH  27  28
ENDBRANCH   7  27
TORSDOF 7
ENDMDL
MODEL 6
REMARK VINA RESULT:      -8.1      0.824      1.115
REMARK  Name = 
REMARK  11 active torsions:
REMARK  status: ('A' for Active; 'I' for Inactive)
REMARK    1  A    between atoms: C_1  and  C_2
REMARK    2  A    between atoms: C_2  and  C_3
REMARK    3  A    between atoms: C_4  and  C_5
REMARK    4  A    between atoms: C_5  and  C_6
REMARK    5  A    between atoms: C_8  and  C_9
REMARK    6  A    between atoms: C_15  and  C_16
REMARK    7  A    between atoms: C_16  and  C_17
REMARK    8  A    between atoms: C_18  and  C_19
REMARK    9  A    between atoms: C_18  and  C_20
REMARK   10  A    between atoms: C_21  and  O_22
REMARK   11  A    between atoms: C_28  and  O_29
REMARK                            x       y       z     vdW  Elec       q    Type
REMARK                         _______ _______ _______ _____ _____    ______ ____
ROOT
ATOM      1  C   UNL     1       2.052   7.658  20.249  0.00  0.00    +0.000 C 
ATOM      2  C   UNL     1       1.039   7.771  21.380  0.00  0.00    +0.000 C 
ATOM      3  C   UNL     1       1.117   9.190  21.799  0.00  0.00    +0.000 C 
ATOM      4  O   UNL     1       1.474   9.597  22.893  0.00  0.00    +0.000 OA
ATOM      5  C   UNL     1       0.718  10.072  20.722  0.00  0.00    +0.000 A 
ATOM      6  C   UNL     1      -0.305  10.989  20.966  0.00  0.00    +0.000 A 
ATOM      7  C   UNL     1      -0.922  11.593  19.872  0.00  0.00    +0.000 A 
ATOM      8  C   UNL     1      -0.274  11.516  18.628  0.00  0.00    +0.000 A 
ATOM      9  C   UNL     1       0.744  10.579  18.396  0.00  0.00    +0.000 A 
ATOM     10  C   UNL     1       1.131   9.732  19.432  0.00  0.00    +0.000 A 
ATOM     11  O   UNL     1       1.748   8.527  19.121  0.00  0.00    +0.000 OA
ENDROOT
BRANCH   1  14
ATOM     12  C   UNL     1       3.206   4.170  18.925  0.00  0.00    +0.000 A 
ATOM     13  C   UNL     1       3.211   5.561  19.180  0.00  0.00    +0.000 A 
ATOM     14  C   UNL     1       2.201   6.156  19.957  0.00  0.00    +0.000 A 
ATOM     15  C   UNL     1       1.166   5.323  20.436  0.00  0.00    +0.000 A 
ATOM     16  C   UNL     1       1.142   3.954  20.181  0.00  0.00    +0.000 A 
ATOM     17  C   UNL     1       2.167   3.379  19.446  0.00  0.00    +0.000 A 
BRANCH  17  18
ATOM     18  O   UNL     1       2.154   2.031  19.219  0.00  0.00    +0.000 OA
ATOM     19  H   UNL     1       1.938   1.577  20.052  0.00  0.00    +0.000 HD
ENDBRANCH  17  18
BRANCH  12  20
ATOM     20  C   UNL     1       4.316   3.507  18.124  0.00  0.00    +0.000 C 
BRANCH  20  24
ATOM     21  C   UNL     1       5.646   4.928  14.725  0.00  0.00    +0.000 C 
ATOM     22  C   UNL     1       5.629   4.495  16.167  0.00  0.00    +0.000 C 
ATOM     23  C   UNL     1       6.934   4.534  16.906  0.00  0.00    +0.000 C 
ATOM     24  C   UNL     1       4.483   4.062  16.732  0.00  0.00    +0.000 C 
ENDBRANCH  20  24
ENDBRANCH  12  20
ENDBRANCH   1  14
BRANCH   8  25
ATOM     25  O   UNL     1      -0.694  12.271  17.570  0.00  0.00    +0.000 OA
ATOM     26  H   UNL     1      -0.970  11.662  16.855  0.00  0.00    +0.000 HD
ENDBRANCH   8  25
BRANCH   7  27
ATOM     27  C   UNL     1      -2.412  11.872  19.959  0.00  0.00    +0.000 C 
BRANCH  27  28
ATOM     28  C   UNL     1      -2.939  12.701  21.086  0.00  0.00    +0.000 C 
ATOM     29  C   UNL     1      -4.259  12.948  21.257  0.00  0.00    +0.000 C 
ATOM     30  C   UNL     1      -5.352  12.415  20.360  0.00  0.00    +0.000 C 
ATOM     31  C   UNL     1      -4.774  13.810  22.378  0.00  0.00    +0.000 C 
ENDBRANCH  27  28
ENDBRANCH   7  27
TORSDOF 7
ENDMDL
MODEL 7
REMARK VINA RESULT:      -8.0      2.663      4.122
REMARK  Name = 
REMARK  11 active torsions:
REMARK  status: ('A' for Active; 'I' for Inactive)
REMARK    1  A    between atoms: C_1  and  C_2
REMARK    2  A    between atoms: C_2  and  C_3
REMARK    3  A    between atoms: C_4  and  C_5
REMARK    4  A    between atoms: C_5  and  C_6
REMARK    5  A    between atoms: C_8  and  C_9
REMARK    6  A    between atoms: C_15  and  C_16
REMARK    7  A    between atoms: C_16  and  C_17
REMARK    8  A    between atoms: C_18  and  C_19
REMARK    9  A    between atoms: C_18  and  C_20
REMARK   10  A    between atoms: C_21  and  O_22
REMARK   11  A    between atoms: C_28  and  O_29
REMARK                            x       y       z     vdW  Elec       q    Type
REMARK                         _______ _______ _______ _____ _____    ______ ____
ROOT
ATOM      1  C   UNL     1       2.710   7.041  18.606  0.00  0.00    +0.000 C 
ATOM      2  C   UNL     1       2.765   8.344  17.819  0.00  0.00    +0.000 C 
ATOM      3  C   UNL     1       1.389   8.884  17.913  0.00  0.00    +0.000 C 
ATOM      4  O   UNL     1       0.621   9.061  16.981  0.00  0.00    +0.000 OA
ATOM      5  C   UNL     1       1.041   9.181  19.288  0.00  0.00    +0.000 A 
ATOM      6  C   UNL     1       0.607  10.470  19.594  0.00  0.00    +0.000 A 
ATOM      7  C   UNL     1       0.598  10.861  20.932  0.00  0.00    +0.000 A 
ATOM      8  C   UNL     1       0.691   9.857  21.910  0.00  0.00    +0.000 A 
ATOM      9  C   UNL     1       1.141   8.568  21.586  0.00  0.00    +0.000 A 
ATOM     10  C   UNL     1       1.474   8.281  20.264  0.00  0.00    +0.000 A 
ATOM     11  O   UNL     1       2.346   7.232  20.002  0.00  0.00    +0.000 OA
ENDROOT
BRANCH   1  14
ATOM     12  C   UNL     1       5.882   5.507  16.921  0.00  0.00    +0.000 A 
ATOM     13  C   UNL     1       4.701   6.268  17.082  0.00  0.00    +0.000 A 
ATOM     14  C   UNL     1       4.034   6.313  18.319  0.00  0.00    +0.000 A 
ATOM     15  C   UNL     1       4.563   5.542  19.378  0.00  0.00    +0.000 A 
ATOM     16  C   UNL     1       5.717   4.778  19.229  0.00  0.00    +0.000 A 
ATOM     17  C   UNL     1       6.383   4.777  18.013  0.00  0.00    +0.000 A 
BRANCH  17  18
ATOM     18  O   UNL     1       7.530   4.045  17.879  0.00  0.00    +0.000 OA
ATOM     19  H   UNL     1       8.119   4.249  18.627  0.00  0.00    +0.000 HD
ENDBRANCH  17  18
BRANCH  12  20
ATOM     20  C   UNL     1       6.639   5.485  15.602  0.00  0.00    +0.000 C 
BRANCH  20  24
ATOM     21  C   UNL     1       5.849   3.308  12.443  0.00  0.00    +0.000 C 
ATOM     22  C   UNL     1       6.500   4.345  13.319  0.00  0.00    +0.000 C 
ATOM     23  C   UNL     1       7.679   5.077  12.748  0.00  0.00    +0.000 C 
ATOM     24  C   UNL     1       6.044   4.560  14.570  0.00  0.00    +0.000 C 
ENDBRANCH  20  24
ENDBRANCH  12  20
ENDBRANCH   1  14
BRANCH   8  25
ATOM     25  O   UNL     1       0.458  10.135  23.226  0.00  0.00    +0.000 OA
ATOM     26  H   UNL     1      -0.111   9.425  23.588  0.00  0.00    +0.000 HD
ENDBRANCH   8  25
BRANCH   7  27
ATOM     27  C   UNL     1       0.956  12.301  21.256  0.00  0.00    +0.000 C 
BRANCH  27  28
ATOM     28  C   UNL     1       1.945  13.022  20.398  0.00  0.00    +0.000 C 
ATOM     29  C   UNL     1       1.577  13.932  19.466  0.00  0.00    +0.000 C 
ATOM     30  C   UNL     1       0.149  14.344  19.189  0.00  0.00    +0.000 C 
ATOM     31  C   UNL     1       2.580  14.629  18.586  0.00  0.00    +0.000 C 
ENDBRANCH  27  28
ENDBRANCH   7  27
TORSDOF 7
ENDMDL
MODEL 8
REMARK VINA RESULT:      -8.0      1.671      2.177
REMARK  Name = 
REMARK  11 active torsions:
REMARK  status: ('A' for Active; 'I' for Inactive)
REMARK    1  A    between atoms: C_1  and  C_2
REMARK    2  A    between atoms: C_2  and  C_3
REMARK    3  A    between atoms: C_4  and  C_5
REMARK    4  A    between atoms: C_5  and  C_6
REMARK    5  A    between atoms: C_8  and  C_9
REMARK    6  A    between atoms: C_15  and  C_16
REMARK    7  A    between atoms: C_16  and  C_17
REMARK    8  A    between atoms: C_18  and  C_19
REMARK    9  A    between atoms: C_18  and  C_20
REMARK   10  A    between atoms: C_21  and  O_22
REMARK   11  A    between atoms: C_28  and  O_29
REMARK                            x       y       z     vdW  Elec       q    Type
REMARK                         _______ _______ _______ _____ _____    ______ ____
ROOT
ATOM      1  C   UNL     1       1.554   8.586  20.673  0.00  0.00    +0.000 C 
ATOM      2  C   UNL     1       0.317   8.440  21.550  0.00  0.00    +0.000 C 
ATOM      3  C   UNL     1       0.192   9.752  22.226  0.00  0.00    +0.000 C 
ATOM      4  O   UNL     1       0.275   9.951  23.428  0.00  0.00    +0.000 OA
ATOM      5  C   UNL     1      -0.035  10.812  21.266  0.00  0.00    +0.000 A 
ATOM      6  C   UNL     1      -1.155  11.627  21.437  0.00  0.00    +0.000 A 
ATOM      7  C   UNL     1      -1.569  12.409  20.361  0.00  0.00    +0.000 A 
ATOM      8  C   UNL     1      -0.668  12.599  19.301  0.00  0.00    +0.000 A 
ATOM      9  C   UNL     1       0.447  11.763  19.138  0.00  0.00    +0.000 A 
ATOM     10  C   UNL     1       0.669  10.744  20.062  0.00  0.00    +0.000 A 
ATOM     11  O   UNL     1       1.430   9.647  19.683  0.00  0.00    +0.000 OA
ENDROOT
BRANCH   1  14
ATOM     12  C   UNL     1       2.838   5.531  18.606  0.00  0.00    +0.000 A 
ATOM     13  C   UNL     1       2.663   6.870  19.028  0.00  0.00    +0.000 A 
ATOM     14  C   UNL     1       1.879   7.176  20.154  0.00  0.00    +0.000 A 
ATOM     15  C   UNL     1       1.242   6.105  20.820  0.00  0.00    +0.000 A 
ATOM     16  C   UNL     1       1.394   4.784  20.408  0.00  0.00    +0.000 A 
ATOM     17  C   UNL     1       2.203   4.498  19.319  0.00  0.00    +0.000 A 
BRANCH  17  18
ATOM     18  O   UNL     1       2.370   3.198  18.932  0.00  0.00    +0.000 OA
ATOM     19  H   UNL     1       2.671   3.185  18.006  0.00  0.00    +0.000 HD
ENDBRANCH  17  18
BRANCH  12  20
ATOM     20  C   UNL     1       3.719   5.183  17.417  0.00  0.00    +0.000 C 
BRANCH  20  24
ATOM     21  C   UNL     1       7.108   7.146  17.395  0.00  0.00    +0.000 C 
ATOM     22  C   UNL     1       6.043   6.167  17.814  0.00  0.00    +0.000 C 
ATOM     23  C   UNL     1       6.393   5.208  18.914  0.00  0.00    +0.000 C 
ATOM     24  C   UNL     1       4.849   6.154  17.186  0.00  0.00    +0.000 C 
ENDBRANCH  20  24
ENDBRANCH  12  20
ENDBRANCH   1  14
BRANCH   8  25
ATOM     25  O   UNL     1      -0.910  13.530  18.332  0.00  0.00    +0.000 OA
ATOM     26  H   UNL     1      -1.128  13.054  17.505  0.00  0.00    +0.000 HD
ENDBRANCH   8  25
BRANCH   7  27
ATOM     27  C   UNL     1      -3.062  12.612  20.161  0.00  0.00    +0.000 C 
BRANCH  27  28
ATOM     28  C   UNL     1      -3.753  11.912  19.035  0.00  0.00    +0.000 C 
ATOM     29  C   UNL     1      -5.101  11.852  18.931  0.00  0.00    +0.000 C 
ATOM     30  C   UNL     1      -6.065  12.485  19.908  0.00  0.00    +0.000 C 
ATOM     31  C   UNL     1      -5.786  11.118  17.809  0.00  0.00    +0.000 C 
ENDBRANCH  27  28
ENDBRANCH   7  27
TORSDOF 7
ENDMDL
MODEL 9
REMARK VINA RESULT:      -7.8      1.833      2.628
REMARK  Name = 
REMARK  11 active torsions:
REMARK  status: ('A' for Active; 'I' for Inactive)
REMARK    1  A    between atoms: C_1  and  C_2
REMARK    2  A    between atoms: C_2  and  C_3
REMARK    3  A    between atoms: C_4  and  C_5
REMARK    4  A    between atoms: C_5  and  C_6
REMARK    5  A    between atoms: C_8  and  C_9
REMARK    6  A    between atoms: C_15  and  C_16
REMARK    7  A    between atoms: C_16  and  C_17
REMARK    8  A    between atoms: C_18  and  C_19
REMARK    9  A    between atoms: C_18  and  C_20
REMARK   10  A    between atoms: C_21  and  O_22
REMARK   11  A    between atoms: C_28  and  O_29
REMARK                            x       y       z     vdW  Elec       q    Type
REMARK                         _______ _______ _______ _____ _____    ______ ____
ROOT
ATOM      1  C   UNL     1       1.646   7.541  20.649  0.00  0.00    +0.000 C 
ATOM      2  C   UNL     1       0.159   7.456  20.969  0.00  0.00    +0.000 C 
ATOM      3  C   UNL     1      -0.150   8.754  21.613  0.00  0.00    +0.000 C 
ATOM      4  O   UNL     1      -0.532   8.912  22.762  0.00  0.00    +0.000 OA
ATOM      5  C   UNL     1       0.071   9.855  20.698  0.00  0.00    +0.000 A 
ATOM      6  C   UNL     1      -0.981  10.739  20.465  0.00  0.00    +0.000 A 
ATOM      7  C   UNL     1      -0.902  11.579  19.356  0.00  0.00    +0.000 A 
ATOM      8  C   UNL     1       0.350  11.737  18.740  0.00  0.00    +0.000 A 
ATOM      9  C   UNL     1       1.394  10.830  18.976  0.00  0.00    +0.000 A 
ATOM     10  C   UNL     1       1.184   9.772  19.858  0.00  0.00    +0.000 A 
ATOM     11  O   UNL     1       1.974   8.636  19.747  0.00  0.00    +0.000 OA
ENDROOT
BRANCH   1  14
ATOM     12  C   UNL     1       3.405   4.470  18.998  0.00  0.00    +0.000 A 
ATOM     13  C   UNL     1       3.150   5.809  19.375  0.00  0.00    +0.000 A 
ATOM     14  C   UNL     1       2.072   6.127  20.221  0.00  0.00    +0.000 A 
ATOM     15  C   UNL     1       1.235   5.070  20.643  0.00  0.00    +0.000 A 
ATOM     16  C   UNL     1       1.468   3.750  20.268  0.00  0.00    +0.000 A 
ATOM     17  C   UNL     1       2.558   3.450  19.465  0.00  0.00    +0.000 A 
BRANCH  17  18
ATOM     18  O   UNL     1       2.797   2.150  19.119  0.00  0.00    +0.000 OA
ATOM     19  H   UNL     1       1.978   1.639  19.241  0.00  0.00    +0.000 HD
ENDBRANCH  17  18
BRANCH  12  20
ATOM     20  C   UNL     1       4.593   4.107  18.120  0.00  0.00    +0.000 C 
BRANCH  20  24
ATOM     21  C   UNL     1       7.704   6.448  18.551  0.00  0.00    +0.000 C 
ATOM     22  C   UNL     1       6.460   5.844  17.955  0.00  0.00    +0.000 C 
ATOM     23  C   UNL     1       5.892   6.514  16.738  0.00  0.00    +0.000 C 
ATOM     24  C   UNL     1       5.884   4.769  18.531  0.00  0.00    +0.000 C 
ENDBRANCH  20  24
ENDBRANCH  12  20
ENDBRANCH   1  14
BRANCH   8  25
ATOM     25  O   UNL     1       0.555  12.710  17.804  0.00  0.00    +0.000 OA
ATOM     26  H   UNL     1       1.040  12.309  17.054  0.00  0.00    +0.000 HD
ENDBRANCH   8  25
BRANCH   7  27
ATOM     27  C   UNL     1      -2.185  11.891  18.605  0.00  0.00    +0.000 C 
BRANCH  27  28
ATOM     28  C   UNL     1      -2.371  11.362  17.219  0.00  0.00    +0.000 C 
ATOM     29  C   UNL     1      -3.588  11.060  16.710  0.00  0.00    +0.000 C 
ATOM     30  C   UNL     1      -4.894  11.230  17.453  0.00  0.00    +0.000 C 
ATOM     31  C   UNL     1      -3.760  10.500  15.323  0.00  0.00    +0.000 C 
ENDBRANCH  27  28
ENDBRANCH   7  27
TORSDOF 7
ENDMDL
