MODEL 1
REMARK VINA RESULT:      -6.2      0.000      0.000
REMARK  Name = 
REMARK  2 active torsions:
REMARK  status: ('A' for Active; 'I' for Inactive)
REMARK    1  A    between atoms: C_1  and  N_2
REMARK    2  A    between atoms: C_6  and  C_7
REMARK                            x       y       z     vdW  Elec       q    Type
REMARK                         _______ _______ _______ _____ _____    ______ ____
ROOT
ATOM      1  C   UNL     1       3.841   5.049  18.397  0.00  0.00    +0.000 A 
ATOM      2  C   UNL     1       4.083   5.750  17.210  0.00  0.00    +0.000 A 
ATOM      3  C   UNL     1       5.338   6.295  16.952  0.00  0.00    +0.000 A 
ATOM      4  C   UNL     1       6.355   6.141  17.891  0.00  0.00    +0.000 A 
ATOM      5  N   UNL     1       6.148   5.450  19.069  0.00  0.00    +0.000 N 
ATOM      6  O   UNL     1       7.080   5.325  19.922  0.00  0.00    +0.000 OA
ATOM      7  C   UNL     1       4.896   4.907  19.307  0.00  0.00    +0.000 A 
ENDROOT
BRANCH   1  13
ATOM      8  C   UNL     1       2.550   2.341  17.664  0.00  0.00    +0.000 C 
ATOM      9  N   UNL     1       2.455   3.062  18.928  0.00  0.00    +0.000 NA
ATOM     10  C   UNL     1       1.198   2.777  19.622  0.00  0.00    +0.000 C 
ATOM     11  C   UNL     1       1.144   3.860  20.686  0.00  0.00    +0.000 C 
ATOM     12  C   UNL     1       1.933   5.032  20.107  0.00  0.00    +0.000 C 
ATOM     13  C   UNL     1       2.472   4.526  18.762  0.00  0.00    +0.000 C 
ENDBRANCH   1  13
TORSDOF 1
ENDMDL
MODEL 2
REMARK VINA RESULT:      -6.0      1.960      2.249
REMARK  Name = 
REMARK  2 active torsions:
REMARK  status: ('A' for Active; 'I' for Inactive)
REMARK    1  A    between atoms: C_1  and  N_2
REMARK    2  A    between atoms: C_6  and  C_7
REMARK                            x       y       z     vdW  Elec       q    Type
REMARK                         _______ _______ _______ _____ _____    ______ ____
ROOT
ATOM      1  C   UNL     1       4.673   4.236  17.764  0.00  0.00    +0.000 A 
ATOM      2  C   UNL     1       5.107   4.796  18.972  0.00  0.00    +0.000 A 
ATOM      3  C   UNL     1       6.395   5.308  19.092  0.00  0.00    +0.000 A 
ATOM      4  C   UNL     1       7.256   5.256  17.999  0.00  0.00    +0.000 A 
ATOM      5  N   UNL     1       6.855   4.715  16.793  0.00  0.00    +0.000 N 
ATOM      6  O   UNL     1       7.652   4.663  15.806  0.00  0.00    +0.000 OA
ATOM      7  C   UNL     1       5.567   4.216  16.687  0.00  0.00    +0.000 A 
ENDROOT
BRANCH   1  13
ATOM      8  C   UNL     1       3.848   1.335  18.431  0.00  0.00    +0.000 C 
ATOM      9  N   UNL     1       3.077   2.554  18.646  0.00  0.00    +0.000 NA
ATOM     10  C   UNL     1       1.636   2.302  18.593  0.00  0.00    +0.000 C 
ATOM     11  C   UNL     1       1.050   3.699  18.480  0.00  0.00    +0.000 C 
ATOM     12  C   UNL     1       2.129   4.533  17.793  0.00  0.00    +0.000 C 
ATOM     13  C   UNL     1       3.320   3.582  17.617  0.00  0.00    +0.000 C 
ENDBRANCH   1  13
TORSDOF 1
ENDMDL
MODEL 3
REMARK VINA RESULT:      -6.0      1.533      1.736
REMARK  Name = 
REMARK  2 active torsions:
REMARK  status: ('A' for Active; 'I' for Inactive)
REMARK    1  A    between atoms: C_1  and  N_2
REMARK    2  A    between atoms: C_6  and  C_7
REMARK                            x       y       z     vdW  Elec       q    Type
REMARK                         _______ _______ _______ _____ _____    ______ ____
ROOT
ATOM      1  C   UNL     1       4.781   3.935  17.342  0.00  0.00    +0.000 A 
ATOM      2  C   UNL     1       5.431   3.996  16.104  0.00  0.00    +0.000 A 
ATOM      3  C   UNL     1       6.736   4.472  16.011  0.00  0.00    +0.000 A 
ATOM      4  C   UNL     1       7.392   4.894  17.165  0.00  0.00    +0.000 A 
ATOM      5  N   UNL     1       6.779   4.840  18.402  0.00  0.00    +0.000 N 
ATOM      6  O   UNL     1       7.383   5.237  19.446  0.00  0.00    +0.000 OA
ATOM      7  C   UNL     1       5.483   4.356  18.478  0.00  0.00    +0.000 A 
ENDROOT
BRANCH   1  13
ATOM      8  C   UNL     1       3.631   1.248  18.341  0.00  0.00    +0.000 C 
ATOM      9  N   UNL     1       3.120   2.589  18.600  0.00  0.00    +0.000 NA
ATOM     10  C   UNL     1       1.672   2.587  18.813  0.00  0.00    +0.000 C 
ATOM     11  C   UNL     1       1.309   4.058  18.706  0.00  0.00    +0.000 C 
ATOM     12  C   UNL     1       2.367   4.667  17.787  0.00  0.00    +0.000 C 
ATOM     13  C   UNL     1       3.335   3.518  17.476  0.00  0.00    +0.000 C 
ENDBRANCH   1  13
TORSDOF 1
ENDMDL
MODEL 4
REMARK VINA RESULT:      -5.9      1.455      1.542
REMARK  Name = 
REMARK  2 active torsions:
REMARK  status: ('A' for Active; 'I' for Inactive)
REMARK    1  A    between atoms: C_1  and  N_2
REMARK    2  A    between atoms: C_6  and  C_7
REMARK                            x       y       z     vdW  Elec       q    Type
REMARK                         _______ _______ _______ _____ _____    ______ ____
ROOT
ATOM      1  C   UNL     1       4.545   4.290  17.604  0.00  0.00    +0.000 A 
ATOM      2  C   UNL     1       4.774   4.201  16.225  0.00  0.00    +0.000 A 
ATOM      3  C   UNL     1       6.063   4.315  15.713  0.00  0.00    +0.000 A 
ATOM      4  C   UNL     1       7.129   4.524  16.584  0.00  0.00    +0.000 A 
ATOM      5  N   UNL     1       6.935   4.611  17.950  0.00  0.00    +0.000 N 
ATOM      6  O   UNL     1       7.913   4.812  18.734  0.00  0.00    +0.000 OA
ATOM      7  C   UNL     1       5.647   4.487  18.445  0.00  0.00    +0.000 A 
ENDROOT
BRANCH   1  13
ATOM      8  C   UNL     1       2.911   1.869  18.610  0.00  0.00    +0.000 C 
ATOM      9  N   UNL     1       2.987   3.202  19.198  0.00  0.00    +0.000 NA
ATOM     10  C   UNL     1       1.759   3.550  19.914  0.00  0.00    +0.000 C 
ATOM     11  C   UNL     1       1.902   5.048  20.127  0.00  0.00    +0.000 C 
ATOM     12  C   UNL     1       2.774   5.535  18.972  0.00  0.00    +0.000 C 
ATOM     13  C   UNL     1       3.155   4.268  18.195  0.00  0.00    +0.000 C 
ENDBRANCH   1  13
TORSDOF 1
ENDMDL
MODEL 5
REMARK VINA RESULT:      -5.9      1.578      2.103
REMARK  Name = 
REMARK  2 active torsions:
REMARK  status: ('A' for Active; 'I' for Inactive)
REMARK    1  A    between atoms: C_1  and  N_2
REMARK    2  A    between atoms: C_6  and  C_7
REMARK                            x       y       z     vdW  Elec       q    Type
REMARK                         _______ _______ _______ _____ _____    ______ ____
ROOT
ATOM      1  C   UNL     1       4.258   4.041  18.557  0.00  0.00    +0.000 A 
ATOM      2  C   UNL     1       3.915   3.993  17.200  0.00  0.00    +0.000 A 
ATOM      3  C   UNL     1       4.883   4.178  16.218  0.00  0.00    +0.000 A 
ATOM      4  C   UNL     1       6.202   4.419  16.595  0.00  0.00    +0.000 A 
ATOM      5  N   UNL     1       6.572   4.468  17.925  0.00  0.00    +0.000 N 
ATOM      6  O   UNL     1       7.776   4.698  18.257  0.00  0.00    +0.000 OA
ATOM      7  C   UNL     1       5.598   4.272  18.891  0.00  0.00    +0.000 A 
ENDROOT
BRANCH   1  13
ATOM      8  C   UNL     1       2.477   6.271  19.740  0.00  0.00    +0.000 C 
ATOM      9  N   UNL     1       2.110   4.886  19.465  0.00  0.00    +0.000 NA
ATOM     10  C   UNL     1       1.061   4.413  20.368  0.00  0.00    +0.000 C 
ATOM     11  C   UNL     1       1.086   2.908  20.162  0.00  0.00    +0.000 C 
ATOM     12  C   UNL     1       2.518   2.584  19.744  0.00  0.00    +0.000 C 
ATOM     13  C   UNL     1       3.227   3.943  19.655  0.00  0.00    +0.000 C 
ENDBRANCH   1  13
TORSDOF 1
ENDMDL
MODEL 6
REMARK VINA RESULT:      -5.8      0.985      1.850
REMARK  Name = 
REMARK  2 active torsions:
REMARK  status: ('A' for Active; 'I' for Inactive)
REMARK    1  A    between atoms: C_1  and  N_2
REMARK    2  A    between atoms: C_6  and  C_7
REMARK                            x       y       z     vdW  Elec       q    Type
REMARK                         _______ _______ _______ _____ _____    ______ ____
ROOT
ATOM      1  C   UNL     1       4.002   4.227  18.450  0.00  0.00    +0.000 A 
ATOM      2  C   UNL     1       3.657   5.226  17.532  0.00  0.00    +0.000 A 
ATOM      3  C   UNL     1       4.628   6.082  17.019  0.00  0.00    +0.000 A 
ATOM      4  C   UNL     1       5.950   5.941  17.430  0.00  0.00    +0.000 A 
ATOM      5  N   UNL     1       6.322   4.961  18.331  0.00  0.00    +0.000 N 
ATOM      6  O   UNL     1       7.529   4.848  18.708  0.00  0.00    +0.000 OA
ATOM      7  C   UNL     1       5.346   4.111  18.826  0.00  0.00    +0.000 A 
ENDROOT
BRANCH   1  13
ATOM      8  C   UNL     1       2.281   4.791  20.952  0.00  0.00    +0.000 C 
ATOM      9  N   UNL     1       1.878   4.113  19.725  0.00  0.00    +0.000 NA
ATOM     10  C   UNL     1       0.817   3.134  19.969  0.00  0.00    +0.000 C 
ATOM     11  C   UNL     1       0.803   2.320  18.686  0.00  0.00    +0.000 C 
ATOM     12  C   UNL     1       2.227   2.407  18.140  0.00  0.00    +0.000 C 
ATOM     13  C   UNL     1       2.970   3.341  19.105  0.00  0.00    +0.000 C 
ENDBRANCH   1  13
TORSDOF 1
ENDMDL
MODEL 7
REMARK VINA RESULT:      -5.8      1.528      1.876
REMARK  Name = 
REMARK  2 active torsions:
REMARK  status: ('A' for Active; 'I' for Inactive)
REMARK    1  A    between atoms: C_1  and  N_2
REMARK    2  A    between atoms: C_6  and  C_7
REMARK                            x       y       z     vdW  Elec       q    Type
REMARK                         _______ _______ _______ _____ _____    ______ ____
ROOT
ATOM      1  C   UNL     1       3.909   5.031  18.472  0.00  0.00    +0.000 A 
ATOM      2  C   UNL     1       5.013   4.891  19.322  0.00  0.00    +0.000 A 
ATOM      3  C   UNL     1       6.261   5.382  18.950  0.00  0.00    +0.000 A 
ATOM      4  C   UNL     1       6.406   6.013  17.717  0.00  0.00    +0.000 A 
ATOM      5  N   UNL     1       5.335   6.172  16.859  0.00  0.00    +0.000 N 
ATOM      6  O   UNL     1       5.481   6.740  15.733  0.00  0.00    +0.000 OA
ATOM      7  C   UNL     1       4.097   5.685  17.248  0.00  0.00    +0.000 A 
ENDROOT
BRANCH   1  13
ATOM      8  C   UNL     1       2.857   2.199  17.831  0.00  0.00    +0.000 C 
ATOM      9  N   UNL     1       2.638   2.979  19.044  0.00  0.00    +0.000 NA
ATOM     10  C   UNL     1       1.367   2.641  19.685  0.00  0.00    +0.000 C 
ATOM     11  C   UNL     1       1.174   3.774  20.678  0.00  0.00    +0.000 C 
ATOM     12  C   UNL     1       1.911   4.967  20.074  0.00  0.00    +0.000 C 
ATOM     13  C   UNL     1       2.561   4.430  18.792  0.00  0.00    +0.000 C 
ENDBRANCH   1  13
TORSDOF 1
ENDMDL
MODEL 8
REMARK VINA RESULT:      -5.8      1.941      2.170
REMARK  Name = 
REMARK  2 active torsions:
REMARK  status: ('A' for Active; 'I' for Inactive)
REMARK    1  A    between atoms: C_1  and  N_2
REMARK    2  A    between atoms: C_6  and  C_7
REMARK                            x       y       z     vdW  Elec       q    Type
REMARK                         _______ _______ _______ _____ _____    ______ ____
ROOT
ATOM      1  C   UNL     1       4.183   4.452  17.389  0.00  0.00    +0.000 A 
ATOM      2  C   UNL     1       3.942   5.808  17.641  0.00  0.00    +0.000 A 
ATOM      3  C   UNL     1       4.881   6.772  17.287  0.00  0.00    +0.000 A 
ATOM      4  C   UNL     1       6.071   6.377  16.681  0.00  0.00    +0.000 A 
ATOM      5  N   UNL     1       6.335   5.047  16.414  0.00  0.00    +0.000 N 
ATOM      6  O   UNL     1       7.428   4.698  15.870  0.00  0.00    +0.000 OA
ATOM      7  C   UNL     1       5.386   4.100  16.765  0.00  0.00    +0.000 A 
ENDROOT
BRANCH   1  13
ATOM      8  C   UNL     1       4.453   2.539  19.799  0.00  0.00    +0.000 C 
ATOM      9  N   UNL     1       3.244   3.188  19.306  0.00  0.00    +0.000 NA
ATOM     10  C   UNL     1       2.047   2.397  19.594  0.00  0.00    +0.000 C 
ATOM     11  C   UNL     1       0.991   3.045  18.714  0.00  0.00    +0.000 C 
ATOM     12  C   UNL     1       1.759   3.637  17.535  0.00  0.00    +0.000 C 
ATOM     13  C   UNL     1       3.238   3.365  17.842  0.00  0.00    +0.000 C 
ENDBRANCH   1  13
TORSDOF 1
ENDMDL
MODEL 9
REMARK VINA RESULT:      -5.8      2.111      2.273
REMARK  Name = 
REMARK  2 active torsions:
REMARK  status: ('A' for Active; 'I' for Inactive)
REMARK    1  A    between atoms: C_1  and  N_2
REMARK    2  A    between atoms: C_6  and  C_7
REMARK                            x       y       z     vdW  Elec       q    Type
REMARK                         _______ _______ _______ _____ _____    ______ ____
ROOT
ATOM      1  C   UNL     1       3.585   4.261  17.745  0.00  0.00    +0.000 A 
ATOM      2  C   UNL     1       3.648   5.652  17.891  0.00  0.00    +0.000 A 
ATOM      3  C   UNL     1       4.551   6.402  17.144  0.00  0.00    +0.000 A 
ATOM      4  C   UNL     1       5.400   5.757  16.249  0.00  0.00    +0.000 A 
ATOM      5  N   UNL     1       5.358   4.386  16.080  0.00  0.00    +0.000 N 
ATOM      6  O   UNL     1       6.145   3.807  15.268  0.00  0.00    +0.000 OA
ATOM      7  C   UNL     1       4.448   3.654  16.824  0.00  0.00    +0.000 A 
ENDROOT
BRANCH   1  13
ATOM      8  C   UNL     1       4.371   2.344  20.037  0.00  0.00    +0.000 C 
ATOM      9  N   UNL     1       3.214   3.230  19.971  0.00  0.00    +0.000 NA
ATOM     10  C   UNL     1       2.086   2.709  20.744  0.00  0.00    +0.000 C 
ATOM     11  C   UNL     1       0.922   3.559  20.263  0.00  0.00    +0.000 C 
ATOM     12  C   UNL     1       1.287   3.972  18.839  0.00  0.00    +0.000 C 
ATOM     13  C   UNL     1       2.691   3.398  18.603  0.00  0.00    +0.000 C 
ENDBRANCH   1  13
TORSDOF 1
ENDMDL
