MODEL 1
REMARK VINA RESULT:      -7.3      0.000      0.000
REMARK  Name = 
REMARK  1 active torsions:
REMARK  status: ('A' for Active; 'I' for Inactive)
REMARK    1  A    between atoms: C_5  and  N_6
REMARK                            x       y       z     vdW  Elec       q    Type
REMARK                         _______ _______ _______ _____ _____    ______ ____
ROOT
ATOM      1  N   UNL     1       4.224   4.006  18.201  0.00  0.00    +0.000 N 
ATOM      2  C   UNL     1       4.126   2.902  17.372  0.00  0.00    +0.000 A 
ATOM      3  C   UNL     1       3.130   2.077  17.834  0.00  0.00    +0.000 A 
ATOM      4  C   UNL     1       2.538   2.707  18.955  0.00  0.00    +0.000 A 
ATOM      5  C   UNL     1       1.461   2.358  19.796  0.00  0.00    +0.000 A 
ATOM      6  C   UNL     1       1.061   3.230  20.810  0.00  0.00    +0.000 A 
ATOM      7  C   UNL     1       1.712   4.442  20.990  0.00  0.00    +0.000 A 
ATOM      8  C   UNL     1       2.786   4.809  20.172  0.00  0.00    +0.000 A 
ATOM      9  C   UNL     1       3.217   3.917  19.168  0.00  0.00    +0.000 A 
ENDROOT
BRANCH   1  14
ATOM     10 CL   UNL     1       8.196   8.386  17.572  0.00  0.00    +0.000 Cl
ATOM     11  C   UNL     1       7.057   7.107  17.740  0.00  0.00    +0.000 A 
ATOM     12  C   UNL     1       5.855   7.154  17.039  0.00  0.00    +0.000 A 
ATOM     13  C   UNL     1       4.925   6.119  17.179  0.00  0.00    +0.000 A 
ATOM     14  C   UNL     1       5.192   5.043  18.041  0.00  0.00    +0.000 A 
ATOM     15  C   UNL     1       6.416   4.994  18.721  0.00  0.00    +0.000 A 
ATOM     16  C   UNL     1       7.346   6.028  18.572  0.00  0.00    +0.000 A 
ENDBRANCH   1  14
TORSDOF 1
ENDMDL
MODEL 2
REMARK VINA RESULT:      -7.2      0.088      1.213
REMARK  Name = 
REMARK  1 active torsions:
REMARK  status: ('A' for Active; 'I' for Inactive)
REMARK    1  A    between atoms: C_5  and  N_6
REMARK                            x       y       z     vdW  Elec       q    Type
REMARK                         _______ _______ _______ _____ _____    ______ ____
ROOT
ATOM      1  N   UNL     1       4.202   4.006  18.213  0.00  0.00    +0.000 N 
ATOM      2  C   UNL     1       4.098   2.927  17.352  0.00  0.00    +0.000 A 
ATOM      3  C   UNL     1       3.130   2.070  17.815  0.00  0.00    +0.000 A 
ATOM      4  C   UNL     1       2.562   2.653  18.972  0.00  0.00    +0.000 A 
ATOM      5  C   UNL     1       1.516   2.257  19.832  0.00  0.00    +0.000 A 
ATOM      6  C   UNL     1       1.131   3.088  20.886  0.00  0.00    +0.000 A 
ATOM      7  C   UNL     1       1.767   4.306  21.086  0.00  0.00    +0.000 A 
ATOM      8  C   UNL     1       2.809   4.718  20.250  0.00  0.00    +0.000 A 
ATOM      9  C   UNL     1       3.226   3.867  19.206  0.00  0.00    +0.000 A 
ENDROOT
BRANCH   1  14
ATOM     10 CL   UNL     1       8.202   8.353  17.536  0.00  0.00    +0.000 Cl
ATOM     11  C   UNL     1       7.034   7.107  17.746  0.00  0.00    +0.000 A 
ATOM     12  C   UNL     1       7.300   6.046  18.608  0.00  0.00    +0.000 A 
ATOM     13  C   UNL     1       6.355   5.030  18.775  0.00  0.00    +0.000 A 
ATOM     14  C   UNL     1       5.147   5.064  18.059  0.00  0.00    +0.000 A 
ATOM     15  C   UNL     1       4.881   6.149  17.214  0.00  0.00    +0.000 A 
ATOM     16  C   UNL     1       5.826   7.168  17.056  0.00  0.00    +0.000 A 
ENDBRANCH   1  14
TORSDOF 1
ENDMDL
MODEL 3
REMARK VINA RESULT:      -7.1      3.102      5.857
REMARK  Name = 
REMARK  1 active torsions:
REMARK  status: ('A' for Active; 'I' for Inactive)
REMARK    1  A    between atoms: C_5  and  N_6
REMARK                            x       y       z     vdW  Elec       q    Type
REMARK                         _______ _______ _______ _____ _____    ______ ____
ROOT
ATOM      1  N   UNL     1       5.612   4.769  18.521  0.00  0.00    +0.000 N 
ATOM      2  C   UNL     1       6.674   5.494  19.032  0.00  0.00    +0.000 A 
ATOM      3  C   UNL     1       7.567   5.760  18.023  0.00  0.00    +0.000 A 
ATOM      4  C   UNL     1       7.024   5.240  16.824  0.00  0.00    +0.000 A 
ATOM      5  C   UNL     1       7.465   5.254  15.484  0.00  0.00    +0.000 A 
ATOM      6  C   UNL     1       6.667   4.696  14.484  0.00  0.00    +0.000 A 
ATOM      7  C   UNL     1       5.437   4.135  14.801  0.00  0.00    +0.000 A 
ATOM      8  C   UNL     1       4.980   4.105  16.121  0.00  0.00    +0.000 A 
ATOM      9  C   UNL     1       5.797   4.636  17.141  0.00  0.00    +0.000 A 
ENDROOT
BRANCH   1  14
ATOM     10 CL   UNL     1       1.147   2.709  21.864  0.00  0.00    +0.000 Cl
ATOM     11  C   UNL     1       2.427   3.304  20.880  0.00  0.00    +0.000 A 
ATOM     12  C   UNL     1       3.413   2.433  20.425  0.00  0.00    +0.000 A 
ATOM     13  C   UNL     1       4.457   2.915  19.630  0.00  0.00    +0.000 A 
ATOM     14  C   UNL     1       4.525   4.280  19.307  0.00  0.00    +0.000 A 
ATOM     15  C   UNL     1       3.513   5.142  19.750  0.00  0.00    +0.000 A 
ATOM     16  C   UNL     1       2.467   4.654  20.539  0.00  0.00    +0.000 A 
ENDBRANCH   1  14
TORSDOF 1
ENDMDL
MODEL 4
REMARK VINA RESULT:      -7.1      3.106      5.773
REMARK  Name = 
REMARK  1 active torsions:
REMARK  status: ('A' for Active; 'I' for Inactive)
REMARK    1  A    between atoms: C_5  and  N_6
REMARK                            x       y       z     vdW  Elec       q    Type
REMARK                         _______ _______ _______ _____ _____    ______ ____
ROOT
ATOM      1  N   UNL     1       5.625   4.788  18.469  0.00  0.00    +0.000 N 
ATOM      2  C   UNL     1       6.677   5.546  18.955  0.00  0.00    +0.000 A 
ATOM      3  C   UNL     1       7.549   5.818  17.930  0.00  0.00    +0.000 A 
ATOM      4  C   UNL     1       7.004   5.266  16.747  0.00  0.00    +0.000 A 
ATOM      5  C   UNL     1       7.428   5.269  15.401  0.00  0.00    +0.000 A 
ATOM      6  C   UNL     1       6.631   4.676  14.420  0.00  0.00    +0.000 A 
ATOM      7  C   UNL     1       5.420   4.090  14.762  0.00  0.00    +0.000 A 
ATOM      8  C   UNL     1       4.979   4.071  16.089  0.00  0.00    +0.000 A 
ATOM      9  C   UNL     1       5.797   4.637  17.089  0.00  0.00    +0.000 A 
ENDROOT
BRANCH   1  14
ATOM     10 CL   UNL     1       1.132   2.718  21.767  0.00  0.00    +0.000 Cl
ATOM     11  C   UNL     1       2.444   3.318  20.830  0.00  0.00    +0.000 A 
ATOM     12  C   UNL     1       2.502   4.670  20.506  0.00  0.00    +0.000 A 
ATOM     13  C   UNL     1       3.564   5.159  19.739  0.00  0.00    +0.000 A 
ATOM     14  C   UNL     1       4.561   4.285  19.277  0.00  0.00    +0.000 A 
ATOM     15  C   UNL     1       4.505   2.931  19.631  0.00  0.00    +0.000 A 
ATOM     16  C   UNL     1       3.445   2.448  20.404  0.00  0.00    +0.000 A 
ENDBRANCH   1  14
TORSDOF 1
ENDMDL
MODEL 5
REMARK VINA RESULT:      -6.9      3.530      4.583
REMARK  Name = 
REMARK  1 active torsions:
REMARK  status: ('A' for Active; 'I' for Inactive)
REMARK    1  A    between atoms: C_5  and  N_6
REMARK                            x       y       z     vdW  Elec       q    Type
REMARK                         _______ _______ _______ _____ _____    ______ ____
ROOT
ATOM      1  N   UNL     1       3.214   6.352  18.150  0.00  0.00    +0.000 N 
ATOM      2  C   UNL     1       4.491   6.451  17.626  0.00  0.00    +0.000 A 
ATOM      3  C   UNL     1       4.956   5.194  17.327  0.00  0.00    +0.000 A 
ATOM      4  C   UNL     1       3.919   4.275  17.614  0.00  0.00    +0.000 A 
ATOM      5  C   UNL     1       3.807   2.876  17.468  0.00  0.00    +0.000 A 
ATOM      6  C   UNL     1       2.608   2.238  17.791  0.00  0.00    +0.000 A 
ATOM      7  C   UNL     1       1.523   2.975  18.247  0.00  0.00    +0.000 A 
ATOM      8  C   UNL     1       1.611   4.361  18.404  0.00  0.00    +0.000 A 
ATOM      9  C   UNL     1       2.830   5.007  18.113  0.00  0.00    +0.000 A 
ENDROOT
BRANCH   1  14
ATOM     10 CL   UNL     1      -0.033  10.965  20.029  0.00  0.00    +0.000 Cl
ATOM     11  C   UNL     1       0.924   9.640  19.493  0.00  0.00    +0.000 A 
ATOM     12  C   UNL     1       1.340   9.578  18.166  0.00  0.00    +0.000 A 
ATOM     13  C   UNL     1       2.113   8.498  17.726  0.00  0.00    +0.000 A 
ATOM     14  C   UNL     1       2.451   7.465  18.615  0.00  0.00    +0.000 A 
ATOM     15  C   UNL     1       2.048   7.551  19.954  0.00  0.00    +0.000 A 
ATOM     16  C   UNL     1       1.282   8.637  20.391  0.00  0.00    +0.000 A 
ENDBRANCH   1  14
TORSDOF 1
ENDMDL
MODEL 6
REMARK VINA RESULT:      -6.9      2.113      3.083
REMARK  Name = 
REMARK  1 active torsions:
REMARK  status: ('A' for Active; 'I' for Inactive)
REMARK    1  A    between atoms: C_5  and  N_6
REMARK                            x       y       z     vdW  Elec       q    Type
REMARK                         _______ _______ _______ _____ _____    ______ ____
ROOT
ATOM      1  N   UNL     1       3.520   5.192  18.184  0.00  0.00    +0.000 N 
ATOM      2  C   UNL     1       3.453   6.242  19.084  0.00  0.00    +0.000 A 
ATOM      3  C   UNL     1       2.441   6.006  19.981  0.00  0.00    +0.000 A 
ATOM      4  C   UNL     1       1.888   4.738  19.677  0.00  0.00    +0.000 A 
ATOM      5  C   UNL     1       0.869   3.967  20.275  0.00  0.00    +0.000 A 
ATOM      6  C   UNL     1       0.577   2.697  19.775  0.00  0.00    +0.000 A 
ATOM      7  C   UNL     1       1.288   2.187  18.698  0.00  0.00    +0.000 A 
ATOM      8  C   UNL     1       2.300   2.934  18.086  0.00  0.00    +0.000 A 
ATOM      9  C   UNL     1       2.576   4.231  18.564  0.00  0.00    +0.000 A 
ENDROOT
BRANCH   1  14
ATOM     10 CL   UNL     1       7.243   4.906  13.557  0.00  0.00    +0.000 Cl
ATOM     11  C   UNL     1       6.181   4.996  14.908  0.00  0.00    +0.000 A 
ATOM     12  C   UNL     1       5.884   3.844  15.633  0.00  0.00    +0.000 A 
ATOM     13  C   UNL     1       5.017   3.914  16.728  0.00  0.00    +0.000 A 
ATOM     14  C   UNL     1       4.428   5.137  17.085  0.00  0.00    +0.000 A 
ATOM     15  C   UNL     1       4.754   6.293  16.363  0.00  0.00    +0.000 A 
ATOM     16  C   UNL     1       5.628   6.220  15.273  0.00  0.00    +0.000 A 
ENDBRANCH   1  14
TORSDOF 1
ENDMDL
MODEL 7
REMARK VINA RESULT:      -6.9      3.506      4.689
REMARK  Name = 
REMARK  1 active torsions:
REMARK  status: ('A' for Active; 'I' for Inactive)
REMARK    1  A    between atoms: C_5  and  N_6
REMARK                            x       y       z     vdW  Elec       q    Type
REMARK                         _______ _______ _______ _____ _____    ______ ____
ROOT
ATOM      1  N   UNL     1       3.196   6.296  18.201  0.00  0.00    +0.000 N 
ATOM      2  C   UNL     1       4.484   6.402  17.703  0.00  0.00    +0.000 A 
ATOM      3  C   UNL     1       4.964   5.147  17.419  0.00  0.00    +0.000 A 
ATOM      4  C   UNL     1       3.927   4.222  17.689  0.00  0.00    +0.000 A 
ATOM      5  C   UNL     1       3.828   2.822  17.546  0.00  0.00    +0.000 A 
ATOM      6  C   UNL     1       2.627   2.176  17.848  0.00  0.00    +0.000 A 
ATOM      7  C   UNL     1       1.528   2.907  18.278  0.00  0.00    +0.000 A 
ATOM      8  C   UNL     1       1.603   4.295  18.431  0.00  0.00    +0.000 A 
ATOM      9  C   UNL     1       2.823   4.948  18.162  0.00  0.00    +0.000 A 
ENDROOT
BRANCH   1  14
ATOM     10 CL   UNL     1       0.020  10.945  20.111  0.00  0.00    +0.000 Cl
ATOM     11  C   UNL     1       0.922   9.591  19.551  0.00  0.00    +0.000 A 
ATOM     12  C   UNL     1       1.293   8.590  20.445  0.00  0.00    +0.000 A 
ATOM     13  C   UNL     1       2.031   7.491  19.993  0.00  0.00    +0.000 A 
ATOM     14  C   UNL     1       2.417   7.405  18.646  0.00  0.00    +0.000 A 
ATOM     15  C   UNL     1       2.015   8.407  17.752  0.00  0.00    +0.000 A 
ATOM     16  C   UNL     1       1.271   9.500  18.206  0.00  0.00    +0.000 A 
ENDBRANCH   1  14
TORSDOF 1
ENDMDL
MODEL 8
REMARK VINA RESULT:      -6.8      2.093      2.912
REMARK  Name = 
REMARK  1 active torsions:
REMARK  status: ('A' for Active; 'I' for Inactive)
REMARK    1  A    between atoms: C_5  and  N_6
REMARK                            x       y       z     vdW  Elec       q    Type
REMARK                         _______ _______ _______ _____ _____    ______ ____
ROOT
ATOM      1  N   UNL     1       3.614   5.057  18.262  0.00  0.00    +0.000 N 
ATOM      2  C   UNL     1       3.686   6.022  19.252  0.00  0.00    +0.000 A 
ATOM      3  C   UNL     1       2.688   5.804  20.169  0.00  0.00    +0.000 A 
ATOM      4  C   UNL     1       2.000   4.629  19.781  0.00  0.00    +0.000 A 
ATOM      5  C   UNL     1       0.930   3.909  20.353  0.00  0.00    +0.000 A 
ATOM      6  C   UNL     1       0.493   2.724  19.757  0.00  0.00    +0.000 A 
ATOM      7  C   UNL     1       1.111   2.248  18.609  0.00  0.00    +0.000 A 
ATOM      8  C   UNL     1       2.170   2.947  18.020  0.00  0.00    +0.000 A 
ATOM      9  C   UNL     1       2.593   4.162  18.598  0.00  0.00    +0.000 A 
ENDROOT
BRANCH   1  14
ATOM     10 CL   UNL     1       7.252   4.938  13.560  0.00  0.00    +0.000 Cl
ATOM     11  C   UNL     1       6.183   4.966  14.908  0.00  0.00    +0.000 A 
ATOM     12  C   UNL     1       5.609   6.169  15.312  0.00  0.00    +0.000 A 
ATOM     13  C   UNL     1       4.745   6.195  16.411  0.00  0.00    +0.000 A 
ATOM     14  C   UNL     1       4.473   5.015  17.123  0.00  0.00    +0.000 A 
ATOM     15  C   UNL     1       5.037   3.807  16.692  0.00  0.00    +0.000 A 
ATOM     16  C   UNL     1       5.895   3.785  15.587  0.00  0.00    +0.000 A 
ENDBRANCH   1  14
TORSDOF 1
ENDMDL
MODEL 9
REMARK VINA RESULT:      -6.7      3.291      5.066
REMARK  Name = 
REMARK  1 active torsions:
REMARK  status: ('A' for Active; 'I' for Inactive)
REMARK    1  A    between atoms: C_5  and  N_6
REMARK                            x       y       z     vdW  Elec       q    Type
REMARK                         _______ _______ _______ _____ _____    ______ ____
ROOT
ATOM      1  N   UNL     1       3.163   5.786  17.921  0.00  0.00    +0.000 N 
ATOM      2  C   UNL     1       2.552   4.553  17.778  0.00  0.00    +0.000 A 
ATOM      3  C   UNL     1       3.397   3.705  17.105  0.00  0.00    +0.000 A 
ATOM      4  C   UNL     1       4.604   4.405  16.866  0.00  0.00    +0.000 A 
ATOM      5  C   UNL     1       5.826   4.036  16.265  0.00  0.00    +0.000 A 
ATOM      6  C   UNL     1       6.883   4.947  16.224  0.00  0.00    +0.000 A 
ATOM      7  C   UNL     1       6.740   6.211  16.781  0.00  0.00    +0.000 A 
ATOM      8  C   UNL     1       5.538   6.601  17.378  0.00  0.00    +0.000 A 
ATOM      9  C   UNL     1       4.455   5.698  17.391  0.00  0.00    +0.000 A 
ENDROOT
BRANCH   1  14
ATOM     10 CL   UNL     1       0.511  10.493  20.404  0.00  0.00    +0.000 Cl
ATOM     11  C   UNL     1       1.297   9.138  19.692  0.00  0.00    +0.000 A 
ATOM     12  C   UNL     1       1.619   9.157  18.338  0.00  0.00    +0.000 A 
ATOM     13  C   UNL     1       2.252   8.054  17.756  0.00  0.00    +0.000 A 
ATOM     14  C   UNL     1       2.545   6.919  18.530  0.00  0.00    +0.000 A 
ATOM     15  C   UNL     1       2.238   6.923  19.897  0.00  0.00    +0.000 A 
ATOM     16  C   UNL     1       1.612   8.031  20.476  0.00  0.00    +0.000 A 
ENDBRANCH   1  14
TORSDOF 1
ENDMDL
