MODEL 1
REMARK VINA RESULT:      -7.0      0.000      0.000
REMARK  Name = 
REMARK  6 active torsions:
REMARK  status: ('A' for Active; 'I' for Inactive)
REMARK    1  A    between atoms: C_2  and  C_3
REMARK    2  A    between atoms: C_2  and  C_4
REMARK    3  A    between atoms: C_13  and  C_14
REMARK    4  A    between atoms: C_18  and  C_19
REMARK    5  A    between atoms: C_18  and  C_20
REMARK    6  A    between atoms: C_20  and  O_22
REMARK                            x       y       z     vdW  Elec       q    Type
REMARK                         _______ _______ _______ _____ _____    ______ ____
ROOT
ATOM      1  C   UNL     1       1.513   8.558  20.132  0.00  0.00    +0.000 A 
ATOM      2  C   UNL     1       1.463   9.015  18.812  0.00  0.00    +0.000 A 
ATOM      3  C   UNL     1       2.088   8.297  17.773  0.00  0.00    +0.000 A 
ATOM      4  C   UNL     1       2.789   7.111  18.022  0.00  0.00    +0.000 A 
ATOM      5  C   UNL     1       2.836   6.637  19.328  0.00  0.00    +0.000 A 
ATOM      6  C   UNL     1       2.193   7.357  20.357  0.00  0.00    +0.000 A 
ATOM      7  C   UNL     1       3.465   5.336  19.687  0.00  0.00    +0.000 C 
ATOM      8  C   UNL     1       4.961   5.288  19.412  0.00  0.00    +0.000 C 
ATOM      9  C   UNL     1       5.463   5.910  18.080  0.00  0.00    +0.000 C 
ATOM     10  C   UNL     1       4.492   5.668  16.880  0.00  0.00    +0.000 C 
ATOM     11  C   UNL     1       4.051   4.205  16.673  0.00  0.00    +0.000 C 
ATOM     12  C   UNL     1       5.160   6.130  15.555  0.00  0.00    +0.000 C 
ATOM     13  C   UNL     1       6.537   5.536  15.308  0.00  0.00    +0.000 C 
ATOM     14  C   UNL     1       7.491   5.942  16.416  0.00  0.00    +0.000 C 
ATOM     15  C   UNL     1       6.993   5.574  17.836  0.00  0.00    +0.000 C 
ATOM     16  C   UNL     1       7.318   4.077  18.070  0.00  0.00    +0.000 C 
ATOM     17  O   UNL     1       3.289   6.491  16.917  0.00  0.00    +0.000 OA
ENDROOT
BRANCH   1  19
ATOM     18  C   UNL     1       1.263   9.126  22.529  0.00  0.00    +0.000 C 
ATOM     19  C   UNL     1       0.836   9.260  21.259  0.00  0.00    +0.000 C 
ATOM     20  C   UNL     1      -0.353  10.134  20.960  0.00  0.00    +0.000 C 
ENDBRANCH   1  19
BRANCH  15  21
ATOM     21  C   UNL     1       7.844   6.386  18.838  0.00  0.00    +0.000 C 
ATOM     22  O   UNL     1       8.232   7.529  18.644  0.00  0.00    +0.000 OA
BRANCH  21  23
ATOM     23  O   UNL     1       8.150   5.743  19.988  0.00  0.00    +0.000 OA
ATOM     24  H   UNL     1       7.963   6.226  20.813  0.00  0.00    +0.000 HD
ENDBRANCH  21  23
ENDBRANCH  15  21
TORSDOF 3
ENDMDL
MODEL 2
REMARK VINA RESULT:      -6.7      2.502      5.796
REMARK  Name = 
REMARK  6 active torsions:
REMARK  status: ('A' for Active; 'I' for Inactive)
REMARK    1  A    between atoms: C_2  and  C_3
REMARK    2  A    between atoms: C_2  and  C_4
REMARK    3  A    between atoms: C_13  and  C_14
REMARK    4  A    between atoms: C_18  and  C_19
REMARK    5  A    between atoms: C_18  and  C_20
REMARK    6  A    between atoms: C_20  and  O_22
REMARK                            x       y       z     vdW  Elec       q    Type
REMARK                         _______ _______ _______ _____ _____    ______ ____
ROOT
ATOM      1  C   UNL     1       8.035   8.549  18.288  0.00  0.00    +0.000 A 
ATOM      2  C   UNL     1       8.608   7.451  18.935  0.00  0.00    +0.000 A 
ATOM      3  C   UNL     1       8.018   6.174  18.854  0.00  0.00    +0.000 A 
ATOM      4  C   UNL     1       6.836   5.957  18.136  0.00  0.00    +0.000 A 
ATOM      5  C   UNL     1       6.261   7.038  17.476  0.00  0.00    +0.000 A 
ATOM      6  C   UNL     1       6.869   8.308  17.552  0.00  0.00    +0.000 A 
ATOM      7  C   UNL     1       5.063   6.898  16.602  0.00  0.00    +0.000 C 
ATOM      8  C   UNL     1       3.817   6.443  17.348  0.00  0.00    +0.000 C 
ATOM      9  C   UNL     1       3.988   5.318  18.405  0.00  0.00    +0.000 C 
ATOM     10  C   UNL     1       5.026   4.228  17.987  0.00  0.00    +0.000 C 
ATOM     11  C   UNL     1       4.828   3.634  16.578  0.00  0.00    +0.000 C 
ATOM     12  C   UNL     1       4.982   3.041  18.988  0.00  0.00    +0.000 C 
ATOM     13  C   UNL     1       3.595   2.459  19.207  0.00  0.00    +0.000 C 
ATOM     14  C   UNL     1       2.666   3.514  19.776  0.00  0.00    +0.000 C 
ATOM     15  C   UNL     1       2.580   4.800  18.916  0.00  0.00    +0.000 C 
ATOM     16  C   UNL     1       1.592   4.518  17.755  0.00  0.00    +0.000 C 
ATOM     17  O   UNL     1       6.414   4.663  18.092  0.00  0.00    +0.000 OA
ENDROOT
BRANCH   1  19
ATOM     18  C   UNL     1       8.281  10.855  17.420  0.00  0.00    +0.000 C 
ATOM     19  C   UNL     1       8.639   9.911  18.311  0.00  0.00    +0.000 C 
ATOM     20  C   UNL     1       9.676  10.226  19.356  0.00  0.00    +0.000 C 
ENDBRANCH   1  19
BRANCH  15  21
ATOM     21  C   UNL     1       1.941   5.893  19.802  0.00  0.00    +0.000 C 
ATOM     22  O   UNL     1       2.133   7.092  19.662  0.00  0.00    +0.000 OA
BRANCH  21  23
ATOM     23  O   UNL     1       1.123   5.439  20.778  0.00  0.00    +0.000 OA
ATOM     24  H   UNL     1       1.510   5.382  21.671  0.00  0.00    +0.000 HD
ENDBRANCH  21  23
ENDBRANCH  15  21
TORSDOF 3
ENDMDL
MODEL 3
REMARK VINA RESULT:      -6.5      3.750      8.005
REMARK  Name = 
REMARK  6 active torsions:
REMARK  status: ('A' for Active; 'I' for Inactive)
REMARK    1  A    between atoms: C_2  and  C_3
REMARK    2  A    between atoms: C_2  and  C_4
REMARK    3  A    between atoms: C_13  and  C_14
REMARK    4  A    between atoms: C_18  and  C_19
REMARK    5  A    between atoms: C_18  and  C_20
REMARK    6  A    between atoms: C_20  and  O_22
REMARK                            x       y       z     vdW  Elec       q    Type
REMARK                         _______ _______ _______ _____ _____    ______ ____
ROOT
ATOM      1  C   UNL     1       2.287   7.301  19.516  0.00  0.00    +0.000 A 
ATOM      2  C   UNL     1       1.700   7.231  20.782  0.00  0.00    +0.000 A 
ATOM      3  C   UNL     1       0.845   8.253  21.242  0.00  0.00    +0.000 A 
ATOM      4  C   UNL     1       0.561   9.377  20.458  0.00  0.00    +0.000 A 
ATOM      5  C   UNL     1       1.127   9.455  19.190  0.00  0.00    +0.000 A 
ATOM      6  C   UNL     1       1.969   8.418  18.735  0.00  0.00    +0.000 A 
ATOM      7  C   UNL     1       0.810  10.553  18.236  0.00  0.00    +0.000 C 
ATOM      8  C   UNL     1       1.246  11.927  18.726  0.00  0.00    +0.000 C 
ATOM      9  C   UNL     1       0.992  12.267  20.220  0.00  0.00    +0.000 C 
ATOM     10  C   UNL     1      -0.354  11.691  20.765  0.00  0.00    +0.000 C 
ATOM     11  C   UNL     1      -1.599  12.002  19.910  0.00  0.00    +0.000 C 
ATOM     12  C   UNL     1      -0.632  12.250  22.188  0.00  0.00    +0.000 C 
ATOM     13  C   UNL     1      -0.573  13.765  22.289  0.00  0.00    +0.000 C 
ATOM     14  C   UNL     1       0.809  14.263  21.912  0.00  0.00    +0.000 C 
ATOM     15  C   UNL     1       1.281  13.798  20.512  0.00  0.00    +0.000 C 
ATOM     16  C   UNL     1       0.629  14.737  19.465  0.00  0.00    +0.000 C 
ATOM     17  O   UNL     1      -0.330  10.253  21.002  0.00  0.00    +0.000 OA
ENDROOT
BRANCH   1  19
ATOM     18  C   UNL     1       3.821   6.384  17.803  0.00  0.00    +0.000 C 
ATOM     19  C   UNL     1       3.167   6.230  18.970  0.00  0.00    +0.000 C 
ATOM     20  C   UNL     1       3.317   4.949  19.746  0.00  0.00    +0.000 C 
ENDBRANCH   1  19
BRANCH  15  21
ATOM     21  C   UNL     1       2.807  14.035  20.448  0.00  0.00    +0.000 C 
ATOM     22  O   UNL     1       3.385  14.547  19.500  0.00  0.00    +0.000 OA
BRANCH  21  23
ATOM     23  O   UNL     1       3.499  13.633  21.538  0.00  0.00    +0.000 OA
ATOM     24  H   UNL     1       4.468  13.724  21.490  0.00  0.00    +0.000 HD
ENDBRANCH  21  23
ENDBRANCH  15  21
TORSDOF 3
ENDMDL
MODEL 4
REMARK VINA RESULT:      -6.3      7.471      9.132
REMARK  Name = 
REMARK  6 active torsions:
REMARK  status: ('A' for Active; 'I' for Inactive)
REMARK    1  A    between atoms: C_2  and  C_3
REMARK    2  A    between atoms: C_2  and  C_4
REMARK    3  A    between atoms: C_13  and  C_14
REMARK    4  A    between atoms: C_18  and  C_19
REMARK    5  A    between atoms: C_18  and  C_20
REMARK    6  A    between atoms: C_20  and  O_22
REMARK                            x       y       z     vdW  Elec       q    Type
REMARK                         _______ _______ _______ _____ _____    ______ ____
ROOT
ATOM      1  C   UNL     1       7.361  13.808  24.689  0.00  0.00    +0.000 A 
ATOM      2  C   UNL     1       7.147  12.442  24.483  0.00  0.00    +0.000 A 
ATOM      3  C   UNL     1       7.815  11.752  23.451  0.00  0.00    +0.000 A 
ATOM      4  C   UNL     1       8.704  12.405  22.591  0.00  0.00    +0.000 A 
ATOM      5  C   UNL     1       8.937  13.761  22.791  0.00  0.00    +0.000 A 
ATOM      6  C   UNL     1       8.275  14.437  23.837  0.00  0.00    +0.000 A 
ATOM      7  C   UNL     1       9.940  14.528  22.001  0.00  0.00    +0.000 C 
ATOM      8  C   UNL     1       9.610  14.608  20.517  0.00  0.00    +0.000 C 
ATOM      9  C   UNL     1       9.088  13.316  19.830  0.00  0.00    +0.000 C 
ATOM     10  C   UNL     1       9.775  12.015  20.356  0.00  0.00    +0.000 C 
ATOM     11  C   UNL     1      11.317  12.044  20.376  0.00  0.00    +0.000 C 
ATOM     12  C   UNL     1       9.356  10.803  19.480  0.00  0.00    +0.000 C 
ATOM     13  C   UNL     1       9.574  11.004  17.989  0.00  0.00    +0.000 C 
ATOM     14  C   UNL     1       8.751  12.176  17.491  0.00  0.00    +0.000 C 
ATOM     15  C   UNL     1       9.018  13.497  18.257  0.00  0.00    +0.000 C 
ATOM     16  C   UNL     1      10.310  14.121  17.671  0.00  0.00    +0.000 C 
ATOM     17  O   UNL     1       9.325  11.603  21.681  0.00  0.00    +0.000 OA
ENDROOT
BRANCH   1  19
ATOM     18  C   UNL     1       7.158  15.787  26.161  0.00  0.00    +0.000 C 
ATOM     19  C   UNL     1       6.709  14.573  25.788  0.00  0.00    +0.000 C 
ATOM     20  C   UNL     1       5.527  13.966  26.494  0.00  0.00    +0.000 C 
ENDBRANCH   1  19
BRANCH  15  21
ATOM     21  C   UNL     1       7.855  14.457  17.920  0.00  0.00    +0.000 C 
ATOM     22  O   UNL     1       6.672  14.184  18.065  0.00  0.00    +0.000 OA
BRANCH  21  23
ATOM     23  O   UNL     1       8.227  15.666  17.439  0.00  0.00    +0.000 OA
ATOM     24  H   UNL     1       9.164  15.759  17.188  0.00  0.00    +0.000 HD
ENDBRANCH  21  23
ENDBRANCH  15  21
TORSDOF 3
ENDMDL
MODEL 5
REMARK VINA RESULT:      -6.3      7.367      8.766
REMARK  Name = 
REMARK  6 active torsions:
REMARK  status: ('A' for Active; 'I' for Inactive)
REMARK    1  A    between atoms: C_2  and  C_3
REMARK    2  A    between atoms: C_2  and  C_4
REMARK    3  A    between atoms: C_13  and  C_14
REMARK    4  A    between atoms: C_18  and  C_19
REMARK    5  A    between atoms: C_18  and  C_20
REMARK    6  A    between atoms: C_20  and  O_22
REMARK                            x       y       z     vdW  Elec       q    Type
REMARK                         _______ _______ _______ _____ _____    ______ ____
ROOT
ATOM      1  C   UNL     1       5.008  15.715  19.079  0.00  0.00    +0.000 A 
ATOM      2  C   UNL     1       5.827  16.513  19.883  0.00  0.00    +0.000 A 
ATOM      3  C   UNL     1       7.231  16.414  19.809  0.00  0.00    +0.000 A 
ATOM      4  C   UNL     1       7.856  15.511  18.941  0.00  0.00    +0.000 A 
ATOM      5  C   UNL     1       7.054  14.720  18.126  0.00  0.00    +0.000 A 
ATOM      6  C   UNL     1       5.651  14.839  18.198  0.00  0.00    +0.000 A 
ATOM      7  C   UNL     1       7.616  13.802  17.096  0.00  0.00    +0.000 C 
ATOM      8  C   UNL     1       8.462  12.680  17.679  0.00  0.00    +0.000 C 
ATOM      9  C   UNL     1       9.440  13.046  18.830  0.00  0.00    +0.000 C 
ATOM     10  C   UNL     1      10.108  14.446  18.651  0.00  0.00    +0.000 C 
ATOM     11  C   UNL     1      10.758  14.697  17.275  0.00  0.00    +0.000 C 
ATOM     12  C   UNL     1      11.220  14.644  19.719  0.00  0.00    +0.000 C 
ATOM     13  C   UNL     1      12.243  13.522  19.771  0.00  0.00    +0.000 C 
ATOM     14  C   UNL     1      11.567  12.209  20.117  0.00  0.00    +0.000 C 
ATOM     15  C   UNL     1      10.406  11.834  19.162  0.00  0.00    +0.000 C 
ATOM     16  C   UNL     1      11.032  11.206  17.891  0.00  0.00    +0.000 C 
ATOM     17  O   UNL     1       9.217  15.567  18.929  0.00  0.00    +0.000 OA
ENDROOT
BRANCH   1  19
ATOM     18  C   UNL     1       2.857  16.579  18.209  0.00  0.00    +0.000 C 
ATOM     19  C   UNL     1       3.521  15.809  19.092  0.00  0.00    +0.000 C 
ATOM     20  C   UNL     1       2.754  15.024  20.123  0.00  0.00    +0.000 C 
ENDBRANCH   1  19
BRANCH  15  21
ATOM     21  C   UNL     1       9.587  10.725  19.861  0.00  0.00    +0.000 C 
ATOM     22  O   UNL     1       9.144   9.736  19.295  0.00  0.00    +0.000 OA
BRANCH  21  23
ATOM     23  O   UNL     1       9.377  10.911  21.184  0.00  0.00    +0.000 OA
ATOM     24  H   UNL     1       8.456  10.819  21.490  0.00  0.00    +0.000 HD
ENDBRANCH  21  23
ENDBRANCH  15  21
TORSDOF 3
ENDMDL
MODEL 6
REMARK VINA RESULT:      -6.3      7.217     12.656
REMARK  Name = 
REMARK  6 active torsions:
REMARK  status: ('A' for Active; 'I' for Inactive)
REMARK    1  A    between atoms: C_2  and  C_3
REMARK    2  A    between atoms: C_2  and  C_4
REMARK    3  A    between atoms: C_13  and  C_14
REMARK    4  A    between atoms: C_18  and  C_19
REMARK    5  A    between atoms: C_18  and  C_20
REMARK    6  A    between atoms: C_20  and  O_22
REMARK                            x       y       z     vdW  Elec       q    Type
REMARK                         _______ _______ _______ _____ _____    ______ ____
ROOT
ATOM      1  C   UNL     1      -0.890  11.127  21.433  0.00  0.00    +0.000 A 
ATOM      2  C   UNL     1      -1.140  11.809  20.238  0.00  0.00    +0.000 A 
ATOM      3  C   UNL     1      -2.091  12.848  20.183  0.00  0.00    +0.000 A 
ATOM      4  C   UNL     1      -2.825  13.228  21.312  0.00  0.00    +0.000 A 
ATOM      5  C   UNL     1      -2.579  12.567  22.510  0.00  0.00    +0.000 A 
ATOM      6  C   UNL     1      -1.614  11.539  22.557  0.00  0.00    +0.000 A 
ATOM      7  C   UNL     1      -3.228  12.960  23.792  0.00  0.00    +0.000 C 
ATOM      8  C   UNL     1      -4.740  12.785  23.784  0.00  0.00    +0.000 C 
ATOM      9  C   UNL     1      -5.504  13.222  22.504  0.00  0.00    +0.000 C 
ATOM     10  C   UNL     1      -4.915  14.509  21.842  0.00  0.00    +0.000 C 
ATOM     11  C   UNL     1      -4.705  15.704  22.794  0.00  0.00    +0.000 C 
ATOM     12  C   UNL     1      -5.854  14.997  20.704  0.00  0.00    +0.000 C 
ATOM     13  C   UNL     1      -7.303  15.179  21.123  0.00  0.00    +0.000 C 
ATOM     14  C   UNL     1      -7.882  13.861  21.599  0.00  0.00    +0.000 C 
ATOM     15  C   UNL     1      -7.071  13.198  22.741  0.00  0.00    +0.000 C 
ATOM     16  C   UNL     1      -7.484  13.888  24.067  0.00  0.00    +0.000 C 
ATOM     17  O   UNL     1      -3.663  14.287  21.129  0.00  0.00    +0.000 OA
ENDROOT
BRANCH   1  19
ATOM     18  C   UNL     1       0.812   9.603  20.478  0.00  0.00    +0.000 C 
ATOM     19  C   UNL     1       0.131  10.048  21.551  0.00  0.00    +0.000 C 
ATOM     20  C   UNL     1       0.396   9.446  22.905  0.00  0.00    +0.000 C 
ENDBRANCH   1  19
BRANCH  15  21
ATOM     21  C   UNL     1      -7.536  11.727  22.830  0.00  0.00    +0.000 C 
ATOM     22  O   UNL     1      -7.880  11.174  23.865  0.00  0.00    +0.000 OA
BRANCH  21  23
ATOM     23  O   UNL     1      -7.545  11.053  21.657  0.00  0.00    +0.000 OA
ATOM     24  H   UNL     1      -6.779  10.474  21.488  0.00  0.00    +0.000 HD
ENDBRANCH  21  23
ENDBRANCH  15  21
TORSDOF 3
ENDMDL
MODEL 7
REMARK VINA RESULT:      -6.3      7.381      8.750
REMARK  Name = 
REMARK  6 active torsions:
REMARK  status: ('A' for Active; 'I' for Inactive)
REMARK    1  A    between atoms: C_2  and  C_3
REMARK    2  A    between atoms: C_2  and  C_4
REMARK    3  A    between atoms: C_13  and  C_14
REMARK    4  A    between atoms: C_18  and  C_19
REMARK    5  A    between atoms: C_18  and  C_20
REMARK    6  A    between atoms: C_20  and  O_22
REMARK                            x       y       z     vdW  Elec       q    Type
REMARK                         _______ _______ _______ _____ _____    ______ ____
ROOT
ATOM      1  C   UNL     1       5.024  15.814  18.898  0.00  0.00    +0.000 A 
ATOM      2  C   UNL     1       5.873  16.668  19.608  0.00  0.00    +0.000 A 
ATOM      3  C   UNL     1       7.273  16.528  19.526  0.00  0.00    +0.000 A 
ATOM      4  C   UNL     1       7.865  15.530  18.745  0.00  0.00    +0.000 A 
ATOM      5  C   UNL     1       7.033  14.681  18.022  0.00  0.00    +0.000 A 
ATOM      6  C   UNL     1       5.634  14.840  18.100  0.00  0.00    +0.000 A 
ATOM      7  C   UNL     1       7.559  13.653  17.081  0.00  0.00    +0.000 C 
ATOM      8  C   UNL     1       8.388  12.574  17.762  0.00  0.00    +0.000 C 
ATOM      9  C   UNL     1       9.391  13.029  18.858  0.00  0.00    +0.000 C 
ATOM     10  C   UNL     1      10.088  14.389  18.532  0.00  0.00    +0.000 C 
ATOM     11  C   UNL     1      10.722  14.487  17.130  0.00  0.00    +0.000 C 
ATOM     12  C   UNL     1      11.220  14.664  19.561  0.00  0.00    +0.000 C 
ATOM     13  C   UNL     1      12.219  13.529  19.711  0.00  0.00    +0.000 C 
ATOM     14  C   UNL     1      11.519  12.273  20.194  0.00  0.00    +0.000 C 
ATOM     15  C   UNL     1      10.335  11.833  19.296  0.00  0.00    +0.000 C 
ATOM     16  C   UNL     1      10.928  11.068  18.086  0.00  0.00    +0.000 C 
ATOM     17  O   UNL     1       9.227  15.552  18.709  0.00  0.00    +0.000 OA
ENDROOT
BRANCH   1  19
ATOM     18  C   UNL     1       2.808  15.459  19.943  0.00  0.00    +0.000 C 
ATOM     19  C   UNL     1       3.540  15.944  18.922  0.00  0.00    +0.000 C 
ATOM     20  C   UNL     1       2.854  16.631  17.772  0.00  0.00    +0.000 C 
ENDBRANCH   1  19
BRANCH  15  21
ATOM     21  C   UNL     1       9.502  10.819  20.112  0.00  0.00    +0.000 C 
ATOM     22  O   UNL     1       9.054  11.036  21.228  0.00  0.00    +0.000 OA
BRANCH  21  23
ATOM     23  O   UNL     1       9.285   9.630  19.504  0.00  0.00    +0.000 OA
ATOM     24  H   UNL     1       9.133   9.661  18.542  0.00  0.00    +0.000 HD
ENDBRANCH  21  23
ENDBRANCH  15  21
TORSDOF 3
ENDMDL
MODEL 8
REMARK VINA RESULT:      -6.1      4.354      8.962
REMARK  Name = 
REMARK  6 active torsions:
REMARK  status: ('A' for Active; 'I' for Inactive)
REMARK    1  A    between atoms: C_2  and  C_3
REMARK    2  A    between atoms: C_2  and  C_4
REMARK    3  A    between atoms: C_13  and  C_14
REMARK    4  A    between atoms: C_18  and  C_19
REMARK    5  A    between atoms: C_18  and  C_20
REMARK    6  A    between atoms: C_20  and  O_22
REMARK                            x       y       z     vdW  Elec       q    Type
REMARK                         _______ _______ _______ _____ _____    ______ ____
ROOT
ATOM      1  C   UNL     1       1.615   8.239  19.842  0.00  0.00    +0.000 A 
ATOM      2  C   UNL     1       1.165   8.044  21.152  0.00  0.00    +0.000 A 
ATOM      3  C   UNL     1       0.290   8.965  21.761  0.00  0.00    +0.000 A 
ATOM      4  C   UNL     1      -0.153  10.110  21.088  0.00  0.00    +0.000 A 
ATOM      5  C   UNL     1       0.275  10.310  19.780  0.00  0.00    +0.000 A 
ATOM      6  C   UNL     1       1.139   9.373  19.175  0.00  0.00    +0.000 A 
ATOM      7  C   UNL     1      -0.216  11.437  18.939  0.00  0.00    +0.000 C 
ATOM      8  C   UNL     1       0.167  12.808  19.478  0.00  0.00    +0.000 C 
ATOM      9  C   UNL     1       0.042  13.034  21.010  0.00  0.00    +0.000 C 
ATOM     10  C   UNL     1      -1.197  12.321  21.642  0.00  0.00    +0.000 C 
ATOM     11  C   UNL     1      -2.542  12.585  20.934  0.00  0.00    +0.000 C 
ATOM     12  C   UNL     1      -1.369  12.767  23.120  0.00  0.00    +0.000 C 
ATOM     13  C   UNL     1      -1.410  14.273  23.319  0.00  0.00    +0.000 C 
ATOM     14  C   UNL     1      -0.113  14.901  22.847  0.00  0.00    +0.000 C 
ATOM     15  C   UNL     1       0.247  14.562  21.378  0.00  0.00    +0.000 C 
ATOM     16  C   UNL     1      -0.574  15.510  20.467  0.00  0.00    +0.000 C 
ATOM     17  O   UNL     1      -1.045  10.877  21.775  0.00  0.00    +0.000 OA
ENDROOT
BRANCH   1  19
ATOM     18  C   UNL     1       2.807   6.076  19.674  0.00  0.00    +0.000 C 
ATOM     19  C   UNL     1       2.510   7.276  19.141  0.00  0.00    +0.000 C 
ATOM     20  C   UNL     1       3.092   7.666  17.809  0.00  0.00    +0.000 C 
ENDBRANCH   1  19
BRANCH  15  21
ATOM     21  C   UNL     1       1.737  14.922  21.184  0.00  0.00    +0.000 C 
ATOM     22  O   UNL     1       2.164  15.624  20.279  0.00  0.00    +0.000 OA
BRANCH  21  23
ATOM     23  O   UNL     1       2.581  14.402  22.105  0.00  0.00    +0.000 OA
ATOM     24  H   UNL     1       2.190  13.774  22.739  0.00  0.00    +0.000 HD
ENDBRANCH  21  23
ENDBRANCH  15  21
TORSDOF 3
ENDMDL
MODEL 9
REMARK VINA RESULT:      -6.1      4.461      7.227
REMARK  Name = 
REMARK  6 active torsions:
REMARK  status: ('A' for Active; 'I' for Inactive)
REMARK    1  A    between atoms: C_2  and  C_3
REMARK    2  A    between atoms: C_2  and  C_4
REMARK    3  A    between atoms: C_13  and  C_14
REMARK    4  A    between atoms: C_18  and  C_19
REMARK    5  A    between atoms: C_18  and  C_20
REMARK    6  A    between atoms: C_20  and  O_22
REMARK                            x       y       z     vdW  Elec       q    Type
REMARK                         _______ _______ _______ _____ _____    ______ ____
ROOT
ATOM      1  C   UNL     1       1.982  15.159  19.214  0.00  0.00    +0.000 A 
ATOM      2  C   UNL     1       2.957  14.490  18.469  0.00  0.00    +0.000 A 
ATOM      3  C   UNL     1       2.814  13.125  18.148  0.00  0.00    +0.000 A 
ATOM      4  C   UNL     1       1.701  12.388  18.568  0.00  0.00    +0.000 A 
ATOM      5  C   UNL     1       0.716  13.042  19.299  0.00  0.00    +0.000 A 
ATOM      6  C   UNL     1       0.864  14.412  19.602  0.00  0.00    +0.000 A 
ATOM      7  C   UNL     1      -0.554  12.380  19.707  0.00  0.00    +0.000 C 
ATOM      8  C   UNL     1      -0.350  11.213  20.662  0.00  0.00    +0.000 C 
ATOM      9  C   UNL     1       0.826  10.242  20.365  0.00  0.00    +0.000 C 
ATOM     10  C   UNL     1       1.043   9.983  18.840  0.00  0.00    +0.000 C 
ATOM     11  C   UNL     1      -0.219   9.576  18.053  0.00  0.00    +0.000 C 
ATOM     12  C   UNL     1       2.086   8.850  18.638  0.00  0.00    +0.000 C 
ATOM     13  C   UNL     1       1.777   7.571  19.399  0.00  0.00    +0.000 C 
ATOM     14  C   UNL     1       1.746   7.842  20.891  0.00  0.00    +0.000 C 
ATOM     15  C   UNL     1       0.760   8.965  21.301  0.00  0.00    +0.000 C 
ATOM     16  C   UNL     1      -0.658   8.342  21.358  0.00  0.00    +0.000 C 
ATOM     17  O   UNL     1       1.663  11.097  18.133  0.00  0.00    +0.000 OA
ENDROOT
BRANCH   1  19
ATOM     18  C   UNL     1       2.673  17.036  20.672  0.00  0.00    +0.000 C 
ATOM     19  C   UNL     1       2.069  16.608  19.548  0.00  0.00    +0.000 C 
ATOM     20  C   UNL     1       1.460  17.608  18.601  0.00  0.00    +0.000 C 
ENDBRANCH   1  19
BRANCH  15  21
ATOM     21  C   UNL     1       1.130   9.387  22.741  0.00  0.00    +0.000 C 
ATOM     22  O   UNL     1       0.318   9.732  23.588  0.00  0.00    +0.000 OA
BRANCH  21  23
ATOM     23  O   UNL     1       2.451   9.352  23.030  0.00  0.00    +0.000 OA
ATOM     24  H   UNL     1       2.780  10.054  23.621  0.00  0.00    +0.000 HD
ENDBRANCH  21  23
ENDBRANCH  15  21
TORSDOF 3
ENDMDL
