MODEL 1
REMARK VINA RESULT:      -8.1      0.000      0.000
REMARK  Name = 
REMARK  6 active torsions:
REMARK  status: ('A' for Active; 'I' for Inactive)
REMARK    1  A    between atoms: C_2  and  C_12
REMARK    2  A    between atoms: N_3  and  C_4
REMARK    3  A    between atoms: C_6  and  O_7
REMARK    4  A    between atoms: C_9  and  O_10
REMARK    5  A    between atoms: C_15  and  C_16
REMARK    6  A    between atoms: C_19  and  C_20
REMARK                            x       y       z     vdW  Elec       q    Type
REMARK                         _______ _______ _______ _____ _____    ______ ____
ROOT
ATOM      1  C   UNL     1       2.104   8.431  18.450  0.00  0.00    +0.000 A 
ATOM      2  N   UNL     1       1.937   9.465  17.602  0.00  0.00    +0.000 NA
ATOM      3  O   UNL     1       1.143  10.388  18.292  0.00  0.00    +0.000 OA
ATOM      4  C   UNL     1       0.838   9.898  19.530  0.00  0.00    +0.000 A 
ATOM      5  C   UNL     1       1.455   8.689  19.685  0.00  0.00    +0.000 A 
ATOM      6 CL   UNL     1       1.477   7.709  21.081  0.00  0.00    +0.000 Cl
ENDROOT
BRANCH   4   7
ATOM      7  C   UNL     1       0.042  10.717  20.438  0.00  0.00    +0.000 A 
ATOM      8  C   UNL     1      -0.912  11.612  19.928  0.00  0.00    +0.000 A 
ATOM      9  C   UNL     1      -1.872  12.199  20.753  0.00  0.00    +0.000 A 
ATOM     10  C   UNL     1      -1.883  11.920  22.125  0.00  0.00    +0.000 A 
ATOM     11  C   UNL     1      -0.876  11.091  22.653  0.00  0.00    +0.000 A 
ATOM     12  C   UNL     1       0.083  10.505  21.820  0.00  0.00    +0.000 A 
BRANCH  10  13
ATOM     13  C   UNL     1      -2.972  12.454  23.021  0.00  0.00    +0.000 C 
ATOM     14  F   UNL     1      -2.672  13.657  23.589  0.00  0.00    +0.000 F 
ATOM     15  F   UNL     1      -4.145  12.641  22.354  0.00  0.00    +0.000 F 
ATOM     16  F   UNL     1      -3.257  11.613  24.052  0.00  0.00    +0.000 F 
ENDBRANCH  10  13
ENDBRANCH   4   7
BRANCH   1  18
ATOM     17  O   UNL     1       2.374   6.091  18.393  0.00  0.00    +0.000 OA
ATOM     18  C   UNL     1       2.837   7.203  18.124  0.00  0.00    +0.000 C 
ATOM     19  N   UNL     1       4.054   7.299  17.481  0.00  0.00    +0.000 N 
ATOM     20  H   UNL     1       4.497   8.213  17.438  0.00  0.00    +0.000 HD
BRANCH  19  21
ATOM     21  C   UNL     1       4.782   6.074  17.129  0.00  0.00    +0.000 C 
ATOM     22  C   UNL     1       5.895   5.793  18.147  0.00  0.00    +0.000 C 
ATOM     23  C   UNL     1       6.793   4.630  17.730  0.00  0.00    +0.000 C 
ATOM     24  C   UNL     1       7.355   4.837  16.329  0.00  0.00    +0.000 C 
ATOM     25  C   UNL     1       6.223   4.986  15.321  0.00  0.00    +0.000 C 
ATOM     26  C   UNL     1       5.284   6.138  15.684  0.00  0.00    +0.000 C 
BRANCH  23  27
ATOM     27  O   UNL     1       7.863   4.498  18.660  0.00  0.00    +0.000 OA
ATOM     28  H   UNL     1       7.531   4.043  19.453  0.00  0.00    +0.000 HD
ENDBRANCH  23  27
BRANCH  25  29
ATOM     29  O   UNL     1       6.767   5.207  14.024  0.00  0.00    +0.000 OA
ATOM     30  H   UNL     1       6.367   6.010  13.649  0.00  0.00    +0.000 HD
ENDBRANCH  25  29
ENDBRANCH  19  21
ENDBRANCH   1  18
TORSDOF 6
ENDMDL
MODEL 2
REMARK VINA RESULT:      -7.8      0.602      1.384
REMARK  Name = 
REMARK  6 active torsions:
REMARK  status: ('A' for Active; 'I' for Inactive)
REMARK    1  A    between atoms: C_2  and  C_12
REMARK    2  A    between atoms: N_3  and  C_4
REMARK    3  A    between atoms: C_6  and  O_7
REMARK    4  A    between atoms: C_9  and  O_10
REMARK    5  A    between atoms: C_15  and  C_16
REMARK    6  A    between atoms: C_19  and  C_20
REMARK                            x       y       z     vdW  Elec       q    Type
REMARK                         _______ _______ _______ _____ _____    ______ ____
ROOT
ATOM      1  C   UNL     1       2.057   8.306  18.419  0.00  0.00    +0.000 A 
ATOM      2  N   UNL     1       1.935   9.382  17.618  0.00  0.00    +0.000 NA
ATOM      3  O   UNL     1       1.090  10.262  18.302  0.00  0.00    +0.000 OA
ATOM      4  C   UNL     1       0.711   9.706  19.491  0.00  0.00    +0.000 A 
ATOM      5  C   UNL     1       1.327   8.494  19.621  0.00  0.00    +0.000 A 
ATOM      6 CL   UNL     1       1.269   7.442  20.963  0.00  0.00    +0.000 Cl
ENDROOT
BRANCH   4   7
ATOM      7  C   UNL     1      -0.150  10.471  20.387  0.00  0.00    +0.000 A 
ATOM      8  C   UNL     1      -0.068  10.281  21.776  0.00  0.00    +0.000 A 
ATOM      9  C   UNL     1      -0.662  11.174  22.668  0.00  0.00    +0.000 A 
ATOM     10  C   UNL     1      -1.379  12.276  22.184  0.00  0.00    +0.000 A 
ATOM     11  C   UNL     1      -1.534  12.421  20.794  0.00  0.00    +0.000 A 
ATOM     12  C   UNL     1      -0.936  11.522  19.905  0.00  0.00    +0.000 A 
BRANCH  10  13
ATOM     13  C   UNL     1      -1.939  13.314  23.122  0.00  0.00    +0.000 C 
ATOM     14  F   UNL     1      -2.894  12.831  23.966  0.00  0.00    +0.000 F 
ATOM     15  F   UNL     1      -0.980  13.861  23.920  0.00  0.00    +0.000 F 
ATOM     16  F   UNL     1      -2.515  14.356  22.462  0.00  0.00    +0.000 F 
ENDBRANCH  10  13
ENDBRANCH   4   7
BRANCH   1  18
ATOM     17  O   UNL     1       2.334   5.975  18.211  0.00  0.00    +0.000 OA
ATOM     18  C   UNL     1       2.821   7.101  18.077  0.00  0.00    +0.000 C 
ATOM     19  N   UNL     1       4.098   7.238  17.572  0.00  0.00    +0.000 N 
ATOM     20  H   UNL     1       4.542   8.149  17.646  0.00  0.00    +0.000 HD
BRANCH  19  21
ATOM     21  C   UNL     1       4.860   6.038  17.204  0.00  0.00    +0.000 C 
ATOM     22  C   UNL     1       6.002   5.794  18.200  0.00  0.00    +0.000 C 
ATOM     23  C   UNL     1       6.930   4.662  17.764  0.00  0.00    +0.000 C 
ATOM     24  C   UNL     1       7.456   4.889  16.352  0.00  0.00    +0.000 C 
ATOM     25  C   UNL     1       6.300   5.000  15.367  0.00  0.00    +0.000 C 
ATOM     26  C   UNL     1       5.330   6.119  15.751  0.00  0.00    +0.000 C 
BRANCH  23  27
ATOM     27  O   UNL     1       8.022   4.566  18.673  0.00  0.00    +0.000 OA
ATOM     28  H   UNL     1       7.976   3.705  19.123  0.00  0.00    +0.000 HD
ENDBRANCH  23  27
BRANCH  25  29
ATOM     29  O   UNL     1       6.810   5.240  14.060  0.00  0.00    +0.000 OA
ATOM     30  H   UNL     1       6.093   5.586  13.502  0.00  0.00    +0.000 HD
ENDBRANCH  25  29
ENDBRANCH  19  21
ENDBRANCH   1  18
TORSDOF 6
ENDMDL
MODEL 3
REMARK VINA RESULT:      -7.8      2.295      3.171
REMARK  Name = 
REMARK  6 active torsions:
REMARK  status: ('A' for Active; 'I' for Inactive)
REMARK    1  A    between atoms: C_2  and  C_12
REMARK    2  A    between atoms: N_3  and  C_4
REMARK    3  A    between atoms: C_6  and  O_7
REMARK    4  A    between atoms: C_9  and  O_10
REMARK    5  A    between atoms: C_15  and  C_16
REMARK    6  A    between atoms: C_19  and  C_20
REMARK                            x       y       z     vdW  Elec       q    Type
REMARK                         _______ _______ _______ _____ _____    ______ ____
ROOT
ATOM      1  C   UNL     1       1.253   8.885  20.553  0.00  0.00    +0.000 A 
ATOM      2  N   UNL     1       1.591   8.888  21.857  0.00  0.00    +0.000 NA
ATOM      3  O   UNL     1       0.751   9.831  22.458  0.00  0.00    +0.000 OA
ATOM      4  C   UNL     1      -0.069  10.384  21.516  0.00  0.00    +0.000 A 
ATOM      5  C   UNL     1       0.187   9.790  20.313  0.00  0.00    +0.000 A 
ATOM      6 CL   UNL     1      -0.630  10.048  18.837  0.00  0.00    +0.000 Cl
ENDROOT
BRANCH   4   7
ATOM      7  C   UNL     1      -1.057  11.374  21.932  0.00  0.00    +0.000 A 
ATOM      8  C   UNL     1      -1.558  12.302  21.005  0.00  0.00    +0.000 A 
ATOM      9  C   UNL     1      -2.689  13.070  21.286  0.00  0.00    +0.000 A 
ATOM     10  C   UNL     1      -3.335  12.943  22.522  0.00  0.00    +0.000 A 
ATOM     11  C   UNL     1      -2.784  12.077  23.484  0.00  0.00    +0.000 A 
ATOM     12  C   UNL     1      -1.651  11.309  23.196  0.00  0.00    +0.000 A 
BRANCH  10  13
ATOM     13  C   UNL     1      -4.618  13.680  22.811  0.00  0.00    +0.000 C 
ATOM     14  F   UNL     1      -4.556  14.473  23.918  0.00  0.00    +0.000 F 
ATOM     15  F   UNL     1      -4.984  14.501  21.787  0.00  0.00    +0.000 F 
ATOM     16  F   UNL     1      -5.668  12.838  23.011  0.00  0.00    +0.000 F 
ENDBRANCH  10  13
ENDBRANCH   4   7
BRANCH   1  18
ATOM     17  O   UNL     1       2.152   8.530  18.405  0.00  0.00    +0.000 OA
ATOM     18  C   UNL     1       1.916   8.074  19.527  0.00  0.00    +0.000 C 
ATOM     19  N   UNL     1       2.303   6.786  19.837  0.00  0.00    +0.000 N 
ATOM     20  H   UNL     1       1.937   6.373  20.690  0.00  0.00    +0.000 HD
BRANCH  19  21
ATOM     21  C   UNL     1       2.989   5.976  18.824  0.00  0.00    +0.000 C 
ATOM     22  C   UNL     1       2.109   4.798  18.383  0.00  0.00    +0.000 C 
ATOM     23  C   UNL     1       2.845   3.827  17.462  0.00  0.00    +0.000 C 
ATOM     24  C   UNL     1       4.149   3.349  18.088  0.00  0.00    +0.000 C 
ATOM     25  C   UNL     1       5.055   4.534  18.396  0.00  0.00    +0.000 C 
ATOM     26  C   UNL     1       4.373   5.547  19.318  0.00  0.00    +0.000 C 
BRANCH  23  27
ATOM     27  O   UNL     1       2.009   2.709  17.185  0.00  0.00    +0.000 OA
ATOM     28  H   UNL     1       1.383   2.599  17.921  0.00  0.00    +0.000 HD
ENDBRANCH  23  27
BRANCH  25  29
ATOM     29  O   UNL     1       6.255   4.070  19.007  0.00  0.00    +0.000 OA
ATOM     30  H   UNL     1       6.997   4.612  18.691  0.00  0.00    +0.000 HD
ENDBRANCH  25  29
ENDBRANCH  19  21
ENDBRANCH   1  18
TORSDOF 6
ENDMDL
MODEL 4
REMARK VINA RESULT:      -7.7      2.548      3.496
REMARK  Name = 
REMARK  6 active torsions:
REMARK  status: ('A' for Active; 'I' for Inactive)
REMARK    1  A    between atoms: C_2  and  C_12
REMARK    2  A    between atoms: N_3  and  C_4
REMARK    3  A    between atoms: C_6  and  O_7
REMARK    4  A    between atoms: C_9  and  O_10
REMARK    5  A    between atoms: C_15  and  C_16
REMARK    6  A    between atoms: C_19  and  C_20
REMARK                            x       y       z     vdW  Elec       q    Type
REMARK                         _______ _______ _______ _____ _____    ______ ____
ROOT
ATOM      1  C   UNL     1       1.319   8.726  20.765  0.00  0.00    +0.000 A 
ATOM      2  N   UNL     1       1.625   8.652  22.075  0.00  0.00    +0.000 NA
ATOM      3  O   UNL     1       0.941   9.713  22.678  0.00  0.00    +0.000 OA
ATOM      4  C   UNL     1       0.246  10.410  21.731  0.00  0.00    +0.000 A 
ATOM      5  C   UNL     1       0.424   9.799  20.522  0.00  0.00    +0.000 A 
ATOM      6 CL   UNL     1      -0.305  10.212  19.036  0.00  0.00    +0.000 Cl
ENDROOT
BRANCH   4   7
ATOM      7  C   UNL     1      -0.572  11.545  22.146  0.00  0.00    +0.000 A 
ATOM      8  C   UNL     1      -1.696  11.342  22.962  0.00  0.00    +0.000 A 
ATOM      9  C   UNL     1      -2.333  12.407  23.601  0.00  0.00    +0.000 A 
ATOM     10  C   UNL     1      -1.867  13.715  23.415  0.00  0.00    +0.000 A 
ATOM     11  C   UNL     1      -0.794  13.930  22.531  0.00  0.00    +0.000 A 
ATOM     12  C   UNL     1      -0.161  12.857  21.894  0.00  0.00    +0.000 A 
BRANCH  10  13
ATOM     13  C   UNL     1      -2.467  14.871  24.174  0.00  0.00    +0.000 C 
ATOM     14  F   UNL     1      -1.540  15.687  24.750  0.00  0.00    +0.000 F 
ATOM     15  F   UNL     1      -3.226  15.674  23.378  0.00  0.00    +0.000 F 
ATOM     16  F   UNL     1      -3.286  14.463  25.183  0.00  0.00    +0.000 F 
ENDBRANCH  10  13
ENDBRANCH   4   7
BRANCH   1  18
ATOM     17  O   UNL     1       2.050   8.223  18.582  0.00  0.00    +0.000 OA
ATOM     18  C   UNL     1       1.859   7.830  19.737  0.00  0.00    +0.000 C 
ATOM     19  N   UNL     1       2.183   6.533  20.080  0.00  0.00    +0.000 N 
ATOM     20  H   UNL     1       1.848   6.181  20.972  0.00  0.00    +0.000 HD
BRANCH  19  21
ATOM     21  C   UNL     1       2.748   5.638  19.063  0.00  0.00    +0.000 C 
ATOM     22  C   UNL     1       1.855   4.404  18.871  0.00  0.00    +0.000 C 
ATOM     23  C   UNL     1       2.487   3.359  17.952  0.00  0.00    +0.000 C 
ATOM     24  C   UNL     1       3.882   2.974  18.429  0.00  0.00    +0.000 C 
ATOM     25  C   UNL     1       4.781   4.202  18.487  0.00  0.00    +0.000 C 
ATOM     26  C   UNL     1       4.200   5.289  19.393  0.00  0.00    +0.000 C 
BRANCH  23  27
ATOM     27  O   UNL     1       1.659   2.202  17.909  0.00  0.00    +0.000 OA
ATOM     28  H   UNL     1       2.175   1.439  18.221  0.00  0.00    +0.000 HD
ENDBRANCH  23  27
BRANCH  25  29
ATOM     29  O   UNL     1       6.070   3.826  18.962  0.00  0.00    +0.000 OA
ATOM     30  H   UNL     1       6.666   4.590  18.886  0.00  0.00    +0.000 HD
ENDBRANCH  25  29
ENDBRANCH  19  21
ENDBRANCH   1  18
TORSDOF 6
ENDMDL
MODEL 5
REMARK VINA RESULT:      -7.7      2.480      3.402
REMARK  Name = 
REMARK  6 active torsions:
REMARK  status: ('A' for Active; 'I' for Inactive)
REMARK    1  A    between atoms: C_2  and  C_12
REMARK    2  A    between atoms: N_3  and  C_4
REMARK    3  A    between atoms: C_6  and  O_7
REMARK    4  A    between atoms: C_9  and  O_10
REMARK    5  A    between atoms: C_15  and  C_16
REMARK    6  A    between atoms: C_19  and  C_20
REMARK                            x       y       z     vdW  Elec       q    Type
REMARK                         _______ _______ _______ _____ _____    ______ ____
ROOT
ATOM      1  C   UNL     1       1.315   8.712  20.824  0.00  0.00    +0.000 A 
ATOM      2  N   UNL     1       1.657   8.674  22.127  0.00  0.00    +0.000 NA
ATOM      3  O   UNL     1       0.933   9.707  22.733  0.00  0.00    +0.000 OA
ATOM      4  C   UNL     1       0.180  10.352  21.795  0.00  0.00    +0.000 A 
ATOM      5  C   UNL     1       0.360   9.734  20.589  0.00  0.00    +0.000 A 
ATOM      6 CL   UNL     1      -0.427  10.087  19.118  0.00  0.00    +0.000 Cl
ENDROOT
BRANCH   4   7
ATOM      7  C   UNL     1      -0.687  11.449  22.216  0.00  0.00    +0.000 A 
ATOM      8  C   UNL     1      -0.642  12.680  21.543  0.00  0.00    +0.000 A 
ATOM      9  C   UNL     1      -1.632  13.646  21.729  0.00  0.00    +0.000 A 
ATOM     10  C   UNL     1      -2.686  13.407  22.620  0.00  0.00    +0.000 A 
ATOM     11  C   UNL     1      -2.686  12.210  23.359  0.00  0.00    +0.000 A 
ATOM     12  C   UNL     1      -1.691  11.246  23.167  0.00  0.00    +0.000 A 
BRANCH  10  13
ATOM     13  C   UNL     1      -3.824  14.385  22.762  0.00  0.00    +0.000 C 
ATOM     14  F   UNL     1      -4.159  15.009  21.597  0.00  0.00    +0.000 F 
ATOM     15  F   UNL     1      -4.966  13.789  23.205  0.00  0.00    +0.000 F 
ATOM     16  F   UNL     1      -3.551  15.378  23.653  0.00  0.00    +0.000 F 
ENDBRANCH  10  13
ENDBRANCH   4   7
BRANCH   1  18
ATOM     17  O   UNL     1       2.152   8.257  18.669  0.00  0.00    +0.000 OA
ATOM     18  C   UNL     1       1.876   7.832  19.795  0.00  0.00    +0.000 C 
ATOM     19  N   UNL     1       2.122   6.509  20.104  0.00  0.00    +0.000 N 
ATOM     20  H   UNL     1       1.720   6.140  20.961  0.00  0.00    +0.000 HD
BRANCH  19  21
ATOM     21  C   UNL     1       2.707   5.627  19.087  0.00  0.00    +0.000 C 
ATOM     22  C   UNL     1       1.831   4.384  18.879  0.00  0.00    +0.000 C 
ATOM     23  C   UNL     1       2.483   3.353  17.960  0.00  0.00    +0.000 C 
ATOM     24  C   UNL     1       3.878   2.980  18.448  0.00  0.00    +0.000 C 
ATOM     25  C   UNL     1       4.762   4.218  18.522  0.00  0.00    +0.000 C 
ATOM     26  C   UNL     1       4.160   5.294  19.429  0.00  0.00    +0.000 C 
BRANCH  23  27
ATOM     27  O   UNL     1       1.669   2.186  17.902  0.00  0.00    +0.000 OA
ATOM     28  H   UNL     1       1.117   2.233  17.103  0.00  0.00    +0.000 HD
ENDBRANCH  23  27
BRANCH  25  29
ATOM     29  O   UNL     1       6.051   3.855  19.006  0.00  0.00    +0.000 OA
ATOM     30  H   UNL     1       5.944   3.246  19.756  0.00  0.00    +0.000 HD
ENDBRANCH  25  29
ENDBRANCH  19  21
ENDBRANCH   1  18
TORSDOF 6
ENDMDL
MODEL 6
REMARK VINA RESULT:      -7.7      1.973      2.738
REMARK  Name = 
REMARK  6 active torsions:
REMARK  status: ('A' for Active; 'I' for Inactive)
REMARK    1  A    between atoms: C_2  and  C_12
REMARK    2  A    between atoms: N_3  and  C_4
REMARK    3  A    between atoms: C_6  and  O_7
REMARK    4  A    between atoms: C_9  and  O_10
REMARK    5  A    between atoms: C_15  and  C_16
REMARK    6  A    between atoms: C_19  and  C_20
REMARK                            x       y       z     vdW  Elec       q    Type
REMARK                         _______ _______ _______ _____ _____    ______ ____
ROOT
ATOM      1  C   UNL     1       1.697   9.192  18.583  0.00  0.00    +0.000 A 
ATOM      2  N   UNL     1       1.546  10.363  17.934  0.00  0.00    +0.000 NA
ATOM      3  O   UNL     1       0.787  11.169  18.790  0.00  0.00    +0.000 OA
ATOM      4  C   UNL     1       0.487  10.476  19.928  0.00  0.00    +0.000 A 
ATOM      5  C   UNL     1       1.073   9.244  19.857  0.00  0.00    +0.000 A 
ATOM      6 CL   UNL     1       1.089   8.034  21.059  0.00  0.00    +0.000 Cl
ENDROOT
BRANCH   4   7
ATOM      7  C   UNL     1      -0.273  11.142  20.981  0.00  0.00    +0.000 A 
ATOM      8  C   UNL     1      -0.921  12.360  20.721  0.00  0.00    +0.000 A 
ATOM      9  C   UNL     1      -1.871  12.880  21.600  0.00  0.00    +0.000 A 
ATOM     10  C   UNL     1      -2.180  12.197  22.783  0.00  0.00    +0.000 A 
ATOM     11  C   UNL     1      -1.471  11.021  23.087  0.00  0.00    +0.000 A 
ATOM     12  C   UNL     1      -0.520  10.505  22.202  0.00  0.00    +0.000 A 
BRANCH  10  13
ATOM     13  C   UNL     1      -3.277  12.679  23.698  0.00  0.00    +0.000 C 
ATOM     14  F   UNL     1      -3.739  11.722  24.550  0.00  0.00    +0.000 F 
ATOM     15  F   UNL     1      -2.876  13.716  24.485  0.00  0.00    +0.000 F 
ATOM     16  F   UNL     1      -4.365  13.129  23.014  0.00  0.00    +0.000 F 
ENDBRANCH  10  13
ENDBRANCH   4   7
BRANCH   1  18
ATOM     17  O   UNL     1       3.264   8.146  17.169  0.00  0.00    +0.000 OA
ATOM     18  C   UNL     1       2.391   8.024  18.033  0.00  0.00    +0.000 C 
ATOM     19  N   UNL     1       2.076   6.768  18.513  0.00  0.00    +0.000 N 
ATOM     20  H   UNL     1       1.237   6.674  19.078  0.00  0.00    +0.000 HD
BRANCH  19  21
ATOM     21  C   UNL     1       2.783   5.596  17.985  0.00  0.00    +0.000 C 
ATOM     22  C   UNL     1       1.865   4.366  17.977  0.00  0.00    +0.000 C 
ATOM     23  C   UNL     1       2.605   3.083  17.602  0.00  0.00    +0.000 C 
ATOM     24  C   UNL     1       3.824   2.866  18.490  0.00  0.00    +0.000 C 
ATOM     25  C   UNL     1       4.778   4.048  18.377  0.00  0.00    +0.000 C 
ATOM     26  C   UNL     1       4.095   5.368  18.740  0.00  0.00    +0.000 C 
BRANCH  23  27
ATOM     27  O   UNL     1       1.722   1.973  17.722  0.00  0.00    +0.000 OA
ATOM     28  H   UNL     1       0.813   2.281  17.565  0.00  0.00    +0.000 HD
ENDBRANCH  23  27
BRANCH  25  29
ATOM     29  O   UNL     1       5.896   3.841  19.235  0.00  0.00    +0.000 OA
ATOM     30  H   UNL     1       5.625   4.019  20.151  0.00  0.00    +0.000 HD
ENDBRANCH  25  29
ENDBRANCH  19  21
ENDBRANCH   1  18
TORSDOF 6
ENDMDL
MODEL 7
REMARK VINA RESULT:      -7.6      5.170      9.828
REMARK  Name = 
REMARK  6 active torsions:
REMARK  status: ('A' for Active; 'I' for Inactive)
REMARK    1  A    between atoms: C_2  and  C_12
REMARK    2  A    between atoms: N_3  and  C_4
REMARK    3  A    between atoms: C_6  and  O_7
REMARK    4  A    between atoms: C_9  and  O_10
REMARK    5  A    between atoms: C_15  and  C_16
REMARK    6  A    between atoms: C_19  and  C_20
REMARK                            x       y       z     vdW  Elec       q    Type
REMARK                         _______ _______ _______ _____ _____    ______ ____
ROOT
ATOM      1  C   UNL     1       1.405   9.807  19.111  0.00  0.00    +0.000 A 
ATOM      2  N   UNL     1       1.803   9.918  17.828  0.00  0.00    +0.000 NA
ATOM      3  O   UNL     1       2.312   8.660  17.487  0.00  0.00    +0.000 OA
ATOM      4  C   UNL     1       2.223   7.820  18.560  0.00  0.00    +0.000 A 
ATOM      5  C   UNL     1       1.623   8.489  19.589  0.00  0.00    +0.000 A 
ATOM      6 CL   UNL     1       1.186   7.864  21.115  0.00  0.00    +0.000 Cl
ENDROOT
BRANCH   4   7
ATOM      7  C   UNL     1       2.668   6.438  18.415  0.00  0.00    +0.000 A 
ATOM      8  C   UNL     1       3.793   5.982  19.120  0.00  0.00    +0.000 A 
ATOM      9  C   UNL     1       4.082   4.621  19.226  0.00  0.00    +0.000 A 
ATOM     10  C   UNL     1       3.256   3.678  18.601  0.00  0.00    +0.000 A 
ATOM     11  C   UNL     1       2.177   4.137  17.823  0.00  0.00    +0.000 A 
ATOM     12  C   UNL     1       1.894   5.503  17.721  0.00  0.00    +0.000 A 
BRANCH  10  13
ATOM     13  C   UNL     1       3.482   2.199  18.786  0.00  0.00    +0.000 C 
ATOM     14  F   UNL     1       3.792   1.544  17.632  0.00  0.00    +0.000 F 
ATOM     15  F   UNL     1       4.503   1.936  19.649  0.00  0.00    +0.000 F 
ATOM     16  F   UNL     1       2.390   1.565  19.295  0.00  0.00    +0.000 F 
ENDBRANCH  10  13
ENDBRANCH   4   7
BRANCH   1  18
ATOM     17  O   UNL     1       1.497  11.935  20.117  0.00  0.00    +0.000 OA
ATOM     18  C   UNL     1       0.847  10.908  19.903  0.00  0.00    +0.000 C 
ATOM     19  N   UNL     1      -0.439  10.798  20.393  0.00  0.00    +0.000 N 
ATOM     20  H   UNL     1      -0.880   9.883  20.365  0.00  0.00    +0.000 HD
BRANCH  19  21
ATOM     21  C   UNL     1      -1.013  11.907  21.165  0.00  0.00    +0.000 C 
ATOM     22  C   UNL     1      -1.819  11.375  22.358  0.00  0.00    +0.000 C 
ATOM     23  C   UNL     1      -2.581  12.479  23.091  0.00  0.00    +0.000 C 
ATOM     24  C   UNL     1      -3.458  13.276  22.133  0.00  0.00    +0.000 C 
ATOM     25  C   UNL     1      -2.610  13.897  21.030  0.00  0.00    +0.000 C 
ATOM     26  C   UNL     1      -1.818  12.840  20.258  0.00  0.00    +0.000 C 
BRANCH  23  27
ATOM     27  O   UNL     1      -3.388  11.901  24.111  0.00  0.00    +0.000 OA
ATOM     28  H   UNL     1      -4.297  11.817  23.777  0.00  0.00    +0.000 HD
ENDBRANCH  23  27
BRANCH  25  29
ATOM     29  O   UNL     1      -3.450  14.613  20.130  0.00  0.00    +0.000 OA
ATOM     30  H   UNL     1      -3.896  15.326  20.618  0.00  0.00    +0.000 HD
ENDBRANCH  25  29
ENDBRANCH  19  21
ENDBRANCH   1  18
TORSDOF 6
ENDMDL
MODEL 8
REMARK VINA RESULT:      -7.5      5.584     10.556
REMARK  Name = 
REMARK  6 active torsions:
REMARK  status: ('A' for Active; 'I' for Inactive)
REMARK    1  A    between atoms: C_2  and  C_12
REMARK    2  A    between atoms: N_3  and  C_4
REMARK    3  A    between atoms: C_6  and  O_7
REMARK    4  A    between atoms: C_9  and  O_10
REMARK    5  A    between atoms: C_15  and  C_16
REMARK    6  A    between atoms: C_19  and  C_20
REMARK                            x       y       z     vdW  Elec       q    Type
REMARK                         _______ _______ _______ _____ _____    ______ ____
ROOT
ATOM      1  C   UNL     1       0.170  10.176  21.616  0.00  0.00    +0.000 A 
ATOM      2  N   UNL     1       0.806   9.649  22.682  0.00  0.00    +0.000 NA
ATOM      3  O   UNL     1       1.512   8.547  22.187  0.00  0.00    +0.000 OA
ATOM      4  C   UNL     1       1.287   8.421  20.846  0.00  0.00    +0.000 A 
ATOM      5  C   UNL     1       0.481   9.447  20.440  0.00  0.00    +0.000 A 
ATOM      6 CL   UNL     1      -0.016   9.805  18.848  0.00  0.00    +0.000 Cl
ENDROOT
BRANCH   4   7
ATOM      7  C   UNL     1       1.957   7.350  20.114  0.00  0.00    +0.000 A 
ATOM      8  C   UNL     1       1.887   6.028  20.579  0.00  0.00    +0.000 A 
ATOM      9  C   UNL     1       2.271   4.954  19.775  0.00  0.00    +0.000 A 
ATOM     10  C   UNL     1       2.760   5.184  18.484  0.00  0.00    +0.000 A 
ATOM     11  C   UNL     1       2.911   6.513  18.047  0.00  0.00    +0.000 A 
ATOM     12  C   UNL     1       2.525   7.585  18.858  0.00  0.00    +0.000 A 
BRANCH  10  13
ATOM     13  C   UNL     1       3.081   4.040  17.555  0.00  0.00    +0.000 C 
ATOM     14  F   UNL     1       3.632   2.964  18.183  0.00  0.00    +0.000 F 
ATOM     15  F   UNL     1       1.975   3.570  16.914  0.00  0.00    +0.000 F 
ATOM     16  F   UNL     1       3.959   4.394  16.577  0.00  0.00    +0.000 F 
ENDBRANCH  10  13
ENDBRANCH   4   7
BRANCH   1  18
ATOM     17  O   UNL     1      -1.116  11.898  20.653  0.00  0.00    +0.000 OA
ATOM     18  C   UNL     1      -0.735  11.328  21.679  0.00  0.00    +0.000 C 
ATOM     19  N   UNL     1      -1.185  11.762  22.909  0.00  0.00    +0.000 N 
ATOM     20  H   UNL     1      -0.718  11.404  23.738  0.00  0.00    +0.000 HD
BRANCH  19  21
ATOM     21  C   UNL     1      -2.110  12.899  22.978  0.00  0.00    +0.000 C 
ATOM     22  C   UNL     1      -1.438  14.105  23.649  0.00  0.00    +0.000 C 
ATOM     23  C   UNL     1      -2.413  15.254  23.903  0.00  0.00    +0.000 C 
ATOM     24  C   UNL     1      -3.632  14.784  24.687  0.00  0.00    +0.000 C 
ATOM     25  C   UNL     1      -4.350  13.673  23.934  0.00  0.00    +0.000 C 
ATOM     26  C   UNL     1      -3.424  12.489  23.646  0.00  0.00    +0.000 C 
BRANCH  23  27
ATOM     27  O   UNL     1      -1.750  16.289  24.622  0.00  0.00    +0.000 OA
ATOM     28  H   UNL     1      -2.373  17.024  24.753  0.00  0.00    +0.000 HD
ENDBRANCH  23  27
BRANCH  25  29
ATOM     29  O   UNL     1      -5.468  13.227  24.695  0.00  0.00    +0.000 OA
ATOM     30  H   UNL     1      -5.310  13.431  25.632  0.00  0.00    +0.000 HD
ENDBRANCH  25  29
ENDBRANCH  19  21
ENDBRANCH   1  18
TORSDOF 6
ENDMDL
MODEL 9
REMARK VINA RESULT:      -7.5      5.793     10.048
REMARK  Name = 
REMARK  6 active torsions:
REMARK  status: ('A' for Active; 'I' for Inactive)
REMARK    1  A    between atoms: C_2  and  C_12
REMARK    2  A    between atoms: N_3  and  C_4
REMARK    3  A    between atoms: C_6  and  O_7
REMARK    4  A    between atoms: C_9  and  O_10
REMARK    5  A    between atoms: C_15  and  C_16
REMARK    6  A    between atoms: C_19  and  C_20
REMARK                            x       y       z     vdW  Elec       q    Type
REMARK                         _______ _______ _______ _____ _____    ______ ____
ROOT
ATOM      1  C   UNL     1       1.551   7.714  20.218  0.00  0.00    +0.000 A 
ATOM      2  N   UNL     1       1.805   6.578  20.898  0.00  0.00    +0.000 NA
ATOM      3  O   UNL     1       2.674   5.843  20.085  0.00  0.00    +0.000 OA
ATOM      4  C   UNL     1       2.924   6.536  18.934  0.00  0.00    +0.000 A 
ATOM      5  C   UNL     1       2.269   7.733  18.995  0.00  0.00    +0.000 A 
ATOM      6 CL   UNL     1       2.331   9.005  17.860  0.00  0.00    +0.000 Cl
ENDROOT
BRANCH   4   7
ATOM      7  C   UNL     1       3.840   5.966  17.951  0.00  0.00    +0.000 A 
ATOM      8  C   UNL     1       3.821   4.588  17.686  0.00  0.00    +0.000 A 
ATOM      9  C   UNL     1       4.473   4.053  16.574  0.00  0.00    +0.000 A 
ATOM     10  C   UNL     1       5.185   4.892  15.707  0.00  0.00    +0.000 A 
ATOM     11  C   UNL     1       5.275   6.261  16.018  0.00  0.00    +0.000 A 
ATOM     12  C   UNL     1       4.620   6.790  17.134  0.00  0.00    +0.000 A 
BRANCH  10  13
ATOM     13  C   UNL     1       5.808   4.358  14.442  0.00  0.00    +0.000 C 
ATOM     14  F   UNL     1       4.913   4.156  13.434  0.00  0.00    +0.000 F 
ATOM     15  F   UNL     1       6.753   5.200  13.937  0.00  0.00    +0.000 F 
ATOM     16  F   UNL     1       6.434   3.165  14.633  0.00  0.00    +0.000 F 
ENDBRANCH  10  13
ENDBRANCH   4   7
BRANCH   1  18
ATOM     17  O   UNL     1      -0.253   8.529  21.495  0.00  0.00    +0.000 OA
ATOM     18  C   UNL     1       0.640   8.767  20.677  0.00  0.00    +0.000 C 
ATOM     19  N   UNL     1       0.804  10.051  20.199  0.00  0.00    +0.000 N 
ATOM     20  H   UNL     1       1.414  10.184  19.397  0.00  0.00    +0.000 HD
BRANCH  19  21
ATOM     21  C   UNL     1      -0.088  11.116  20.672  0.00  0.00    +0.000 C 
ATOM     22  C   UNL     1      -1.261  11.312  19.701  0.00  0.00    +0.000 C 
ATOM     23  C   UNL     1      -2.121  12.524  20.055  0.00  0.00    +0.000 C 
ATOM     24  C   UNL     1      -1.276  13.787  20.176  0.00  0.00    +0.000 C 
ATOM     25  C   UNL     1      -0.201  13.605  21.239  0.00  0.00    +0.000 C 
ATOM     26  C   UNL     1       0.697  12.402  20.941  0.00  0.00    +0.000 C 
BRANCH  23  27
ATOM     27  O   UNL     1      -3.117  12.709  19.055  0.00  0.00    +0.000 OA
ATOM     28  H   UNL     1      -2.678  12.948  18.220  0.00  0.00    +0.000 HD
ENDBRANCH  23  27
BRANCH  25  29
ATOM     29  O   UNL     1       0.595  14.783  21.317  0.00  0.00    +0.000 OA
ATOM     30  H   UNL     1       0.695  15.154  20.424  0.00  0.00    +0.000 HD
ENDBRANCH  25  29
ENDBRANCH  19  21
ENDBRANCH   1  18
TORSDOF 6
ENDMDL
