MODEL 1
REMARK VINA RESULT:      -6.9      0.000      0.000
REMARK  Name = 
REMARK  6 active torsions:
REMARK  status: ('A' for Active; 'I' for Inactive)
REMARK    1  A    between atoms: C_4  and  C_5
REMARK    2  A    between atoms: C_8  and  O_9
REMARK    3  A    between atoms: C_10  and  O_11
REMARK    4  A    between atoms: C_13  and  C_14
REMARK    5  A    between atoms: C_17  and  O_18
REMARK    6  A    between atoms: C_19  and  O_20
REMARK                            x       y       z     vdW  Elec       q    Type
REMARK                         _______ _______ _______ _____ _____    ______ ____
ROOT
ATOM      1  O   UNL     1      -1.693  12.634  19.708  0.00  0.00    +0.000 OA
ATOM      2  C   UNL     1      -0.624  12.309  19.210  0.00  0.00    +0.000 C 
ATOM      3  C   UNL     1      -0.255  10.911  18.878  0.00  0.00    +0.000 C 
ATOM      4  C   UNL     1      -1.118  10.103  18.244  0.00  0.00    +0.000 C 
ATOM      5  C   UNL     1       1.162  10.632  19.334  0.00  0.00    +0.000 C 
ATOM      6  O   UNL     1       2.087  11.502  18.641  0.00  0.00    +0.000 OA
ATOM      7  C   UNL     1       1.728  12.831  18.652  0.00  0.00    +0.000 A 
ATOM      8  C   UNL     1       2.717  13.753  18.314  0.00  0.00    +0.000 A 
ATOM      9  C   UNL     1       2.412  15.122  18.287  0.00  0.00    +0.000 A 
ATOM     10  C   UNL     1       1.125  15.559  18.601  0.00  0.00    +0.000 A 
ATOM     11 CL   UNL     1       0.750  17.238  18.533  0.00  0.00    +0.000 Cl
ATOM     12  C   UNL     1       0.134  14.648  18.940  0.00  0.00    +0.000 A 
ATOM     13  C   UNL     1       0.441  13.284  18.951  0.00  0.00    +0.000 A 
ENDROOT
BRANCH   4  14
ATOM     14  C   UNL     1      -2.436  10.493  17.733  0.00  0.00    +0.000 A 
ATOM     15  C   UNL     1      -2.562  11.081  16.466  0.00  0.00    +0.000 A 
ATOM     16  C   UNL     1      -3.803  11.548  16.021  0.00  0.00    +0.000 A 
ATOM     17  C   UNL     1      -4.908  11.426  16.855  0.00  0.00    +0.000 A 
ATOM     18  C   UNL     1      -4.790  10.801  18.093  0.00  0.00    +0.000 A 
ATOM     19  C   UNL     1      -3.568  10.320  18.537  0.00  0.00    +0.000 A 
BRANCH  17  20
ATOM     20  O   UNL     1      -6.130  11.936  16.512  0.00  0.00    +0.000 OA
ATOM     21  H   UNL     1      -6.282  12.731  17.052  0.00  0.00    +0.000 HD
ENDBRANCH  17  20
BRANCH  18  22
ATOM     22  O   UNL     1      -5.880  10.702  18.914  0.00  0.00    +0.000 OA
ATOM     23  H   UNL     1      -5.578  10.126  19.645  0.00  0.00    +0.000 HD
ENDBRANCH  18  22
ENDBRANCH   4  14
BRANCH   5  24
ATOM     24  C   UNL     1       1.585   9.175  19.173  0.00  0.00    +0.000 A 
ATOM     25  C   UNL     1       1.370   8.223  20.190  0.00  0.00    +0.000 A 
ATOM     26  C   UNL     1       1.958   6.955  20.122  0.00  0.00    +0.000 A 
ATOM     27  C   UNL     1       2.751   6.630  19.029  0.00  0.00    +0.000 A 
ATOM     28  C   UNL     1       2.916   7.538  17.988  0.00  0.00    +0.000 A 
ATOM     29  C   UNL     1       2.335   8.798  18.043  0.00  0.00    +0.000 A 
BRANCH  27  30
ATOM     30  O   UNL     1       3.415   5.438  18.944  0.00  0.00    +0.000 OA
ATOM     31  H   UNL     1       4.202   5.568  18.385  0.00  0.00    +0.000 HD
ENDBRANCH  27  30
BRANCH  28  32
ATOM     32  O   UNL     1       3.703   7.216  16.920  0.00  0.00    +0.000 OA
ATOM     33  H   UNL     1       3.231   7.587  16.146  0.00  0.00    +0.000 HD
ENDBRANCH  28  32
ENDBRANCH   5  24
TORSDOF 6
ENDMDL
MODEL 2
REMARK VINA RESULT:      -6.8      3.278      5.822
REMARK  Name = 
REMARK  6 active torsions:
REMARK  status: ('A' for Active; 'I' for Inactive)
REMARK    1  A    between atoms: C_4  and  C_5
REMARK    2  A    between atoms: C_8  and  O_9
REMARK    3  A    between atoms: C_10  and  O_11
REMARK    4  A    between atoms: C_13  and  C_14
REMARK    5  A    between atoms: C_17  and  O_18
REMARK    6  A    between atoms: C_19  and  O_20
REMARK                            x       y       z     vdW  Elec       q    Type
REMARK                         _______ _______ _______ _____ _____    ______ ____
ROOT
ATOM      1  O   UNL     1      -0.412  13.853  19.132  0.00  0.00    +0.000 OA
ATOM      2  C   UNL     1      -0.186  12.898  19.864  0.00  0.00    +0.000 C 
ATOM      3  C   UNL     1       0.848  11.872  19.591  0.00  0.00    +0.000 C 
ATOM      4  C   UNL     1       2.082  12.224  19.198  0.00  0.00    +0.000 C 
ATOM      5  C   UNL     1       0.282  10.491  19.849  0.00  0.00    +0.000 C 
ATOM      6  O   UNL     1      -0.101  10.364  21.238  0.00  0.00    +0.000 OA
ATOM      7  C   UNL     1      -0.873  11.402  21.709  0.00  0.00    +0.000 A 
ATOM      8  C   UNL     1      -1.554  11.188  22.905  0.00  0.00    +0.000 A 
ATOM      9  C   UNL     1      -2.343  12.212  23.450  0.00  0.00    +0.000 A 
ATOM     10  C   UNL     1      -2.449  13.439  22.792  0.00  0.00    +0.000 A 
ATOM     11 CL   UNL     1      -3.394  14.702  23.484  0.00  0.00    +0.000 Cl
ATOM     12  C   UNL     1      -1.775  13.660  21.599  0.00  0.00    +0.000 A 
ATOM     13  C   UNL     1      -0.980  12.639  21.070  0.00  0.00    +0.000 A 
ENDROOT
BRANCH   4  14
ATOM     14  C   UNL     1       2.582  13.598  19.084  0.00  0.00    +0.000 A 
ATOM     15  C   UNL     1       2.749  14.191  17.825  0.00  0.00    +0.000 A 
ATOM     16  C   UNL     1       3.322  15.462  17.710  0.00  0.00    +0.000 A 
ATOM     17  C   UNL     1       3.730  16.124  18.862  0.00  0.00    +0.000 A 
ATOM     18  C   UNL     1       3.522  15.553  20.114  0.00  0.00    +0.000 A 
ATOM     19  C   UNL     1       2.939  14.301  20.239  0.00  0.00    +0.000 A 
BRANCH  17  20
ATOM     20  O   UNL     1       4.371  17.332  18.810  0.00  0.00    +0.000 OA
ATOM     21  H   UNL     1       5.228  17.194  18.371  0.00  0.00    +0.000 HD
ENDBRANCH  17  20
BRANCH  18  22
ATOM     22  O   UNL     1       3.943  16.205  21.240  0.00  0.00    +0.000 OA
ATOM     23  H   UNL     1       3.191  16.781  21.480  0.00  0.00    +0.000 HD
ENDBRANCH  18  22
ENDBRANCH   4  14
BRANCH   5  24
ATOM     24  C   UNL     1       1.222   9.356  19.454  0.00  0.00    +0.000 A 
ATOM     25  C   UNL     1       1.749   9.248  18.151  0.00  0.00    +0.000 A 
ATOM     26  C   UNL     1       2.423   8.092  17.742  0.00  0.00    +0.000 A 
ATOM     27  C   UNL     1       2.584   7.045  18.640  0.00  0.00    +0.000 A 
ATOM     28  C   UNL     1       2.125   7.166  19.948  0.00  0.00    +0.000 A 
ATOM     29  C   UNL     1       1.458   8.310  20.366  0.00  0.00    +0.000 A 
BRANCH  27  30
ATOM     30  O   UNL     1       3.162   5.860  18.277  0.00  0.00    +0.000 OA
ATOM     31  H   UNL     1       2.511   5.150  18.415  0.00  0.00    +0.000 HD
ENDBRANCH  27  30
BRANCH  28  32
ATOM     32  O   UNL     1       2.280   6.131  20.824  0.00  0.00    +0.000 OA
ATOM     33  H   UNL     1       2.988   5.580  20.433  0.00  0.00    +0.000 HD
ENDBRANCH  28  32
ENDBRANCH   5  24
TORSDOF 6
ENDMDL
MODEL 3
REMARK VINA RESULT:      -6.8      0.677      1.299
REMARK  Name = 
REMARK  6 active torsions:
REMARK  status: ('A' for Active; 'I' for Inactive)
REMARK    1  A    between atoms: C_4  and  C_5
REMARK    2  A    between atoms: C_8  and  O_9
REMARK    3  A    between atoms: C_10  and  O_11
REMARK    4  A    between atoms: C_13  and  C_14
REMARK    5  A    between atoms: C_17  and  O_18
REMARK    6  A    between atoms: C_19  and  O_20
REMARK                            x       y       z     vdW  Elec       q    Type
REMARK                         _______ _______ _______ _____ _____    ______ ____
ROOT
ATOM      1  O   UNL     1      -1.741  12.819  19.748  0.00  0.00    +0.000 OA
ATOM      2  C   UNL     1      -0.661  12.574  19.226  0.00  0.00    +0.000 C 
ATOM      3  C   UNL     1      -0.207  11.212  18.859  0.00  0.00    +0.000 C 
ATOM      4  C   UNL     1      -1.027  10.360  18.222  0.00  0.00    +0.000 C 
ATOM      5  C   UNL     1       1.232  11.017  19.286  0.00  0.00    +0.000 C 
ATOM      6  O   UNL     1       2.086  11.960  18.597  0.00  0.00    +0.000 OA
ATOM      7  C   UNL     1       1.641  13.262  18.641  0.00  0.00    +0.000 A 
ATOM      8  C   UNL     1       2.561  14.254  18.307  0.00  0.00    +0.000 A 
ATOM      9  C   UNL     1       2.167  15.600  18.313  0.00  0.00    +0.000 A 
ATOM     10  C   UNL     1       0.859  15.944  18.658  0.00  0.00    +0.000 A 
ATOM     11 CL   UNL     1       0.374  17.597  18.631  0.00  0.00    +0.000 Cl
ATOM     12  C   UNL     1      -0.064  14.963  18.993  0.00  0.00    +0.000 A 
ATOM     13  C   UNL     1       0.333  13.623  18.970  0.00  0.00    +0.000 A 
ENDROOT
BRANCH   4  14
ATOM     14  C   UNL     1      -2.376  10.673  17.741  0.00  0.00    +0.000 A 
ATOM     15  C   UNL     1      -2.584  11.064  16.410  0.00  0.00    +0.000 A 
ATOM     16  C   UNL     1      -3.853  11.461  15.977  0.00  0.00    +0.000 A 
ATOM     17  C   UNL     1      -4.903  11.470  16.888  0.00  0.00    +0.000 A 
ATOM     18  C   UNL     1      -4.706  11.039  18.196  0.00  0.00    +0.000 A 
ATOM     19  C   UNL     1      -3.455  10.627  18.630  0.00  0.00    +0.000 A 
BRANCH  17  20
ATOM     20  O   UNL     1      -6.147  11.926  16.548  0.00  0.00    +0.000 OA
ATOM     21  H   UNL     1      -6.448  11.420  15.774  0.00  0.00    +0.000 HD
ENDBRANCH  17  20
BRANCH  18  22
ATOM     22  O   UNL     1      -5.741  11.068  19.089  0.00  0.00    +0.000 OA
ATOM     23  H   UNL     1      -5.764  11.994  19.401  0.00  0.00    +0.000 HD
ENDBRANCH  18  22
ENDBRANCH   4  14
BRANCH   5  24
ATOM     24  C   UNL     1       1.747   9.595  19.087  0.00  0.00    +0.000 A 
ATOM     25  C   UNL     1       2.162   9.125  17.825  0.00  0.00    +0.000 A 
ATOM     26  C   UNL     1       2.418   7.766  17.612  0.00  0.00    +0.000 A 
ATOM     27  C   UNL     1       2.272   6.874  18.667  0.00  0.00    +0.000 A 
ATOM     28  C   UNL     1       1.927   7.334  19.933  0.00  0.00    +0.000 A 
ATOM     29  C   UNL     1       1.675   8.681  20.157  0.00  0.00    +0.000 A 
BRANCH  27  30
ATOM     30  O   UNL     1       2.430   5.525  18.503  0.00  0.00    +0.000 OA
ATOM     31  H   UNL     1       1.615   5.086  18.802  0.00  0.00    +0.000 HD
ENDBRANCH  27  30
BRANCH  28  32
ATOM     32  O   UNL     1       1.779   6.452  20.964  0.00  0.00    +0.000 OA
ATOM     33  H   UNL     1       1.979   6.975  21.767  0.00  0.00    +0.000 HD
ENDBRANCH  28  32
ENDBRANCH   5  24
TORSDOF 6
ENDMDL
MODEL 4
REMARK VINA RESULT:      -6.7      3.292      5.832
REMARK  Name = 
REMARK  6 active torsions:
REMARK  status: ('A' for Active; 'I' for Inactive)
REMARK    1  A    between atoms: C_4  and  C_5
REMARK    2  A    between atoms: C_8  and  O_9
REMARK    3  A    between atoms: C_10  and  O_11
REMARK    4  A    between atoms: C_13  and  C_14
REMARK    5  A    between atoms: C_17  and  O_18
REMARK    6  A    between atoms: C_19  and  O_20
REMARK                            x       y       z     vdW  Elec       q    Type
REMARK                         _______ _______ _______ _____ _____    ______ ____
ROOT
ATOM      1  O   UNL     1      -0.374  13.952  19.249  0.00  0.00    +0.000 OA
ATOM      2  C   UNL     1      -0.196  12.970  19.959  0.00  0.00    +0.000 C 
ATOM      3  C   UNL     1       0.817  11.922  19.686  0.00  0.00    +0.000 C 
ATOM      4  C   UNL     1       2.071  12.250  19.340  0.00  0.00    +0.000 C 
ATOM      5  C   UNL     1       0.205  10.552  19.886  0.00  0.00    +0.000 C 
ATOM      6  O   UNL     1      -0.223  10.395  21.259  0.00  0.00    +0.000 OA
ATOM      7  C   UNL     1      -0.980  11.441  21.738  0.00  0.00    +0.000 A 
ATOM      8  C   UNL     1      -1.702  11.213  22.907  0.00  0.00    +0.000 A 
ATOM      9  C   UNL     1      -2.478  12.244  23.459  0.00  0.00    +0.000 A 
ATOM     10  C   UNL     1      -2.530  13.491  22.835  0.00  0.00    +0.000 A 
ATOM     11 CL   UNL     1      -3.459  14.760  23.536  0.00  0.00    +0.000 Cl
ATOM     12  C   UNL     1      -1.815  13.727  21.669  0.00  0.00    +0.000 A 
ATOM     13  C   UNL     1      -1.032  12.699  21.133  0.00  0.00    +0.000 A 
ENDROOT
BRANCH   4  14
ATOM     14  C   UNL     1       2.613  13.611  19.281  0.00  0.00    +0.000 A 
ATOM     15  C   UNL     1       2.946  14.296  20.459  0.00  0.00    +0.000 A 
ATOM     16  C   UNL     1       3.365  15.629  20.410  0.00  0.00    +0.000 A 
ATOM     17  C   UNL     1       3.439  16.268  19.178  0.00  0.00    +0.000 A 
ATOM     18  C   UNL     1       3.152  15.574  18.006  0.00  0.00    +0.000 A 
ATOM     19  C   UNL     1       2.752  14.246  18.042  0.00  0.00    +0.000 A 
BRANCH  17  20
ATOM     20  O   UNL     1       3.761  17.593  19.071  0.00  0.00    +0.000 OA
ATOM     21  H   UNL     1       4.287  17.706  18.260  0.00  0.00    +0.000 HD
ENDBRANCH  17  20
BRANCH  18  22
ATOM     22  O   UNL     1       3.211  16.216  16.800  0.00  0.00    +0.000 OA
ATOM     23  H   UNL     1       2.278  16.281  16.516  0.00  0.00    +0.000 HD
ENDBRANCH  18  22
ENDBRANCH   4  14
BRANCH   5  24
ATOM     24  C   UNL     1       1.124   9.402  19.485  0.00  0.00    +0.000 A 
ATOM     25  C   UNL     1       1.567   9.235  18.158  0.00  0.00    +0.000 A 
ATOM     26  C   UNL     1       2.220   8.062  17.761  0.00  0.00    +0.000 A 
ATOM     27  C   UNL     1       2.444   7.059  18.695  0.00  0.00    +0.000 A 
ATOM     28  C   UNL     1       2.070   7.240  20.022  0.00  0.00    +0.000 A 
ATOM     29  C   UNL     1       1.424   8.400  20.428  0.00  0.00    +0.000 A 
BRANCH  27  30
ATOM     30  O   UNL     1       3.005   5.860  18.351  0.00  0.00    +0.000 OA
ATOM     31  H   UNL     1       3.162   5.354  19.167  0.00  0.00    +0.000 HD
ENDBRANCH  27  30
BRANCH  28  32
ATOM     32  O   UNL     1       2.285   6.247  20.934  0.00  0.00    +0.000 OA
ATOM     33  H   UNL     1       1.392   6.009  21.255  0.00  0.00    +0.000 HD
ENDBRANCH  28  32
ENDBRANCH   5  24
TORSDOF 6
ENDMDL
MODEL 5
REMARK VINA RESULT:      -6.6      5.000      8.590
REMARK  Name = 
REMARK  6 active torsions:
REMARK  status: ('A' for Active; 'I' for Inactive)
REMARK    1  A    between atoms: C_4  and  C_5
REMARK    2  A    between atoms: C_8  and  O_9
REMARK    3  A    between atoms: C_10  and  O_11
REMARK    4  A    between atoms: C_13  and  C_14
REMARK    5  A    between atoms: C_17  and  O_18
REMARK    6  A    between atoms: C_19  and  O_20
REMARK                            x       y       z     vdW  Elec       q    Type
REMARK                         _______ _______ _______ _____ _____    ______ ____
ROOT
ATOM      1  O   UNL     1       0.993   5.027  18.515  0.00  0.00    +0.000 OA
ATOM      2  C   UNL     1       2.135   4.642  18.728  0.00  0.00    +0.000 C 
ATOM      3  C   UNL     1       3.322   5.111  17.974  0.00  0.00    +0.000 C 
ATOM      4  C   UNL     1       3.507   6.416  17.723  0.00  0.00    +0.000 C 
ATOM      5  C   UNL     1       4.199   3.932  17.611  0.00  0.00    +0.000 C 
ATOM      6  O   UNL     1       4.677   3.280  18.811  0.00  0.00    +0.000 OA
ATOM      7  C   UNL     1       3.693   3.005  19.734  0.00  0.00    +0.000 A 
ATOM      8  C   UNL     1       4.008   2.092  20.738  0.00  0.00    +0.000 A 
ATOM      9  C   UNL     1       3.057   1.783  21.722  0.00  0.00    +0.000 A 
ATOM     10  C   UNL     1       1.798   2.384  21.691  0.00  0.00    +0.000 A 
ATOM     11 CL   UNL     1       0.648   2.024  22.921  0.00  0.00    +0.000 Cl
ATOM     12  C   UNL     1       1.474   3.294  20.694  0.00  0.00    +0.000 A 
ATOM     13  C   UNL     1       2.433   3.608  19.726  0.00  0.00    +0.000 A 
ENDROOT
BRANCH   4  14
ATOM     14  C   UNL     1       2.661   7.509  18.215  0.00  0.00    +0.000 A 
ATOM     15  C   UNL     1       2.253   8.536  17.352  0.00  0.00    +0.000 A 
ATOM     16  C   UNL     1       1.534   9.631  17.842  0.00  0.00    +0.000 A 
ATOM     17  C   UNL     1       1.235   9.688  19.198  0.00  0.00    +0.000 A 
ATOM     18  C   UNL     1       1.600   8.645  20.045  0.00  0.00    +0.000 A 
ATOM     19  C   UNL     1       2.299   7.548  19.565  0.00  0.00    +0.000 A 
BRANCH  17  20
ATOM     20  O   UNL     1       0.607  10.769  19.753  0.00  0.00    +0.000 OA
ATOM     21  H   UNL     1       1.240  11.507  19.763  0.00  0.00    +0.000 HD
ENDBRANCH  17  20
BRANCH  18  22
ATOM     22  O   UNL     1       1.317   8.719  21.381  0.00  0.00    +0.000 OA
ATOM     23  H   UNL     1       1.833   7.990  21.777  0.00  0.00    +0.000 HD
ENDBRANCH  18  22
ENDBRANCH   4  14
BRANCH   5  24
ATOM     24  C   UNL     1       5.372   4.292  16.703  0.00  0.00    +0.000 A 
ATOM     25  C   UNL     1       6.257   5.342  17.017  0.00  0.00    +0.000 A 
ATOM     26  C   UNL     1       7.185   5.805  16.077  0.00  0.00    +0.000 A 
ATOM     27  C   UNL     1       7.239   5.208  14.824  0.00  0.00    +0.000 A 
ATOM     28  C   UNL     1       6.415   4.128  14.526  0.00  0.00    +0.000 A 
ATOM     29  C   UNL     1       5.493   3.658  15.452  0.00  0.00    +0.000 A 
BRANCH  27  30
ATOM     30  O   UNL     1       8.067   5.667  13.837  0.00  0.00    +0.000 OA
ATOM     31  H   UNL     1       7.542   5.773  13.025  0.00  0.00    +0.000 HD
ENDBRANCH  27  30
BRANCH  28  32
ATOM     32  O   UNL     1       6.467   3.550  13.290  0.00  0.00    +0.000 OA
ATOM     33  H   UNL     1       6.169   4.252  12.677  0.00  0.00    +0.000 HD
ENDBRANCH  28  32
ENDBRANCH   5  24
TORSDOF 6
ENDMDL
MODEL 6
REMARK VINA RESULT:      -6.6      3.934      8.214
REMARK  Name = 
REMARK  6 active torsions:
REMARK  status: ('A' for Active; 'I' for Inactive)
REMARK    1  A    between atoms: C_4  and  C_5
REMARK    2  A    between atoms: C_8  and  O_9
REMARK    3  A    between atoms: C_10  and  O_11
REMARK    4  A    between atoms: C_13  and  C_14
REMARK    5  A    between atoms: C_17  and  O_18
REMARK    6  A    between atoms: C_19  and  O_20
REMARK                            x       y       z     vdW  Elec       q    Type
REMARK                         _______ _______ _______ _____ _____    ______ ____
ROOT
ATOM      1  O   UNL     1      -0.687  11.217  19.455  0.00  0.00    +0.000 OA
ATOM      2  C   UNL     1      -1.765  11.790  19.365  0.00  0.00    +0.000 C 
ATOM      3  C   UNL     1      -2.260  12.782  20.349  0.00  0.00    +0.000 C 
ATOM      4  C   UNL     1      -1.460  13.758  20.807  0.00  0.00    +0.000 C 
ATOM      5  C   UNL     1      -3.713  12.505  20.671  0.00  0.00    +0.000 C 
ATOM      6  O   UNL     1      -4.520  12.636  19.477  0.00  0.00    +0.000 OA
ATOM      7  C   UNL     1      -4.030  11.954  18.387  0.00  0.00    +0.000 A 
ATOM      8  C   UNL     1      -4.907  11.752  17.323  0.00  0.00    +0.000 A 
ATOM      9  C   UNL     1      -4.465  11.082  16.173  0.00  0.00    +0.000 A 
ATOM     10  C   UNL     1      -3.152  10.614  16.097  0.00  0.00    +0.000 A 
ATOM     11 CL   UNL     1      -2.608   9.820  14.669  0.00  0.00    +0.000 Cl
ATOM     12  C   UNL     1      -2.271  10.809  17.152  0.00  0.00    +0.000 A 
ATOM     13  C   UNL     1      -2.716  11.492  18.289  0.00  0.00    +0.000 A 
ENDROOT
BRANCH   4  14
ATOM     14  C   UNL     1      -0.091  14.023  20.351  0.00  0.00    +0.000 A 
ATOM     15  C   UNL     1       0.144  14.544  19.071  0.00  0.00    +0.000 A 
ATOM     16  C   UNL     1       1.450  14.701  18.597  0.00  0.00    +0.000 A 
ATOM     17  C   UNL     1       2.512  14.326  19.413  0.00  0.00    +0.000 A 
ATOM     18  C   UNL     1       2.278  13.852  20.701  0.00  0.00    +0.000 A 
ATOM     19  C   UNL     1       0.987  13.710  21.185  0.00  0.00    +0.000 A 
BRANCH  17  20
ATOM     20  O   UNL     1       3.808  14.377  18.978  0.00  0.00    +0.000 OA
ATOM     21  H   UNL     1       4.232  15.144  19.399  0.00  0.00    +0.000 HD
ENDBRANCH  17  20
BRANCH  18  22
ATOM     22  O   UNL     1       3.329  13.470  21.489  0.00  0.00    +0.000 OA
ATOM     23  H   UNL     1       3.211  12.506  21.595  0.00  0.00    +0.000 HD
ENDBRANCH  18  22
ENDBRANCH   4  14
BRANCH   5  24
ATOM     24  C   UNL     1      -4.275  13.381  21.787  0.00  0.00    +0.000 A 
ATOM     25  C   UNL     1      -4.998  14.559  21.513  0.00  0.00    +0.000 A 
ATOM     26  C   UNL     1      -5.312  15.463  22.534  0.00  0.00    +0.000 A 
ATOM     27  C   UNL     1      -4.915  15.184  23.835  0.00  0.00    +0.000 A 
ATOM     28  C   UNL     1      -4.258  13.993  24.128  0.00  0.00    +0.000 A 
ATOM     29  C   UNL     1      -3.945  13.087  23.124  0.00  0.00    +0.000 A 
BRANCH  27  30
ATOM     30  O   UNL     1      -5.122  16.064  24.862  0.00  0.00    +0.000 OA
ATOM     31  H   UNL     1      -4.266  16.464  25.095  0.00  0.00    +0.000 HD
ENDBRANCH  27  30
BRANCH  28  32
ATOM     32  O   UNL     1      -3.864  13.727  25.408  0.00  0.00    +0.000 OA
ATOM     33  H   UNL     1      -2.982  13.314  25.313  0.00  0.00    +0.000 HD
ENDBRANCH  28  32
ENDBRANCH   5  24
TORSDOF 6
ENDMDL
MODEL 7
REMARK VINA RESULT:      -6.6      7.538      9.560
REMARK  Name = 
REMARK  6 active torsions:
REMARK  status: ('A' for Active; 'I' for Inactive)
REMARK    1  A    between atoms: C_4  and  C_5
REMARK    2  A    between atoms: C_8  and  O_9
REMARK    3  A    between atoms: C_10  and  O_11
REMARK    4  A    between atoms: C_13  and  C_14
REMARK    5  A    between atoms: C_17  and  O_18
REMARK    6  A    between atoms: C_19  and  O_20
REMARK                            x       y       z     vdW  Elec       q    Type
REMARK                         _______ _______ _______ _____ _____    ______ ____
ROOT
ATOM      1  O   UNL     1       8.461  15.741  20.214  0.00  0.00    +0.000 OA
ATOM      2  C   UNL     1       8.423  14.577  20.591  0.00  0.00    +0.000 C 
ATOM      3  C   UNL     1       7.569  14.094  21.703  0.00  0.00    +0.000 C 
ATOM      4  C   UNL     1       6.281  14.462  21.793  0.00  0.00    +0.000 C 
ATOM      5  C   UNL     1       8.368  13.175  22.602  0.00  0.00    +0.000 C 
ATOM      6  O   UNL     1       8.810  12.015  21.859  0.00  0.00    +0.000 OA
ATOM      7  C   UNL     1       9.410  12.311  20.656  0.00  0.00    +0.000 A 
ATOM      8  C   UNL     1      10.154  11.296  20.057  0.00  0.00    +0.000 A 
ATOM      9  C   UNL     1      10.775  11.526  18.820  0.00  0.00    +0.000 A 
ATOM     10  C   UNL     1      10.652  12.768  18.195  0.00  0.00    +0.000 A 
ATOM     11 CL   UNL     1      11.390  13.030  16.661  0.00  0.00    +0.000 Cl
ATOM     12  C   UNL     1       9.914  13.784  18.784  0.00  0.00    +0.000 A 
ATOM     13  C   UNL     1       9.286  13.543  20.010  0.00  0.00    +0.000 A 
ENDROOT
BRANCH   4  14
ATOM     14  C   UNL     1       5.553  15.269  20.809  0.00  0.00    +0.000 A 
ATOM     15  C   UNL     1       5.155  16.578  21.117  0.00  0.00    +0.000 A 
ATOM     16  C   UNL     1       4.372  17.311  20.219  0.00  0.00    +0.000 A 
ATOM     17  C   UNL     1       3.989  16.720  19.020  0.00  0.00    +0.000 A 
ATOM     18  C   UNL     1       4.423  15.438  18.696  0.00  0.00    +0.000 A 
ATOM     19  C   UNL     1       5.214  14.710  19.572  0.00  0.00    +0.000 A 
BRANCH  17  20
ATOM     20  O   UNL     1       3.157  17.354  18.139  0.00  0.00    +0.000 OA
ATOM     21  H   UNL     1       2.927  18.220  18.518  0.00  0.00    +0.000 HD
ENDBRANCH  17  20
BRANCH  18  22
ATOM     22  O   UNL     1       4.027  14.859  17.523  0.00  0.00    +0.000 OA
ATOM     23  H   UNL     1       4.702  15.142  16.875  0.00  0.00    +0.000 HD
ENDBRANCH  18  22
ENDBRANCH   4  14
BRANCH   5  24
ATOM     24  C   UNL     1       7.621  12.742  23.861  0.00  0.00    +0.000 A 
ATOM     25  C   UNL     1       8.078  13.084  25.149  0.00  0.00    +0.000 A 
ATOM     26  C   UNL     1       7.516  12.499  26.289  0.00  0.00    +0.000 A 
ATOM     27  C   UNL     1       6.486  11.579  26.144  0.00  0.00    +0.000 A 
ATOM     28  C   UNL     1       5.982  11.283  24.882  0.00  0.00    +0.000 A 
ATOM     29  C   UNL     1       6.529  11.860  23.744  0.00  0.00    +0.000 A 
BRANCH  27  30
ATOM     30  O   UNL     1       5.950  10.915  27.213  0.00  0.00    +0.000 OA
ATOM     31  H   UNL     1       6.252   9.991  27.178  0.00  0.00    +0.000 HD
ENDBRANCH  27  30
BRANCH  28  32
ATOM     32  O   UNL     1       4.974  10.373  24.745  0.00  0.00    +0.000 OA
ATOM     33  H   UNL     1       5.351   9.536  25.083  0.00  0.00    +0.000 HD
ENDBRANCH  28  32
ENDBRANCH   5  24
TORSDOF 6
ENDMDL
MODEL 8
REMARK VINA RESULT:      -6.6      0.766      1.262
REMARK  Name = 
REMARK  6 active torsions:
REMARK  status: ('A' for Active; 'I' for Inactive)
REMARK    1  A    between atoms: C_4  and  C_5
REMARK    2  A    between atoms: C_8  and  O_9
REMARK    3  A    between atoms: C_10  and  O_11
REMARK    4  A    between atoms: C_13  and  C_14
REMARK    5  A    between atoms: C_17  and  O_18
REMARK    6  A    between atoms: C_19  and  O_20
REMARK                            x       y       z     vdW  Elec       q    Type
REMARK                         _______ _______ _______ _____ _____    ______ ____
ROOT
ATOM      1  O   UNL     1      -1.526  13.137  19.910  0.00  0.00    +0.000 OA
ATOM      2  C   UNL     1      -0.510  12.662  19.419  0.00  0.00    +0.000 C 
ATOM      3  C   UNL     1      -0.289  11.211  19.211  0.00  0.00    +0.000 C 
ATOM      4  C   UNL     1      -1.248  10.438  18.678  0.00  0.00    +0.000 C 
ATOM      5  C   UNL     1       1.108  10.835  19.657  0.00  0.00    +0.000 C 
ATOM      6  O   UNL     1       2.089  11.541  18.863  0.00  0.00    +0.000 OA
ATOM      7  C   UNL     1       1.862  12.895  18.757  0.00  0.00    +0.000 A 
ATOM      8  C   UNL     1       2.923  13.679  18.310  0.00  0.00    +0.000 A 
ATOM      9  C   UNL     1       2.752  15.064  18.161  0.00  0.00    +0.000 A 
ATOM     10  C   UNL     1       1.524  15.653  18.465  0.00  0.00    +0.000 A 
ATOM     11 CL   UNL     1       1.312  17.348  18.248  0.00  0.00    +0.000 Cl
ATOM     12  C   UNL     1       0.461  14.880  18.911  0.00  0.00    +0.000 A 
ATOM     13  C   UNL     1       0.636  13.499  19.043  0.00  0.00    +0.000 A 
ENDROOT
BRANCH   4  14
ATOM     14  C   UNL     1      -2.538  10.909  18.164  0.00  0.00    +0.000 A 
ATOM     15  C   UNL     1      -3.470  11.508  19.025  0.00  0.00    +0.000 A 
ATOM     16  C   UNL     1      -4.740  11.864  18.559  0.00  0.00    +0.000 A 
ATOM     17  C   UNL     1      -5.066  11.610  17.232  0.00  0.00    +0.000 A 
ATOM     18  C   UNL     1      -4.125  11.058  16.368  0.00  0.00    +0.000 A 
ATOM     19  C   UNL     1      -2.857  10.717  16.816  0.00  0.00    +0.000 A 
BRANCH  17  20
ATOM     20  O   UNL     1      -6.317  11.859  16.737  0.00  0.00    +0.000 OA
ATOM     21  H   UNL     1      -6.901  12.052  17.491  0.00  0.00    +0.000 HD
ENDBRANCH  17  20
BRANCH  18  22
ATOM     22  O   UNL     1      -4.461  10.796  15.068  0.00  0.00    +0.000 OA
ATOM     23  H   UNL     1      -3.849  11.350  14.545  0.00  0.00    +0.000 HD
ENDBRANCH  18  22
ENDBRANCH   4  14
BRANCH   5  24
ATOM     24  C   UNL     1       1.382   9.334  19.623  0.00  0.00    +0.000 A 
ATOM     25  C   UNL     1       1.106   8.504  20.728  0.00  0.00    +0.000 A 
ATOM     26  C   UNL     1       1.565   7.183  20.766  0.00  0.00    +0.000 A 
ATOM     27  C   UNL     1       2.290   6.684  19.693  0.00  0.00    +0.000 A 
ATOM     28  C   UNL     1       2.513   7.472  18.569  0.00  0.00    +0.000 A 
ATOM     29  C   UNL     1       2.060   8.784  18.518  0.00  0.00    +0.000 A 
BRANCH  27  30
ATOM     30  O   UNL     1       2.833   5.428  19.705  0.00  0.00    +0.000 OA
ATOM     31  H   UNL     1       3.768   5.504  19.965  0.00  0.00    +0.000 HD
ENDBRANCH  27  30
BRANCH  28  32
ATOM     32  O   UNL     1       3.234   6.979  17.520  0.00  0.00    +0.000 OA
ATOM     33  H   UNL     1       3.919   6.417  17.935  0.00  0.00    +0.000 HD
ENDBRANCH  28  32
ENDBRANCH   5  24
TORSDOF 6
ENDMDL
MODEL 9
REMARK VINA RESULT:      -6.5      1.790      6.514
REMARK  Name = 
REMARK  6 active torsions:
REMARK  status: ('A' for Active; 'I' for Inactive)
REMARK    1  A    between atoms: C_4  and  C_5
REMARK    2  A    between atoms: C_8  and  O_9
REMARK    3  A    between atoms: C_10  and  O_11
REMARK    4  A    between atoms: C_13  and  C_14
REMARK    5  A    between atoms: C_17  and  O_18
REMARK    6  A    between atoms: C_19  and  O_20
REMARK                            x       y       z     vdW  Elec       q    Type
REMARK                         _______ _______ _______ _____ _____    ______ ____
ROOT
ATOM      1  O   UNL     1       2.448  11.721  18.222  0.00  0.00    +0.000 OA
ATOM      2  C   UNL     1       1.464  12.032  18.880  0.00  0.00    +0.000 C 
ATOM      3  C   UNL     1       0.122  11.428  18.702  0.00  0.00    +0.000 C 
ATOM      4  C   UNL     1      -0.026  10.099  18.586  0.00  0.00    +0.000 C 
ATOM      5  C   UNL     1      -0.934  12.514  18.705  0.00  0.00    +0.000 C 
ATOM      6  O   UNL     1      -0.933  13.203  19.977  0.00  0.00    +0.000 OA
ATOM      7  C   UNL     1       0.313  13.609  20.399  0.00  0.00    +0.000 A 
ATOM      8  C   UNL     1       0.355  14.558  21.418  0.00  0.00    +0.000 A 
ATOM      9  C   UNL     1       1.593  14.999  21.907  0.00  0.00    +0.000 A 
ATOM     10  C   UNL     1       2.778  14.493  21.372  0.00  0.00    +0.000 A 
ATOM     11 CL   UNL     1       4.293  15.016  22.001  0.00  0.00    +0.000 Cl
ATOM     12  C   UNL     1       2.746  13.548  20.356  0.00  0.00    +0.000 A 
ATOM     13  C   UNL     1       1.508  13.102  19.883  0.00  0.00    +0.000 A 
ENDROOT
BRANCH   4  14
ATOM     14  C   UNL     1       1.046   9.107  18.711  0.00  0.00    +0.000 A 
ATOM     15  C   UNL     1       1.918   8.864  17.639  0.00  0.00    +0.000 A 
ATOM     16  C   UNL     1       2.874   7.847  17.720  0.00  0.00    +0.000 A 
ATOM     17  C   UNL     1       2.943   7.076  18.875  0.00  0.00    +0.000 A 
ATOM     18  C   UNL     1       2.108   7.348  19.954  0.00  0.00    +0.000 A 
ATOM     19  C   UNL     1       1.168   8.366  19.891  0.00  0.00    +0.000 A 
BRANCH  17  20
ATOM     20  O   UNL     1       3.800   6.015  18.983  0.00  0.00    +0.000 OA
ATOM     21  H   UNL     1       3.441   5.411  19.656  0.00  0.00    +0.000 HD
ENDBRANCH  17  20
BRANCH  18  22
ATOM     22  O   UNL     1       2.172   6.574  21.079  0.00  0.00    +0.000 OA
ATOM     23  H   UNL     1       1.417   6.876  21.623  0.00  0.00    +0.000 HD
ENDBRANCH  18  22
ENDBRANCH   4  14
BRANCH   5  24
ATOM     24  C   UNL     1      -2.337  12.009  18.378  0.00  0.00    +0.000 A 
ATOM     25  C   UNL     1      -2.672  11.526  17.098  0.00  0.00    +0.000 A 
ATOM     26  C   UNL     1      -4.004  11.279  16.749  0.00  0.00    +0.000 A 
ATOM     27  C   UNL     1      -5.005  11.502  17.686  0.00  0.00    +0.000 A 
ATOM     28  C   UNL     1      -4.681  11.916  18.974  0.00  0.00    +0.000 A 
ATOM     29  C   UNL     1      -3.362  12.161  19.332  0.00  0.00    +0.000 A 
BRANCH  27  30
ATOM     30  O   UNL     1      -6.330  11.355  17.381  0.00  0.00    +0.000 OA
ATOM     31  H   UNL     1      -6.657  10.555  17.829  0.00  0.00    +0.000 HD
ENDBRANCH  27  30
BRANCH  28  32
ATOM     32  O   UNL     1      -5.668  12.140  19.889  0.00  0.00    +0.000 OA
ATOM     33  H   UNL     1      -5.194  12.297  20.730  0.00  0.00    +0.000 HD
ENDBRANCH  28  32
ENDBRANCH   5  24
TORSDOF 6
ENDMDL
