MODEL 1
REMARK VINA RESULT:      -5.7      0.000      0.000
REMARK  Name = 
REMARK  6 active torsions:
REMARK  status: ('A' for Active; 'I' for Inactive)
REMARK    1  A    between atoms: C_1  and  C_2
REMARK    2  A    between atoms: C_2  and  C_3
REMARK    3  A    between atoms: C_3  and  C_4
REMARK    4  A    between atoms: C_4  and  C_5
REMARK    5  A    between atoms: C_7  and  C_8
REMARK    6  A    between atoms: C_10  and  N_11
REMARK                            x       y       z     vdW  Elec       q    Type
REMARK                         _______ _______ _______ _____ _____    ______ ____
ROOT
ATOM      1  C   UNL     1       2.744   3.910  18.067  0.00  0.00    +0.000 A 
ATOM      2  C   UNL     1       2.343   5.239  17.951  0.00  0.00    +0.000 A 
ATOM      3  C   UNL     1       3.315   6.238  17.998  0.00  0.00    +0.000 A 
ATOM      4  C   UNL     1       2.945   7.688  17.925  0.00  0.00    +0.000 C 
ATOM      5  C   UNL     1       4.651   5.863  18.155  0.00  0.00    +0.000 A 
ATOM      6  C   UNL     1       4.970   4.516  18.236  0.00  0.00    +0.000 A 
ATOM      7  N   UNL     1       4.046   3.548  18.184  0.00  0.00    +0.000 NA
ENDROOT
BRANCH   6   8
ATOM      8  N   UNL     1       6.282   4.107  18.456  0.00  0.00    +0.000 N 
ATOM      9  H   UNL     1       6.430   3.807  19.409  0.00  0.00    +0.000 HD
ATOM     10  H   UNL     1       6.877   4.892  18.202  0.00  0.00    +0.000 HD
ENDBRANCH   6   8
BRANCH   1  11
ATOM     11  C   UNL     1       1.726   2.798  18.134  0.00  0.00    +0.000 C 
BRANCH  11  12
ATOM     12  C   UNL     1       1.749   2.157  19.526  0.00  0.00    +0.000 C 
BRANCH  12  14
ATOM     13  C   UNL     1       2.110   3.373  21.683  0.00  0.00    +0.000 C 
ATOM     14  C   UNL     1       1.108   3.045  20.586  0.00  0.00    +0.000 C 
ENDBRANCH  12  14
ENDBRANCH  11  12
ENDBRANCH   1  11
TORSDOF 4
ENDMDL
MODEL 2
REMARK VINA RESULT:      -5.5      3.328      5.402
REMARK  Name = 
REMARK  6 active torsions:
REMARK  status: ('A' for Active; 'I' for Inactive)
REMARK    1  A    between atoms: C_1  and  C_2
REMARK    2  A    between atoms: C_2  and  C_3
REMARK    3  A    between atoms: C_3  and  C_4
REMARK    4  A    between atoms: C_4  and  C_5
REMARK    5  A    between atoms: C_7  and  C_8
REMARK    6  A    between atoms: C_10  and  N_11
REMARK                            x       y       z     vdW  Elec       q    Type
REMARK                         _______ _______ _______ _____ _____    ______ ____
ROOT
ATOM      1  C   UNL     1       6.528   4.923  16.414  0.00  0.00    +0.000 A 
ATOM      2  C   UNL     1       5.174   4.864  16.737  0.00  0.00    +0.000 A 
ATOM      3  C   UNL     1       4.795   5.046  18.066  0.00  0.00    +0.000 A 
ATOM      4  C   UNL     1       3.360   4.950  18.487  0.00  0.00    +0.000 C 
ATOM      5  C   UNL     1       5.789   5.283  19.018  0.00  0.00    +0.000 A 
ATOM      6  C   UNL     1       7.112   5.353  18.611  0.00  0.00    +0.000 A 
ATOM      7  N   UNL     1       7.487   5.189  17.335  0.00  0.00    +0.000 NA
ENDROOT
BRANCH   6   8
ATOM      8  N   UNL     1       8.135   5.525  19.538  0.00  0.00    +0.000 N 
ATOM      9  H   UNL     1       8.975   5.892  19.113  0.00  0.00    +0.000 HD
ATOM     10  H   UNL     1       8.288   4.617  19.973  0.00  0.00    +0.000 HD
ENDBRANCH   6   8
BRANCH   1  11
ATOM     11  C   UNL     1       7.003   4.624  15.013  0.00  0.00    +0.000 C 
BRANCH  11  12
ATOM     12  C   UNL     1       5.814   4.215  14.138  0.00  0.00    +0.000 C 
BRANCH  12  14
ATOM     13  C   UNL     1       5.041   3.282  11.948  0.00  0.00    +0.000 C 
ATOM     14  C   UNL     1       6.250   3.592  12.817  0.00  0.00    +0.000 C 
ENDBRANCH  12  14
ENDBRANCH  11  12
ENDBRANCH   1  11
TORSDOF 4
ENDMDL
MODEL 3
REMARK VINA RESULT:      -5.5      0.974      1.008
REMARK  Name = 
REMARK  6 active torsions:
REMARK  status: ('A' for Active; 'I' for Inactive)
REMARK    1  A    between atoms: C_1  and  C_2
REMARK    2  A    between atoms: C_2  and  C_3
REMARK    3  A    between atoms: C_3  and  C_4
REMARK    4  A    between atoms: C_4  and  C_5
REMARK    5  A    between atoms: C_7  and  C_8
REMARK    6  A    between atoms: C_10  and  N_11
REMARK                            x       y       z     vdW  Elec       q    Type
REMARK                         _______ _______ _______ _____ _____    ______ ____
ROOT
ATOM      1  C   UNL     1       2.449   3.845  17.923  0.00  0.00    +0.000 A 
ATOM      2  C   UNL     1       2.264   5.215  18.097  0.00  0.00    +0.000 A 
ATOM      3  C   UNL     1       3.275   6.084  17.692  0.00  0.00    +0.000 A 
ATOM      4  C   UNL     1       3.157   7.564  17.892  0.00  0.00    +0.000 C 
ATOM      5  C   UNL     1       4.432   5.544  17.124  0.00  0.00    +0.000 A 
ATOM      6  C   UNL     1       4.528   4.171  16.961  0.00  0.00    +0.000 A 
ATOM      7  N   UNL     1       3.558   3.327  17.339  0.00  0.00    +0.000 NA
ENDROOT
BRANCH   6   8
ATOM      8  N   UNL     1       5.689   3.592  16.458  0.00  0.00    +0.000 N 
ATOM      9  H   UNL     1       6.260   4.261  15.961  0.00  0.00    +0.000 HD
ATOM     10  H   UNL     1       5.395   2.820  15.865  0.00  0.00    +0.000 HD
ENDBRANCH   6   8
BRANCH   1  11
ATOM     11  C   UNL     1       1.436   2.855  18.444  0.00  0.00    +0.000 C 
BRANCH  11  12
ATOM     12  C   UNL     1       0.774   3.407  19.711  0.00  0.00    +0.000 C 
BRANCH  12  14
ATOM     13  C   UNL     1       2.284   3.632  21.694  0.00  0.00    +0.000 C 
ATOM     14  C   UNL     1       1.287   2.733  20.978  0.00  0.00    +0.000 C 
ENDBRANCH  12  14
ENDBRANCH  11  12
ENDBRANCH   1  11
TORSDOF 4
ENDMDL
MODEL 4
REMARK VINA RESULT:      -5.5      1.896      2.908
REMARK  Name = 
REMARK  6 active torsions:
REMARK  status: ('A' for Active; 'I' for Inactive)
REMARK    1  A    between atoms: C_1  and  C_2
REMARK    2  A    between atoms: C_2  and  C_3
REMARK    3  A    between atoms: C_3  and  C_4
REMARK    4  A    between atoms: C_4  and  C_5
REMARK    5  A    between atoms: C_7  and  C_8
REMARK    6  A    between atoms: C_10  and  N_11
REMARK                            x       y       z     vdW  Elec       q    Type
REMARK                         _______ _______ _______ _____ _____    ______ ____
ROOT
ATOM      1  C   UNL     1       4.661   4.105  17.951  0.00  0.00    +0.000 A 
ATOM      2  C   UNL     1       4.693   3.974  16.565  0.00  0.00    +0.000 A 
ATOM      3  C   UNL     1       5.898   4.196  15.899  0.00  0.00    +0.000 A 
ATOM      4  C   UNL     1       5.989   4.116  14.406  0.00  0.00    +0.000 C 
ATOM      5  C   UNL     1       7.024   4.535  16.653  0.00  0.00    +0.000 A 
ATOM      6  C   UNL     1       6.914   4.619  18.032  0.00  0.00    +0.000 A 
ATOM      7  N   UNL     1       5.764   4.400  18.683  0.00  0.00    +0.000 NA
ENDROOT
BRANCH   6   8
ATOM      8  N   UNL     1       7.998   5.016  18.810  0.00  0.00    +0.000 N 
ATOM      9  H   UNL     1       7.705   5.475  19.661  0.00  0.00    +0.000 HD
ATOM     10  H   UNL     1       8.570   5.619  18.223  0.00  0.00    +0.000 HD
ENDBRANCH   6   8
BRANCH   1  11
ATOM     11  C   UNL     1       3.361   3.986  18.709  0.00  0.00    +0.000 C 
BRANCH  11  12
ATOM     12  C   UNL     1       2.274   3.417  17.792  0.00  0.00    +0.000 C 
BRANCH  12  14
ATOM     13  C   UNL     1       0.981   3.425  19.935  0.00  0.00    +0.000 C 
ATOM     14  C   UNL     1       1.134   2.770  18.570  0.00  0.00    +0.000 C 
ENDBRANCH  12  14
ENDBRANCH  11  12
ENDBRANCH   1  11
TORSDOF 4
ENDMDL
MODEL 5
REMARK VINA RESULT:      -5.5      2.008      4.576
REMARK  Name = 
REMARK  6 active torsions:
REMARK  status: ('A' for Active; 'I' for Inactive)
REMARK    1  A    between atoms: C_1  and  C_2
REMARK    2  A    between atoms: C_2  and  C_3
REMARK    3  A    between atoms: C_3  and  C_4
REMARK    4  A    between atoms: C_4  and  C_5
REMARK    5  A    between atoms: C_7  and  C_8
REMARK    6  A    between atoms: C_10  and  N_11
REMARK                            x       y       z     vdW  Elec       q    Type
REMARK                         _______ _______ _______ _____ _____    ______ ____
ROOT
ATOM      1  C   UNL     1       5.164   4.993  18.381  0.00  0.00    +0.000 A 
ATOM      2  C   UNL     1       3.868   5.171  17.901  0.00  0.00    +0.000 A 
ATOM      3  C   UNL     1       2.902   4.215  18.211  0.00  0.00    +0.000 A 
ATOM      4  C   UNL     1       1.503   4.324  17.688  0.00  0.00    +0.000 C 
ATOM      5  C   UNL     1       3.274   3.120  18.995  0.00  0.00    +0.000 A 
ATOM      6  C   UNL     1       4.578   3.030  19.455  0.00  0.00    +0.000 A 
ATOM      7  N   UNL     1       5.513   3.947  19.171  0.00  0.00    +0.000 NA
ENDROOT
BRANCH   6   8
ATOM      8  N   UNL     1       5.001   1.923  20.185  0.00  0.00    +0.000 N 
ATOM      9  H   UNL     1       4.474   1.093  19.953  0.00  0.00    +0.000 HD
ATOM     10  H   UNL     1       4.914   2.173  21.167  0.00  0.00    +0.000 HD
ENDBRANCH   6   8
BRANCH   1  11
ATOM     11  C   UNL     1       6.273   5.937  17.984  0.00  0.00    +0.000 C 
BRANCH  11  12
ATOM     12  C   UNL     1       6.437   5.934  16.460  0.00  0.00    +0.000 C 
BRANCH  12  14
ATOM     13  C   UNL     1       6.063   4.048  14.858  0.00  0.00    +0.000 C 
ATOM     14  C   UNL     1       6.979   4.610  15.935  0.00  0.00    +0.000 C 
ENDBRANCH  12  14
ENDBRANCH  11  12
ENDBRANCH   1  11
TORSDOF 4
ENDMDL
MODEL 6
REMARK VINA RESULT:      -5.5      3.632      6.195
REMARK  Name = 
REMARK  6 active torsions:
REMARK  status: ('A' for Active; 'I' for Inactive)
REMARK    1  A    between atoms: C_1  and  C_2
REMARK    2  A    between atoms: C_2  and  C_3
REMARK    3  A    between atoms: C_3  and  C_4
REMARK    4  A    between atoms: C_4  and  C_5
REMARK    5  A    between atoms: C_7  and  C_8
REMARK    6  A    between atoms: C_10  and  N_11
REMARK                            x       y       z     vdW  Elec       q    Type
REMARK                         _______ _______ _______ _____ _____    ______ ____
ROOT
ATOM      1  C   UNL     1       6.974   5.850  17.302  0.00  0.00    +0.000 A 
ATOM      2  C   UNL     1       5.805   5.193  17.677  0.00  0.00    +0.000 A 
ATOM      3  C   UNL     1       5.094   4.486  16.708  0.00  0.00    +0.000 A 
ATOM      4  C   UNL     1       3.805   3.796  17.036  0.00  0.00    +0.000 C 
ATOM      5  C   UNL     1       5.588   4.464  15.402  0.00  0.00    +0.000 A 
ATOM      6  C   UNL     1       6.774   5.122  15.116  0.00  0.00    +0.000 A 
ATOM      7  N   UNL     1       7.469   5.797  16.040  0.00  0.00    +0.000 NA
ENDROOT
BRANCH   6   8
ATOM      8  N   UNL     1       7.263   5.175  13.814  0.00  0.00    +0.000 N 
ATOM      9  H   UNL     1       6.719   4.604  13.182  0.00  0.00    +0.000 HD
ATOM     10  H   UNL     1       8.236   4.882  13.858  0.00  0.00    +0.000 HD
ENDBRANCH   6   8
BRANCH   1  11
ATOM     11  C   UNL     1       7.721   6.720  18.283  0.00  0.00    +0.000 C 
BRANCH  11  12
ATOM     12  C   UNL     1       7.882   8.131  17.709  0.00  0.00    +0.000 C 
BRANCH  12  14
ATOM     13  C   UNL     1       8.778  10.445  18.038  0.00  0.00    +0.000 C 
ATOM     14  C   UNL     1       8.683   9.046  18.628  0.00  0.00    +0.000 C 
ENDBRANCH  12  14
ENDBRANCH  11  12
ENDBRANCH   1  11
TORSDOF 4
ENDMDL
MODEL 7
REMARK VINA RESULT:      -5.5      2.134      4.673
REMARK  Name = 
REMARK  6 active torsions:
REMARK  status: ('A' for Active; 'I' for Inactive)
REMARK    1  A    between atoms: C_1  and  C_2
REMARK    2  A    between atoms: C_2  and  C_3
REMARK    3  A    between atoms: C_3  and  C_4
REMARK    4  A    between atoms: C_4  and  C_5
REMARK    5  A    between atoms: C_7  and  C_8
REMARK    6  A    between atoms: C_10  and  N_11
REMARK                            x       y       z     vdW  Elec       q    Type
REMARK                         _______ _______ _______ _____ _____    ______ ____
ROOT
ATOM      1  C   UNL     1       5.261   4.654  17.932  0.00  0.00    +0.000 A 
ATOM      2  C   UNL     1       3.949   4.914  17.545  0.00  0.00    +0.000 A 
ATOM      3  C   UNL     1       2.922   4.165  18.117  0.00  0.00    +0.000 A 
ATOM      4  C   UNL     1       1.494   4.363  17.710  0.00  0.00    +0.000 C 
ATOM      5  C   UNL     1       3.252   3.188  19.059  0.00  0.00    +0.000 A 
ATOM      6  C   UNL     1       4.582   3.010  19.410  0.00  0.00    +0.000 A 
ATOM      7  N   UNL     1       5.576   3.729  18.873  0.00  0.00    +0.000 NA
ENDROOT
BRANCH   6   8
ATOM      8  N   UNL     1       4.955   2.005  20.297  0.00  0.00    +0.000 N 
ATOM      9  H   UNL     1       5.935   2.058  20.539  0.00  0.00    +0.000 HD
ATOM     10  H   UNL     1       4.715   1.122  19.852  0.00  0.00    +0.000 HD
ENDBRANCH   6   8
BRANCH   1  11
ATOM     11  C   UNL     1       6.419   5.357  17.265  0.00  0.00    +0.000 C 
BRANCH  11  12
ATOM     12  C   UNL     1       7.633   5.361  18.199  0.00  0.00    +0.000 C 
BRANCH  12  14
ATOM     13  C   UNL     1       7.671   7.785  17.576  0.00  0.00    +0.000 C 
ATOM     14  C   UNL     1       8.015   6.765  18.652  0.00  0.00    +0.000 C 
ENDBRANCH  12  14
ENDBRANCH  11  12
ENDBRANCH   1  11
TORSDOF 4
ENDMDL
MODEL 8
REMARK VINA RESULT:      -5.4      4.732      6.463
REMARK  Name = 
REMARK  6 active torsions:
REMARK  status: ('A' for Active; 'I' for Inactive)
REMARK    1  A    between atoms: C_1  and  C_2
REMARK    2  A    between atoms: C_2  and  C_3
REMARK    3  A    between atoms: C_3  and  C_4
REMARK    4  A    between atoms: C_4  and  C_5
REMARK    5  A    between atoms: C_7  and  C_8
REMARK    6  A    between atoms: C_10  and  N_11
REMARK                            x       y       z     vdW  Elec       q    Type
REMARK                         _______ _______ _______ _____ _____    ______ ____
ROOT
ATOM      1  C   UNL     1       6.452   4.622  15.001  0.00  0.00    +0.000 A 
ATOM      2  C   UNL     1       5.745   3.777  14.148  0.00  0.00    +0.000 A 
ATOM      3  C   UNL     1       6.139   3.690  12.814  0.00  0.00    +0.000 A 
ATOM      4  C   UNL     1       5.392   2.835  11.836  0.00  0.00    +0.000 C 
ATOM      5  C   UNL     1       7.230   4.451  12.389  0.00  0.00    +0.000 A 
ATOM      6  C   UNL     1       7.897   5.248  13.306  0.00  0.00    +0.000 A 
ATOM      7  N   UNL     1       7.533   5.333  14.593  0.00  0.00    +0.000 NA
ENDROOT
BRANCH   6   8
ATOM      8  N   UNL     1       8.948   6.068  12.906  0.00  0.00    +0.000 N 
ATOM      9  H   UNL     1       8.811   6.431  11.973  0.00  0.00    +0.000 HD
ATOM     10  H   UNL     1       9.796   5.510  12.983  0.00  0.00    +0.000 HD
ENDBRANCH   6   8
BRANCH   1  11
ATOM     11  C   UNL     1       6.001   4.840  16.424  0.00  0.00    +0.000 C 
BRANCH  11  12
ATOM     12  C   UNL     1       6.109   6.325  16.783  0.00  0.00    +0.000 C 
BRANCH  12  14
ATOM     13  C   UNL     1       7.806   7.963  17.621  0.00  0.00    +0.000 C 
ATOM     14  C   UNL     1       7.177   6.594  17.836  0.00  0.00    +0.000 C 
ENDBRANCH  12  14
ENDBRANCH  11  12
ENDBRANCH   1  11
TORSDOF 4
ENDMDL
MODEL 9
REMARK VINA RESULT:      -5.3      4.480      5.603
REMARK  Name = 
REMARK  6 active torsions:
REMARK  status: ('A' for Active; 'I' for Inactive)
REMARK    1  A    between atoms: C_1  and  C_2
REMARK    2  A    between atoms: C_2  and  C_3
REMARK    3  A    between atoms: C_3  and  C_4
REMARK    4  A    between atoms: C_4  and  C_5
REMARK    5  A    between atoms: C_7  and  C_8
REMARK    6  A    between atoms: C_10  and  N_11
REMARK                            x       y       z     vdW  Elec       q    Type
REMARK                         _______ _______ _______ _____ _____    ______ ____
ROOT
ATOM      1  C   UNL     1       6.429   4.468  15.088  0.00  0.00    +0.000 A 
ATOM      2  C   UNL     1       5.694   3.691  14.196  0.00  0.00    +0.000 A 
ATOM      3  C   UNL     1       6.053   3.698  12.849  0.00  0.00    +0.000 A 
ATOM      4  C   UNL     1       5.275   2.920  11.832  0.00  0.00    +0.000 C 
ATOM      5  C   UNL     1       7.139   4.481  12.451  0.00  0.00    +0.000 A 
ATOM      6  C   UNL     1       7.836   5.205  13.405  0.00  0.00    +0.000 A 
ATOM      7  N   UNL     1       7.505   5.200  14.704  0.00  0.00    +0.000 NA
ENDROOT
BRANCH   6   8
ATOM      8  N   UNL     1       8.883   6.045  13.038  0.00  0.00    +0.000 N 
ATOM      9  H   UNL     1       8.893   6.897  13.581  0.00  0.00    +0.000 HD
ATOM     10  H   UNL     1       8.775   6.224  12.042  0.00  0.00    +0.000 HD
ENDBRANCH   6   8
BRANCH   1  11
ATOM     11  C   UNL     1       6.017   4.585  16.535  0.00  0.00    +0.000 C 
BRANCH  11  12
ATOM     12  C   UNL     1       4.491   4.511  16.648  0.00  0.00    +0.000 C 
BRANCH  12  14
ATOM     13  C   UNL     1       2.602   3.060  17.415  0.00  0.00    +0.000 C 
ATOM     14  C   UNL     1       4.033   3.498  17.690  0.00  0.00    +0.000 C 
ENDBRANCH  12  14
ENDBRANCH  11  12
ENDBRANCH   1  11
TORSDOF 4
ENDMDL
