MODEL 1
REMARK VINA RESULT:      -9.4      0.000      0.000
REMARK  Name = 
REMARK  5 active torsions:
REMARK  status: ('A' for Active; 'I' for Inactive)
REMARK    1  A    between atoms: C_2  and  CA_3
REMARK    2  A    between atoms: C_15  and  N_16
REMARK    3  A    between atoms: N_16  and  C_17
REMARK    4  A    between atoms: C_20  and  C_21
REMARK    5  A    between atoms: C_22  and  C_23
REMARK                            x       y       z     vdW  Elec       q    Type
REMARK                         _______ _______ _______ _____ _____    ______ ____
ROOT
ATOM      1  CA  UNL     1       2.338   3.262  19.715  0.00  0.00    +0.000 A 
ATOM      2  C   UNL     1       2.845   2.123  19.115  0.00  0.00    +0.000 A 
ATOM      3  C   UNL     1       3.705   2.298  18.044  0.00  0.00    +0.000 A 
ATOM      4  C   UNL     1       4.020   3.596  17.610  0.00  0.00    +0.000 A 
ATOM      5  C   UNL     1       3.476   4.701  18.295  0.00  0.00    +0.000 A 
ATOM      6  N   UNL     1       2.637   4.534  19.340  0.00  0.00    +0.000 NA
ATOM      7  N   UNL     1       3.806   6.030  17.880  0.00  0.00    +0.000 N 
ATOM      8  C   UNL     1       3.194   7.217  18.327  0.00  0.00    +0.000 C 
ATOM      9  O   UNL     1       3.479   8.306  17.823  0.00  0.00    +0.000 OA
ATOM     10  N   UNL     1       2.292   7.104  19.360  0.00  0.00    +0.000 N 
ATOM     11  C   UNL     1       1.592   8.183  19.932  0.00  0.00    +0.000 A 
ATOM     12  C   UNL     1       0.907   9.102  19.146  0.00  0.00    +0.000 A 
ATOM     13  C   UNL     1       0.134  10.123  19.745  0.00  0.00    +0.000 A 
ATOM     14  C   UNL     1       0.139  10.237  21.148  0.00  0.00    +0.000 A 
ATOM     15  C   UNL     1       0.859   9.268  21.845  0.00  0.00    +0.000 A 
ATOM     16  N   UNL     1       1.534   8.224  21.280  0.00  0.00    +0.000 NA
ATOM     17  C   UNL     1       4.944   6.154  16.962  0.00  0.00    +0.000 C 
ATOM     18  C   UNL     1       4.892   5.132  15.838  0.00  0.00    +0.000 C 
ATOM     19  C   UNL     1       4.943   3.736  16.429  0.00  0.00    +0.000 C 
ATOM     20  H   UNL     1       2.475   6.333  19.988  0.00  0.00    +0.000 HD
ENDROOT
BRANCH   1  22
ATOM     21  O   UNL     1       1.755   2.806  21.971  0.00  0.00    +0.000 OA
ATOM     22  C   UNL     1       1.398   3.153  20.851  0.00  0.00    +0.000 C 
ENDBRANCH   1  22
BRANCH  13  23
ATOM     23  N   UNL     1      -0.685  10.959  18.943  0.00  0.00    +0.000 N 
ATOM     24  H   UNL     1      -0.426  11.945  18.971  0.00  0.00    +0.000 HD
BRANCH  23  25
ATOM     25  C   UNL     1      -1.338  10.464  17.733  0.00  0.00    +0.000 C 
ATOM     26  C   UNL     1      -2.716   9.864  17.760  0.00  0.00    +0.000 C 
ATOM     27  C   UNL     1      -2.506  11.228  17.173  0.00  0.00    +0.000 C 
ENDBRANCH  23  25
ENDBRANCH  13  23
BRANCH  14  28
ATOM     28  C   UNL     1      -0.544  11.302  21.861  0.00  0.00    +0.000 C 
ATOM     29  C   UNL     1      -1.099  12.154  22.507  0.00  0.00    +0.000 C 
BRANCH  29  30
ATOM     30  C   UNL     1      -1.718  13.140  23.358  0.00  0.00    +0.000 A 
ATOM     31  C   UNL     1      -3.065  13.107  23.712  0.00  0.00    +0.000 A 
ATOM     32  C   UNL     1      -3.552  14.081  24.587  0.00  0.00    +0.000 A 
ATOM     33  C   UNL     1      -2.687  15.054  25.076  0.00  0.00    +0.000 A 
ATOM     34  C   UNL     1      -1.369  15.015  24.657  0.00  0.00    +0.000 A 
ATOM     35  N   UNL     1      -0.866  14.086  23.814  0.00  0.00    +0.000 NA
ENDBRANCH  29  30
ENDBRANCH  14  28
TORSDOF 5
ENDMDL
MODEL 2
REMARK VINA RESULT:      -9.3      2.582     10.293
REMARK  Name = 
REMARK  5 active torsions:
REMARK  status: ('A' for Active; 'I' for Inactive)
REMARK    1  A    between atoms: C_2  and  CA_3
REMARK    2  A    between atoms: C_15  and  N_16
REMARK    3  A    between atoms: N_16  and  C_17
REMARK    4  A    between atoms: C_20  and  C_21
REMARK    5  A    between atoms: C_22  and  C_23
REMARK                            x       y       z     vdW  Elec       q    Type
REMARK                         _______ _______ _______ _____ _____    ______ ____
ROOT
ATOM      1  CA  UNL     1      -4.102  11.994  18.963  0.00  0.00    +0.000 A 
ATOM      2  C   UNL     1      -5.189  12.718  19.419  0.00  0.00    +0.000 A 
ATOM      3  C   UNL     1      -5.058  13.362  20.638  0.00  0.00    +0.000 A 
ATOM      4  C   UNL     1      -3.854  13.255  21.354  0.00  0.00    +0.000 A 
ATOM      5  C   UNL     1      -2.789  12.515  20.803  0.00  0.00    +0.000 A 
ATOM      6  N   UNL     1      -2.915  11.886  19.615  0.00  0.00    +0.000 NA
ATOM      7  N   UNL     1      -1.549  12.415  21.510  0.00  0.00    +0.000 N 
ATOM      8  C   UNL     1      -0.476  11.559  21.191  0.00  0.00    +0.000 C 
ATOM      9  O   UNL     1       0.506  11.472  21.932  0.00  0.00    +0.000 OA
ATOM     10  N   UNL     1      -0.569  10.854  20.013  0.00  0.00    +0.000 N 
ATOM     11  C   UNL     1       0.409   9.959  19.539  0.00  0.00    +0.000 A 
ATOM     12  C   UNL     1       0.932   8.959  20.350  0.00  0.00    +0.000 A 
ATOM     13  C   UNL     1       1.843   8.014  19.826  0.00  0.00    +0.000 A 
ATOM     14  C   UNL     1       2.269   8.155  18.492  0.00  0.00    +0.000 A 
ATOM     15  C   UNL     1       1.687   9.191  17.764  0.00  0.00    +0.000 A 
ATOM     16  N   UNL     1       0.737  10.054  18.234  0.00  0.00    +0.000 NA
ATOM     17  C   UNL     1      -1.363  13.357  22.619  0.00  0.00    +0.000 C 
ATOM     18  C   UNL     1      -2.593  13.453  23.507  0.00  0.00    +0.000 C 
ATOM     19  C   UNL     1      -3.765  13.955  22.684  0.00  0.00    +0.000 C 
ATOM     20  H   UNL     1      -1.110  11.316  19.295  0.00  0.00    +0.000 HD
ENDROOT
BRANCH   1  22
ATOM     21  O   UNL     1      -3.533  10.241  17.465  0.00  0.00    +0.000 OA
ATOM     22  C   UNL     1      -4.176  11.263  17.680  0.00  0.00    +0.000 C 
ENDBRANCH   1  22
BRANCH  13  23
ATOM     23  N   UNL     1       2.252   6.907  20.614  0.00  0.00    +0.000 N 
ATOM     24  H   UNL     1       2.775   7.163  21.451  0.00  0.00    +0.000 HD
BRANCH  23  25
ATOM     25  C   UNL     1       1.488   5.662  20.646  0.00  0.00    +0.000 C 
ATOM     26  C   UNL     1       1.724   4.556  19.655  0.00  0.00    +0.000 C 
ATOM     27  C   UNL     1       2.178   4.397  21.075  0.00  0.00    +0.000 C 
ENDBRANCH  23  25
ENDBRANCH  13  23
BRANCH  14  28
ATOM     28  C   UNL     1       3.268   7.298  17.882  0.00  0.00    +0.000 C 
ATOM     29  C   UNL     1       4.140   6.634  17.378  0.00  0.00    +0.000 C 
BRANCH  29  30
ATOM     30  C   UNL     1       5.246   5.903  16.811  0.00  0.00    +0.000 A 
ATOM     31  C   UNL     1       6.228   5.283  17.581  0.00  0.00    +0.000 A 
ATOM     32  C   UNL     1       7.226   4.553  16.932  0.00  0.00    +0.000 A 
ATOM     33  C   UNL     1       7.217   4.467  15.544  0.00  0.00    +0.000 A 
ATOM     34  C   UNL     1       6.210   5.127  14.863  0.00  0.00    +0.000 A 
ATOM     35  N   UNL     1       5.228   5.840  15.460  0.00  0.00    +0.000 NA
ENDBRANCH  29  30
ENDBRANCH  14  28
TORSDOF 5
ENDMDL
MODEL 3
REMARK VINA RESULT:      -8.8      2.650     10.344
REMARK  Name = 
REMARK  5 active torsions:
REMARK  status: ('A' for Active; 'I' for Inactive)
REMARK    1  A    between atoms: C_2  and  CA_3
REMARK    2  A    between atoms: C_15  and  N_16
REMARK    3  A    between atoms: N_16  and  C_17
REMARK    4  A    between atoms: C_20  and  C_21
REMARK    5  A    between atoms: C_22  and  C_23
REMARK                            x       y       z     vdW  Elec       q    Type
REMARK                         _______ _______ _______ _____ _____    ______ ____
ROOT
ATOM      1  CA  UNL     1      -4.315  11.740  18.313  0.00  0.00    +0.000 A 
ATOM      2  C   UNL     1      -5.474  12.406  18.672  0.00  0.00    +0.000 A 
ATOM      3  C   UNL     1      -5.471  13.081  19.882  0.00  0.00    +0.000 A 
ATOM      4  C   UNL     1      -4.319  13.060  20.685  0.00  0.00    +0.000 A 
ATOM      5  C   UNL     1      -3.174  12.375  20.231  0.00  0.00    +0.000 A 
ATOM      6  N   UNL     1      -3.175  11.716  19.052  0.00  0.00    +0.000 NA
ATOM      7  N   UNL     1      -1.987  12.364  21.028  0.00  0.00    +0.000 N 
ATOM      8  C   UNL     1      -0.845  11.568  20.808  0.00  0.00    +0.000 C 
ATOM      9  O   UNL     1       0.084  11.555  21.620  0.00  0.00    +0.000 OA
ATOM     10  N   UNL     1      -0.809  10.835  19.644  0.00  0.00    +0.000 N 
ATOM     11  C   UNL     1       0.252   9.992  19.264  0.00  0.00    +0.000 A 
ATOM     12  C   UNL     1       0.772   9.042  20.134  0.00  0.00    +0.000 A 
ATOM     13  C   UNL     1       1.772   8.143  19.701  0.00  0.00    +0.000 A 
ATOM     14  C   UNL     1       2.286   8.283  18.398  0.00  0.00    +0.000 A 
ATOM     15  C   UNL     1       1.700   9.267  17.605  0.00  0.00    +0.000 A 
ATOM     16  N   UNL     1       0.669  10.081  17.984  0.00  0.00    +0.000 NA
ATOM     17  C   UNL     1      -1.938  13.338  22.124  0.00  0.00    +0.000 C 
ATOM     18  C   UNL     1      -3.234  13.376  22.918  0.00  0.00    +0.000 C 
ATOM     19  C   UNL     1      -4.369  13.790  22.001  0.00  0.00    +0.000 C 
ATOM     20  H   UNL     1      -1.321  11.250  18.878  0.00  0.00    +0.000 HD
ENDROOT
BRANCH   1  22
ATOM     21  O   UNL     1      -3.721  11.427  16.035  0.00  0.00    +0.000 OA
ATOM     22  C   UNL     1      -4.252  10.980  17.046  0.00  0.00    +0.000 C 
ENDBRANCH   1  22
BRANCH  13  23
ATOM     23  N   UNL     1       2.187   7.078  20.543  0.00  0.00    +0.000 N 
ATOM     24  H   UNL     1       2.350   7.353  21.510  0.00  0.00    +0.000 HD
BRANCH  23  25
ATOM     25  C   UNL     1       1.785   5.696  20.288  0.00  0.00    +0.000 C 
ATOM     26  C   UNL     1       2.788   4.616  19.995  0.00  0.00    +0.000 C 
ATOM     27  C   UNL     1       2.092   4.648  21.322  0.00  0.00    +0.000 C 
ENDBRANCH  23  25
ENDBRANCH  13  23
BRANCH  14  28
ATOM     28  C   UNL     1       3.377   7.475  17.882  0.00  0.00    +0.000 C 
ATOM     29  C   UNL     1       4.245   6.789  17.405  0.00  0.00    +0.000 C 
BRANCH  29  30
ATOM     30  C   UNL     1       5.238   5.973  16.750  0.00  0.00    +0.000 A 
ATOM     31  C   UNL     1       5.298   5.803  15.369  0.00  0.00    +0.000 A 
ATOM     32  C   UNL     1       6.334   5.034  14.833  0.00  0.00    +0.000 A 
ATOM     33  C   UNL     1       7.270   4.460  15.686  0.00  0.00    +0.000 A 
ATOM     34  C   UNL     1       7.122   4.673  17.045  0.00  0.00    +0.000 A 
ATOM     35  N   UNL     1       6.133   5.412  17.595  0.00  0.00    +0.000 NA
ENDBRANCH  29  30
ENDBRANCH  14  28
TORSDOF 5
ENDMDL
MODEL 4
REMARK VINA RESULT:      -8.7      0.892      1.142
REMARK  Name = 
REMARK  5 active torsions:
REMARK  status: ('A' for Active; 'I' for Inactive)
REMARK    1  A    between atoms: C_2  and  CA_3
REMARK    2  A    between atoms: C_15  and  N_16
REMARK    3  A    between atoms: N_16  and  C_17
REMARK    4  A    between atoms: C_20  and  C_21
REMARK    5  A    between atoms: C_22  and  C_23
REMARK                            x       y       z     vdW  Elec       q    Type
REMARK                         _______ _______ _______ _____ _____    ______ ____
ROOT
ATOM      1  CA  UNL     1       2.288   3.214  19.847  0.00  0.00    +0.000 A 
ATOM      2  C   UNL     1       2.774   2.085  19.212  0.00  0.00    +0.000 A 
ATOM      3  C   UNL     1       3.606   2.277  18.121  0.00  0.00    +0.000 A 
ATOM      4  C   UNL     1       3.914   3.582  17.704  0.00  0.00    +0.000 A 
ATOM      5  C   UNL     1       3.394   4.676  18.424  0.00  0.00    +0.000 A 
ATOM      6  N   UNL     1       2.583   4.491  19.488  0.00  0.00    +0.000 NA
ATOM      7  N   UNL     1       3.718   6.011  18.025  0.00  0.00    +0.000 N 
ATOM      8  C   UNL     1       3.123   7.192  18.512  0.00  0.00    +0.000 C 
ATOM      9  O   UNL     1       3.400   8.289  18.021  0.00  0.00    +0.000 OA
ATOM     10  N   UNL     1       2.249   7.062  19.566  0.00  0.00    +0.000 N 
ATOM     11  C   UNL     1       1.570   8.133  20.177  0.00  0.00    +0.000 A 
ATOM     12  C   UNL     1       0.868   9.069  19.428  0.00  0.00    +0.000 A 
ATOM     13  C   UNL     1       0.116  10.082  20.067  0.00  0.00    +0.000 A 
ATOM     14  C   UNL     1       0.159  10.169  21.471  0.00  0.00    +0.000 A 
ATOM     15  C   UNL     1       0.893   9.184  22.130  0.00  0.00    +0.000 A 
ATOM     16  N   UNL     1       1.548   8.148  21.526  0.00  0.00    +0.000 NA
ATOM     17  C   UNL     1       4.832   6.148  17.080  0.00  0.00    +0.000 C 
ATOM     18  C   UNL     1       4.745   5.148  15.938  0.00  0.00    +0.000 C 
ATOM     19  C   UNL     1       4.806   3.741  16.501  0.00  0.00    +0.000 C 
ATOM     20  H   UNL     1       2.446   6.279  20.174  0.00  0.00    +0.000 HD
ENDROOT
BRANCH   1  22
ATOM     21  O   UNL     1       1.715   2.544  22.051  0.00  0.00    +0.000 OA
ATOM     22  C   UNL     1       1.378   3.087  21.005  0.00  0.00    +0.000 C 
ENDBRANCH   1  22
BRANCH  13  23
ATOM     23  N   UNL     1      -0.720  10.937  19.303  0.00  0.00    +0.000 N 
ATOM     24  H   UNL     1      -1.656  11.054  19.688  0.00  0.00    +0.000 HD
BRANCH  23  25
ATOM     25  C   UNL     1      -0.175  12.029  18.499  0.00  0.00    +0.000 C 
ATOM     26  C   UNL     1      -0.564  13.462  18.735  0.00  0.00    +0.000 C 
ATOM     27  C   UNL     1       0.799  12.981  19.135  0.00  0.00    +0.000 C 
ENDBRANCH  23  25
ENDBRANCH  13  23
BRANCH  14  28
ATOM     28  C   UNL     1      -0.499  11.222  22.222  0.00  0.00    +0.000 C 
ATOM     29  C   UNL     1      -1.071  12.118  22.792  0.00  0.00    +0.000 C 
BRANCH  29  30
ATOM     30  C   UNL     1      -1.812  13.197  23.396  0.00  0.00    +0.000 A 
ATOM     31  C   UNL     1      -3.202  13.214  23.487  0.00  0.00    +0.000 A 
ATOM     32  C   UNL     1      -3.817  14.283  24.142  0.00  0.00    +0.000 A 
ATOM     33  C   UNL     1      -3.033  15.298  24.680  0.00  0.00    +0.000 A 
ATOM     34  C   UNL     1      -1.661  15.202  24.529  0.00  0.00    +0.000 A 
ATOM     35  N   UNL     1      -1.034  14.181  23.903  0.00  0.00    +0.000 NA
ENDBRANCH  29  30
ENDBRANCH  14  28
TORSDOF 5
ENDMDL
MODEL 5
REMARK VINA RESULT:      -8.7      1.508      1.616
REMARK  Name = 
REMARK  5 active torsions:
REMARK  status: ('A' for Active; 'I' for Inactive)
REMARK    1  A    between atoms: C_2  and  CA_3
REMARK    2  A    between atoms: C_15  and  N_16
REMARK    3  A    between atoms: N_16  and  C_17
REMARK    4  A    between atoms: C_20  and  C_21
REMARK    5  A    between atoms: C_22  and  C_23
REMARK                            x       y       z     vdW  Elec       q    Type
REMARK                         _______ _______ _______ _____ _____    ______ ____
ROOT
ATOM      1  CA  UNL     1       2.483   3.930  19.747  0.00  0.00    +0.000 A 
ATOM      2  C   UNL     1       3.139   2.768  19.377  0.00  0.00    +0.000 A 
ATOM      3  C   UNL     1       4.073   2.862  18.359  0.00  0.00    +0.000 A 
ATOM      4  C   UNL     1       4.312   4.103  17.748  0.00  0.00    +0.000 A 
ATOM      5  C   UNL     1       3.615   5.241  18.204  0.00  0.00    +0.000 A 
ATOM      6  N   UNL     1       2.704   5.152  19.196  0.00  0.00    +0.000 NA
ATOM      7  N   UNL     1       3.865   6.516  17.606  0.00  0.00    +0.000 N 
ATOM      8  C   UNL     1       3.115   7.691  17.810  0.00  0.00    +0.000 C 
ATOM      9  O   UNL     1       3.349   8.713  17.160  0.00  0.00    +0.000 OA
ATOM     10  N   UNL     1       2.137   7.648  18.777  0.00  0.00    +0.000 N 
ATOM     11  C   UNL     1       1.298   8.727  19.115  0.00  0.00    +0.000 A 
ATOM     12  C   UNL     1       0.610   9.442  18.142  0.00  0.00    +0.000 A 
ATOM     13  C   UNL     1      -0.298  10.461  18.510  0.00  0.00    +0.000 A 
ATOM     14  C   UNL     1      -0.430  10.788  19.872  0.00  0.00    +0.000 A 
ATOM     15  C   UNL     1       0.305  10.013  20.768  0.00  0.00    +0.000 A 
ATOM     16  N   UNL     1       1.116   8.967  20.430  0.00  0.00    +0.000 NA
ATOM     17  C   UNL     1       5.066   6.611  16.769  0.00  0.00    +0.000 C 
ATOM     18  C   UNL     1       5.203   5.430  15.822  0.00  0.00    +0.000 C 
ATOM     19  C   UNL     1       5.322   4.152  16.632  0.00  0.00    +0.000 C 
ATOM     20  H   UNL     1       2.330   7.004  19.533  0.00  0.00    +0.000 HD
ENDROOT
BRANCH   1  22
ATOM     21  O   UNL     1       1.118   2.867  21.374  0.00  0.00    +0.000 OA
ATOM     22  C   UNL     1       1.458   3.903  20.811  0.00  0.00    +0.000 C 
ENDBRANCH   1  22
BRANCH  13  23
ATOM     23  N   UNL     1      -1.112  11.079  17.524  0.00  0.00    +0.000 N 
ATOM     24  H   UNL     1      -0.637  11.807  16.992  0.00  0.00    +0.000 HD
BRANCH  23  25
ATOM     25  C   UNL     1      -2.206  10.364  16.871  0.00  0.00    +0.000 C 
ATOM     26  C   UNL     1      -3.327   9.738  17.653  0.00  0.00    +0.000 C 
ATOM     27  C   UNL     1      -3.575  10.986  16.860  0.00  0.00    +0.000 C 
ENDBRANCH  23  25
ENDBRANCH  13  23
BRANCH  14  28
ATOM     28  C   UNL     1      -1.263  11.876  20.352  0.00  0.00    +0.000 C 
ATOM     29  C   UNL     1      -2.006  12.744  20.735  0.00  0.00    +0.000 C 
BRANCH  29  30
ATOM     30  C   UNL     1      -2.964  13.718  21.197  0.00  0.00    +0.000 A 
ATOM     31  C   UNL     1      -4.297  13.730  20.792  0.00  0.00    +0.000 A 
ATOM     32  C   UNL     1      -5.155  14.685  21.343  0.00  0.00    +0.000 A 
ATOM     33  C   UNL     1      -4.660  15.594  22.271  0.00  0.00    +0.000 A 
ATOM     34  C   UNL     1      -3.319  15.514  22.601  0.00  0.00    +0.000 A 
ATOM     35  N   UNL     1      -2.463  14.602  22.089  0.00  0.00    +0.000 NA
ENDBRANCH  29  30
ENDBRANCH  14  28
TORSDOF 5
ENDMDL
MODEL 6
REMARK VINA RESULT:      -8.7      0.981      1.102
REMARK  Name = 
REMARK  5 active torsions:
REMARK  status: ('A' for Active; 'I' for Inactive)
REMARK    1  A    between atoms: C_2  and  CA_3
REMARK    2  A    between atoms: C_15  and  N_16
REMARK    3  A    between atoms: N_16  and  C_17
REMARK    4  A    between atoms: C_20  and  C_21
REMARK    5  A    between atoms: C_22  and  C_23
REMARK                            x       y       z     vdW  Elec       q    Type
REMARK                         _______ _______ _______ _____ _____    ______ ____
ROOT
ATOM      1  CA  UNL     1       2.538   3.661  20.010  0.00  0.00    +0.000 A 
ATOM      2  C   UNL     1       3.141   2.514  19.525  0.00  0.00    +0.000 A 
ATOM      3  C   UNL     1       3.995   2.653  18.444  0.00  0.00    +0.000 A 
ATOM      4  C   UNL     1       4.210   3.925  17.888  0.00  0.00    +0.000 A 
ATOM      5  C   UNL     1       3.572   5.044  18.461  0.00  0.00    +0.000 A 
ATOM      6  N   UNL     1       2.738   4.910  19.514  0.00  0.00    +0.000 NA
ATOM      7  N   UNL     1       3.799   6.348  17.920  0.00  0.00    +0.000 N 
ATOM      8  C   UNL     1       3.089   7.520  18.248  0.00  0.00    +0.000 C 
ATOM      9  O   UNL     1       3.291   8.574  17.641  0.00  0.00    +0.000 OA
ATOM     10  N   UNL     1       2.188   7.434  19.285  0.00  0.00    +0.000 N 
ATOM     11  C   UNL     1       1.398   8.503  19.747  0.00  0.00    +0.000 A 
ATOM     12  C   UNL     1       0.651   9.284  18.874  0.00  0.00    +0.000 A 
ATOM     13  C   UNL     1      -0.208  10.292  19.369  0.00  0.00    +0.000 A 
ATOM     14  C   UNL     1      -0.228  10.541  20.754  0.00  0.00    +0.000 A 
ATOM     15  C   UNL     1       0.560   9.705  21.544  0.00  0.00    +0.000 A 
ATOM     16  N   UNL     1       1.323   8.669  21.084  0.00  0.00    +0.000 NA
ATOM     17  C   UNL     1       4.934   6.475  16.998  0.00  0.00    +0.000 C 
ATOM     18  C   UNL     1       4.975   5.349  15.978  0.00  0.00    +0.000 C 
ATOM     19  C   UNL     1       5.131   4.025  16.701  0.00  0.00    +0.000 C 
ATOM     20  H   UNL     1       2.426   6.745  19.985  0.00  0.00    +0.000 HD
ENDROOT
BRANCH   1  22
ATOM     21  O   UNL     1       1.727   2.777  22.060  0.00  0.00    +0.000 OA
ATOM     22  C   UNL     1       1.597   3.587  21.148  0.00  0.00    +0.000 C 
ENDBRANCH   1  22
BRANCH  13  23
ATOM     23  N   UNL     1      -1.083  10.979  18.487  0.00  0.00    +0.000 N 
ATOM     24  H   UNL     1      -0.842  11.959  18.343  0.00  0.00    +0.000 HD
BRANCH  23  25
ATOM     25  C   UNL     1      -1.786  10.287  17.408  0.00  0.00    +0.000 C 
ATOM     26  C   UNL     1      -3.173   9.736  17.587  0.00  0.00    +0.000 C 
ATOM     27  C   UNL     1      -2.958  10.964  16.755  0.00  0.00    +0.000 C 
ENDBRANCH  23  25
ENDBRANCH  13  23
BRANCH  14  28
ATOM     28  C   UNL     1      -1.001  11.611  21.359  0.00  0.00    +0.000 C 
ATOM     29  C   UNL     1      -1.694  12.464  21.853  0.00  0.00    +0.000 C 
BRANCH  29  30
ATOM     30  C   UNL     1      -2.591  13.416  22.459  0.00  0.00    +0.000 A 
ATOM     31  C   UNL     1      -2.713  13.581  23.837  0.00  0.00    +0.000 A 
ATOM     32  C   UNL     1      -3.573  14.572  24.319  0.00  0.00    +0.000 A 
ATOM     33  C   UNL     1      -4.280  15.361  23.418  0.00  0.00    +0.000 A 
ATOM     34  C   UNL     1      -4.104  15.114  22.069  0.00  0.00    +0.000 A 
ATOM     35  N   UNL     1      -3.281  14.166  21.569  0.00  0.00    +0.000 NA
ENDBRANCH  29  30
ENDBRANCH  14  28
TORSDOF 5
ENDMDL
MODEL 7
REMARK VINA RESULT:      -8.4      2.502     10.302
REMARK  Name = 
REMARK  5 active torsions:
REMARK  status: ('A' for Active; 'I' for Inactive)
REMARK    1  A    between atoms: C_2  and  CA_3
REMARK    2  A    between atoms: C_15  and  N_16
REMARK    3  A    between atoms: N_16  and  C_17
REMARK    4  A    between atoms: C_20  and  C_21
REMARK    5  A    between atoms: C_22  and  C_23
REMARK                            x       y       z     vdW  Elec       q    Type
REMARK                         _______ _______ _______ _____ _____    ______ ____
ROOT
ATOM      1  CA  UNL     1      -3.466  11.900  18.875  0.00  0.00    +0.000 A 
ATOM      2  C   UNL     1      -4.544  12.599  19.390  0.00  0.00    +0.000 A 
ATOM      3  C   UNL     1      -4.431  13.075  20.686  0.00  0.00    +0.000 A 
ATOM      4  C   UNL     1      -3.257  12.833  21.416  0.00  0.00    +0.000 A 
ATOM      5  C   UNL     1      -2.198  12.131  20.803  0.00  0.00    +0.000 A 
ATOM      6  N   UNL     1      -2.305  11.666  19.540  0.00  0.00    +0.000 NA
ATOM      7  N   UNL     1      -0.986  11.896  21.526  0.00  0.00    +0.000 N 
ATOM      8  C   UNL     1       0.068  11.050  21.130  0.00  0.00    +0.000 C 
ATOM      9  O   UNL     1       1.022  10.832  21.880  0.00  0.00    +0.000 OA
ATOM     10  N   UNL     1      -0.009  10.506  19.868  0.00  0.00    +0.000 N 
ATOM     11  C   UNL     1       0.954   9.644  19.309  0.00  0.00    +0.000 A 
ATOM     12  C   UNL     1       1.418   8.530  19.998  0.00  0.00    +0.000 A 
ATOM     13  C   UNL     1       2.314   7.628  19.382  0.00  0.00    +0.000 A 
ATOM     14  C   UNL     1       2.787   7.923  18.090  0.00  0.00    +0.000 A 
ATOM     15  C   UNL     1       2.264   9.065  17.486  0.00  0.00    +0.000 A 
ATOM     16  N   UNL     1       1.328   9.895  18.037  0.00  0.00    +0.000 NA
ATOM     17  C   UNL     1      -0.806  12.681  22.753  0.00  0.00    +0.000 C 
ATOM     18  C   UNL     1      -2.061  12.706  23.610  0.00  0.00    +0.000 C 
ATOM     19  C   UNL     1      -3.188  13.352  22.827  0.00  0.00    +0.000 C 
ATOM     20  H   UNL     1      -0.511  11.076  19.201  0.00  0.00    +0.000 HD
ENDROOT
BRANCH   1  22
ATOM     21  O   UNL     1      -2.560  10.800  16.975  0.00  0.00    +0.000 OA
ATOM     22  C   UNL     1      -3.523  11.343  17.506  0.00  0.00    +0.000 C 
ENDBRANCH   1  22
BRANCH  13  23
ATOM     23  N   UNL     1       2.661   6.414  20.031  0.00  0.00    +0.000 N 
ATOM     24  H   UNL     1       3.634   6.365  20.328  0.00  0.00    +0.000 HD
BRANCH  23  25
ATOM     25  C   UNL     1       1.680   5.640  20.790  0.00  0.00    +0.000 C 
ATOM     26  C   UNL     1       1.163   4.314  20.306  0.00  0.00    +0.000 C 
ATOM     27  C   UNL     1       2.120   4.368  21.459  0.00  0.00    +0.000 C 
ENDBRANCH  23  25
ENDBRANCH  13  23
BRANCH  14  28
ATOM     28  C   UNL     1       3.778   7.116  17.402  0.00  0.00    +0.000 C 
ATOM     29  C   UNL     1       4.559   6.437  16.784  0.00  0.00    +0.000 C 
BRANCH  29  30
ATOM     30  C   UNL     1       5.439   5.640  15.966  0.00  0.00    +0.000 A 
ATOM     31  C   UNL     1       5.004   4.558  15.203  0.00  0.00    +0.000 A 
ATOM     32  C   UNL     1       5.932   3.887  14.403  0.00  0.00    +0.000 A 
ATOM     33  C   UNL     1       7.256   4.310  14.391  0.00  0.00    +0.000 A 
ATOM     34  C   UNL     1       7.598   5.385  15.191  0.00  0.00    +0.000 A 
ATOM     35  N   UNL     1       6.726   6.057  15.975  0.00  0.00    +0.000 NA
ENDBRANCH  29  30
ENDBRANCH  14  28
TORSDOF 5
ENDMDL
MODEL 8
REMARK VINA RESULT:      -8.3      1.250      1.581
REMARK  Name = 
REMARK  5 active torsions:
REMARK  status: ('A' for Active; 'I' for Inactive)
REMARK    1  A    between atoms: C_2  and  CA_3
REMARK    2  A    between atoms: C_15  and  N_16
REMARK    3  A    between atoms: N_16  and  C_17
REMARK    4  A    between atoms: C_20  and  C_21
REMARK    5  A    between atoms: C_22  and  C_23
REMARK                            x       y       z     vdW  Elec       q    Type
REMARK                         _______ _______ _______ _____ _____    ______ ____
ROOT
ATOM      1  CA  UNL     1       2.035   3.290  18.661  0.00  0.00    +0.000 A 
ATOM      2  C   UNL     1       2.516   2.190  17.973  0.00  0.00    +0.000 A 
ATOM      3  C   UNL     1       3.564   2.400  17.091  0.00  0.00    +0.000 A 
ATOM      4  C   UNL     1       4.084   3.693  16.926  0.00  0.00    +0.000 A 
ATOM      5  C   UNL     1       3.548   4.753  17.686  0.00  0.00    +0.000 A 
ATOM      6  N   UNL     1       2.527   4.552  18.545  0.00  0.00    +0.000 NA
ATOM      7  N   UNL     1       4.083   6.072  17.545  0.00  0.00    +0.000 N 
ATOM      8  C   UNL     1       3.531   7.255  18.075  0.00  0.00    +0.000 C 
ATOM      9  O   UNL     1       4.013   8.357  17.803  0.00  0.00    +0.000 OA
ATOM     10  N   UNL     1       2.456   7.116  18.923  0.00  0.00    +0.000 N 
ATOM     11  C   UNL     1       1.785   8.187  19.544  0.00  0.00    +0.000 A 
ATOM     12  C   UNL     1       1.348   9.289  18.818  0.00  0.00    +0.000 A 
ATOM     13  C   UNL     1       0.595  10.307  19.444  0.00  0.00    +0.000 A 
ATOM     14  C   UNL     1       0.366  10.222  20.830  0.00  0.00    +0.000 A 
ATOM     15  C   UNL     1       0.847   9.079  21.467  0.00  0.00    +0.000 A 
ATOM     16  N   UNL     1       1.497   8.045  20.854  0.00  0.00    +0.000 NA
ATOM     17  C   UNL     1       5.371   6.174  16.849  0.00  0.00    +0.000 C 
ATOM     18  C   UNL     1       5.409   5.336  15.581  0.00  0.00    +0.000 C 
ATOM     19  C   UNL     1       5.208   3.877  15.941  0.00  0.00    +0.000 C 
ATOM     20  H   UNL     1       2.445   6.248  19.440  0.00  0.00    +0.000 HD
ENDROOT
BRANCH   1  22
ATOM     21  O   UNL     1       0.582   4.035  20.385  0.00  0.00    +0.000 OA
ATOM     22  C   UNL     1       0.905   3.147  19.603  0.00  0.00    +0.000 C 
ENDBRANCH   1  22
BRANCH  13  23
ATOM     23  N   UNL     1       0.021  11.348  18.668  0.00  0.00    +0.000 N 
ATOM     24  H   UNL     1      -0.978  11.237  18.499  0.00  0.00    +0.000 HD
BRANCH  23  25
ATOM     25  C   UNL     1       0.561  12.706  18.683  0.00  0.00    +0.000 C 
ATOM     26  C   UNL     1       1.831  13.050  19.410  0.00  0.00    +0.000 C 
ATOM     27  C   UNL     1       1.818  12.996  17.912  0.00  0.00    +0.000 C 
ENDBRANCH  23  25
ENDBRANCH  13  23
BRANCH  14  28
ATOM     28  C   UNL     1      -0.314  11.256  21.589  0.00  0.00    +0.000 C 
ATOM     29  C   UNL     1      -0.897  12.070  22.261  0.00  0.00    +0.000 C 
BRANCH  29  30
ATOM     30  C   UNL     1      -1.591  12.981  23.137  0.00  0.00    +0.000 A 
ATOM     31  C   UNL     1      -2.935  12.840  23.477  0.00  0.00    +0.000 A 
ATOM     32  C   UNL     1      -3.496  13.748  24.378  0.00  0.00    +0.000 A 
ATOM     33  C   UNL     1      -2.706  14.763  24.906  0.00  0.00    +0.000 A 
ATOM     34  C   UNL     1      -1.386  14.832  24.499  0.00  0.00    +0.000 A 
ATOM     35  N   UNL     1      -0.811  13.969  23.631  0.00  0.00    +0.000 NA
ENDBRANCH  29  30
ENDBRANCH  14  28
TORSDOF 5
ENDMDL
MODEL 9
REMARK VINA RESULT:      -7.7      3.247     10.969
REMARK  Name = 
REMARK  5 active torsions:
REMARK  status: ('A' for Active; 'I' for Inactive)
REMARK    1  A    between atoms: C_2  and  CA_3
REMARK    2  A    between atoms: C_15  and  N_16
REMARK    3  A    between atoms: N_16  and  C_17
REMARK    4  A    between atoms: C_20  and  C_21
REMARK    5  A    between atoms: C_22  and  C_23
REMARK                            x       y       z     vdW  Elec       q    Type
REMARK                         _______ _______ _______ _____ _____    ______ ____
ROOT
ATOM      1  CA  UNL     1      -2.253  15.988  24.643  0.00  0.00    +0.000 A 
ATOM      2  C   UNL     1      -2.983  17.019  25.207  0.00  0.00    +0.000 A 
ATOM      3  C   UNL     1      -4.347  17.038  24.967  0.00  0.00    +0.000 A 
ATOM      4  C   UNL     1      -4.926  16.035  24.173  0.00  0.00    +0.000 A 
ATOM      5  C   UNL     1      -4.110  15.008  23.657  0.00  0.00    +0.000 A 
ATOM      6  N   UNL     1      -2.780  14.988  23.889  0.00  0.00    +0.000 NA
ATOM      7  N   UNL     1      -4.689  13.966  22.866  0.00  0.00    +0.000 N 
ATOM      8  C   UNL     1      -3.986  12.997  22.123  0.00  0.00    +0.000 C 
ATOM      9  O   UNL     1      -4.583  12.210  21.385  0.00  0.00    +0.000 OA
ATOM     10  N   UNL     1      -2.620  12.959  22.282  0.00  0.00    +0.000 N 
ATOM     11  C   UNL     1      -1.764  12.057  21.622  0.00  0.00    +0.000 A 
ATOM     12  C   UNL     1      -1.828  11.869  20.247  0.00  0.00    +0.000 A 
ATOM     13  C   UNL     1      -0.898  11.029  19.594  0.00  0.00    +0.000 A 
ATOM     14  C   UNL     1       0.041  10.327  20.374  0.00  0.00    +0.000 A 
ATOM     15  C   UNL     1       0.021  10.582  21.744  0.00  0.00    +0.000 A 
ATOM     16  N   UNL     1      -0.814  11.462  22.373  0.00  0.00    +0.000 NA
ATOM     17  C   UNL     1      -6.152  13.864  22.908  0.00  0.00    +0.000 C 
ATOM     18  C   UNL     1      -6.829  15.218  22.768  0.00  0.00    +0.000 C 
ATOM     19  C   UNL     1      -6.409  16.107  23.923  0.00  0.00    +0.000 C 
ATOM     20  H   UNL     1      -2.300  13.266  23.190  0.00  0.00    +0.000 HD
ENDROOT
BRANCH   1  22
ATOM     21  O   UNL     1      -0.280  15.707  25.934  0.00  0.00    +0.000 OA
ATOM     22  C   UNL     1      -0.789  15.915  24.838  0.00  0.00    +0.000 C 
ENDBRANCH   1  22
BRANCH  13  23
ATOM     23  N   UNL     1      -0.870  10.963  18.176  0.00  0.00    +0.000 N 
ATOM     24  H   UNL     1       0.007  11.276  17.763  0.00  0.00    +0.000 HD
BRANCH  23  25
ATOM     25  C   UNL     1      -1.655   9.977  17.437  0.00  0.00    +0.000 C 
ATOM     26  C   UNL     1      -3.153   9.906  17.547  0.00  0.00    +0.000 C 
ATOM     27  C   UNL     1      -2.519  10.442  16.298  0.00  0.00    +0.000 C 
ENDBRANCH  23  25
ENDBRANCH  13  23
BRANCH  14  28
ATOM     28  C   UNL     1       0.980   9.370  19.817  0.00  0.00    +0.000 C 
ATOM     29  C   UNL     1       1.714   8.530  19.361  0.00  0.00    +0.000 C 
BRANCH  29  30
ATOM     30  C   UNL     1       2.516   7.472  18.797  0.00  0.00    +0.000 A 
ATOM     31  C   UNL     1       2.497   6.163  19.272  0.00  0.00    +0.000 A 
ATOM     32  C   UNL     1       3.272   5.202  18.618  0.00  0.00    +0.000 A 
ATOM     33  C   UNL     1       4.040   5.575  17.520  0.00  0.00    +0.000 A 
ATOM     34  C   UNL     1       4.006   6.901  17.130  0.00  0.00    +0.000 A 
ATOM     35  N   UNL     1       3.266   7.855  17.739  0.00  0.00    +0.000 NA
ENDBRANCH  29  30
ENDBRANCH  14  28
TORSDOF 5
ENDMDL
