MODEL 1
REMARK VINA RESULT:      -7.1      0.000      0.000
REMARK  Name = 
REMARK  6 active torsions:
REMARK  status: ('A' for Active; 'I' for Inactive)
REMARK    1  A    between atoms: C_5  and  C_6
REMARK    2  A    between atoms: C_6  and  C_7
REMARK    3  A    between atoms: C_7  and  C_8
REMARK    4  A    between atoms: C_8  and  O_10
REMARK    5  A    between atoms: O_10  and  C_11
REMARK    6  A    between atoms: C_11  and  C_12
REMARK                            x       y       z     vdW  Elec       q    Type
REMARK                         _______ _______ _______ _____ _____    ______ ____
ROOT
ATOM      1  C   UNL     1       6.865   5.361  19.436  0.00  0.00    +0.000 C 
ATOM      2  O   UNL     1       7.655   5.428  20.360  0.00  0.00    +0.000 OA
ENDROOT
BRANCH   1   3
ATOM      3  C   UNL     1       7.068   6.076  18.121  0.00  0.00    +0.000 C 
BRANCH   3   4
ATOM      4  C   UNL     1       7.492   5.090  17.035  0.00  0.00    +0.000 C 
BRANCH   4   9
ATOM      5  O   UNL     1       7.538   4.713  12.390  0.00  0.00    +0.000 OA
ATOM      6  C   UNL     1       7.038   4.686  13.500  0.00  0.00    +0.000 C 
ATOM      7  C   UNL     1       5.779   3.966  13.902  0.00  0.00    +0.000 C 
ATOM      8  C   UNL     1       5.870   3.962  15.428  0.00  0.00    +0.000 C 
ATOM      9  C   UNL     1       6.670   5.223  15.754  0.00  0.00    +0.000 C 
ATOM     10  N   UNL     1       7.511   5.365  14.600  0.00  0.00    +0.000 N 
ATOM     11  H   UNL     1       8.283   6.016  14.498  0.00  0.00    +0.000 HD
ENDBRANCH   4   9
ENDBRANCH   3   4
ENDBRANCH   1   3
BRANCH   1  12
ATOM     12  O   UNL     1       5.711   4.634  19.413  0.00  0.00    +0.000 OA
BRANCH  12  13
ATOM     13  C   UNL     1       4.527   5.436  19.372  0.00  0.00    +0.000 C 
BRANCH  13  14
ATOM     14  C   UNL     1       3.325   4.585  19.686  0.00  0.00    +0.000 A 
ATOM     15  C   UNL     1       2.118   5.170  20.089  0.00  0.00    +0.000 A 
ATOM     16  C   UNL     1       1.026   4.373  20.432  0.00  0.00    +0.000 A 
ATOM     17  C   UNL     1       1.122   2.985  20.351  0.00  0.00    +0.000 A 
ATOM     18  C   UNL     1       2.305   2.394  19.910  0.00  0.00    +0.000 A 
ATOM     19  C   UNL     1       3.402   3.189  19.578  0.00  0.00    +0.000 A 
ENDBRANCH  13  14
ENDBRANCH  12  13
ENDBRANCH   1  12
TORSDOF 6
ENDMDL
MODEL 2
REMARK VINA RESULT:      -7.0      3.535      5.992
REMARK  Name = 
REMARK  6 active torsions:
REMARK  status: ('A' for Active; 'I' for Inactive)
REMARK    1  A    between atoms: C_5  and  C_6
REMARK    2  A    between atoms: C_6  and  C_7
REMARK    3  A    between atoms: C_7  and  C_8
REMARK    4  A    between atoms: C_8  and  O_10
REMARK    5  A    between atoms: O_10  and  C_11
REMARK    6  A    between atoms: C_11  and  C_12
REMARK                            x       y       z     vdW  Elec       q    Type
REMARK                         _______ _______ _______ _____ _____    ______ ____
ROOT
ATOM      1  C   UNL     1       4.561   4.469  18.386  0.00  0.00    +0.000 C 
ATOM      2  O   UNL     1       5.510   3.909  18.902  0.00  0.00    +0.000 OA
ENDROOT
BRANCH   1   3
ATOM      3  C   UNL     1       3.578   3.765  17.480  0.00  0.00    +0.000 C 
BRANCH   3   4
ATOM      4  C   UNL     1       3.464   2.291  17.856  0.00  0.00    +0.000 C 
BRANCH   4   9
ATOM      5  O   UNL     1       2.346   3.159  22.297  0.00  0.00    +0.000 OA
ATOM      6  C   UNL     1       2.124   2.902  21.128  0.00  0.00    +0.000 C 
ATOM      7  C   UNL     1       0.833   3.124  20.387  0.00  0.00    +0.000 C 
ATOM      8  C   UNL     1       1.261   2.993  18.925  0.00  0.00    +0.000 C 
ATOM      9  C   UNL     1       2.452   2.035  18.972  0.00  0.00    +0.000 C 
ATOM     10  N   UNL     1       3.013   2.300  20.266  0.00  0.00    +0.000 N 
ATOM     11  H   UNL     1       3.899   1.952  20.616  0.00  0.00    +0.000 HD
ENDBRANCH   4   9
ENDBRANCH   3   4
ENDBRANCH   1   3
BRANCH   1  12
ATOM     12  O   UNL     1       4.211   5.778  18.548  0.00  0.00    +0.000 OA
BRANCH  12  13
ATOM     13  C   UNL     1       3.249   5.992  19.585  0.00  0.00    +0.000 C 
BRANCH  13  14
ATOM     14  C   UNL     1       2.470   7.249  19.305  0.00  0.00    +0.000 A 
ATOM     15  C   UNL     1       2.461   7.818  18.025  0.00  0.00    +0.000 A 
ATOM     16  C   UNL     1       1.782   9.013  17.788  0.00  0.00    +0.000 A 
ATOM     17  C   UNL     1       1.085   9.638  18.820  0.00  0.00    +0.000 A 
ATOM     18  C   UNL     1       1.052   9.058  20.088  0.00  0.00    +0.000 A 
ATOM     19  C   UNL     1       1.740   7.869  20.330  0.00  0.00    +0.000 A 
ENDBRANCH  13  14
ENDBRANCH  12  13
ENDBRANCH   1  12
TORSDOF 6
ENDMDL
MODEL 3
REMARK VINA RESULT:      -6.9      3.060      6.742
REMARK  Name = 
REMARK  6 active torsions:
REMARK  status: ('A' for Active; 'I' for Inactive)
REMARK    1  A    between atoms: C_5  and  C_6
REMARK    2  A    between atoms: C_6  and  C_7
REMARK    3  A    between atoms: C_7  and  C_8
REMARK    4  A    between atoms: C_8  and  O_10
REMARK    5  A    between atoms: O_10  and  C_11
REMARK    6  A    between atoms: C_11  and  C_12
REMARK                            x       y       z     vdW  Elec       q    Type
REMARK                         _______ _______ _______ _____ _____    ______ ____
ROOT
ATOM      1  C   UNL     1       3.804   3.774  17.177  0.00  0.00    +0.000 C 
ATOM      2  O   UNL     1       4.093   2.722  17.717  0.00  0.00    +0.000 OA
ENDROOT
BRANCH   1   3
ATOM      3  C   UNL     1       2.558   4.561  17.513  0.00  0.00    +0.000 C 
BRANCH   3   4
ATOM      4  C   UNL     1       1.428   3.624  17.928  0.00  0.00    +0.000 C 
BRANCH   4   9
ATOM      5  O   UNL     1       3.112   2.050  21.979  0.00  0.00    +0.000 OA
ATOM      6  C   UNL     1       2.508   2.818  21.253  0.00  0.00    +0.000 C 
ATOM      7  C   UNL     1       2.183   4.260  21.539  0.00  0.00    +0.000 C 
ATOM      8  C   UNL     1       1.788   4.792  20.162  0.00  0.00    +0.000 C 
ATOM      9  C   UNL     1       1.221   3.570  19.440  0.00  0.00    +0.000 C 
ATOM     10  N   UNL     1       1.953   2.490  20.037  0.00  0.00    +0.000 N 
ATOM     11  H   UNL     1       1.954   1.524  19.726  0.00  0.00    +0.000 HD
ENDBRANCH   4   9
ENDBRANCH   3   4
ENDBRANCH   1   3
BRANCH   1  12
ATOM     12  O   UNL     1       4.538   4.421  16.227  0.00  0.00    +0.000 OA
BRANCH  12  13
ATOM     13  C   UNL     1       5.929   4.087  16.249  0.00  0.00    +0.000 C 
BRANCH  13  14
ATOM     14  C   UNL     1       6.687   5.115  17.046  0.00  0.00    +0.000 A 
ATOM     15  C   UNL     1       7.372   4.755  18.214  0.00  0.00    +0.000 A 
ATOM     16  C   UNL     1       8.025   5.723  18.976  0.00  0.00    +0.000 A 
ATOM     17  C   UNL     1       8.021   7.055  18.566  0.00  0.00    +0.000 A 
ATOM     18  C   UNL     1       7.379   7.417  17.384  0.00  0.00    +0.000 A 
ATOM     19  C   UNL     1       6.715   6.453  16.626  0.00  0.00    +0.000 A 
ENDBRANCH  13  14
ENDBRANCH  12  13
ENDBRANCH   1  12
TORSDOF 6
ENDMDL
MODEL 4
REMARK VINA RESULT:      -6.9      3.135      6.539
REMARK  Name = 
REMARK  6 active torsions:
REMARK  status: ('A' for Active; 'I' for Inactive)
REMARK    1  A    between atoms: C_5  and  C_6
REMARK    2  A    between atoms: C_6  and  C_7
REMARK    3  A    between atoms: C_7  and  C_8
REMARK    4  A    between atoms: C_8  and  O_10
REMARK    5  A    between atoms: O_10  and  C_11
REMARK    6  A    between atoms: C_11  and  C_12
REMARK                            x       y       z     vdW  Elec       q    Type
REMARK                         _______ _______ _______ _____ _____    ______ ____
ROOT
ATOM      1  C   UNL     1       4.415   3.435  17.240  0.00  0.00    +0.000 C 
ATOM      2  O   UNL     1       5.178   3.400  16.293  0.00  0.00    +0.000 OA
ENDROOT
BRANCH   1   3
ATOM      3  C   UNL     1       2.912   3.384  17.092  0.00  0.00    +0.000 C 
BRANCH   3   4
ATOM      4  C   UNL     1       2.352   2.124  17.746  0.00  0.00    +0.000 C 
BRANCH   4   9
ATOM      5  O   UNL     1       2.408   3.105  22.301  0.00  0.00    +0.000 OA
ATOM      6  C   UNL     1       1.964   3.126  21.169  0.00  0.00    +0.000 C 
ATOM      7  C   UNL     1       0.990   4.124  20.602  0.00  0.00    +0.000 C 
ATOM      8  C   UNL     1       1.112   3.891  19.096  0.00  0.00    +0.000 C 
ATOM      9  C   UNL     1       1.501   2.418  18.980  0.00  0.00    +0.000 C 
ATOM     10  N   UNL     1       2.233   2.193  20.193  0.00  0.00    +0.000 N 
ATOM     11  H   UNL     1       2.771   1.363  20.423  0.00  0.00    +0.000 HD
ENDBRANCH   4   9
ENDBRANCH   3   4
ENDBRANCH   1   3
BRANCH   1  12
ATOM     12  O   UNL     1       4.765   3.496  18.556  0.00  0.00    +0.000 OA
BRANCH  12  13
ATOM     13  C   UNL     1       4.631   4.802  19.127  0.00  0.00    +0.000 C 
BRANCH  13  14
ATOM     14  C   UNL     1       5.763   5.679  18.664  0.00  0.00    +0.000 A 
ATOM     15  C   UNL     1       7.033   5.580  19.249  0.00  0.00    +0.000 A 
ATOM     16  C   UNL     1       8.061   6.434  18.852  0.00  0.00    +0.000 A 
ATOM     17  C   UNL     1       7.840   7.378  17.851  0.00  0.00    +0.000 A 
ATOM     18  C   UNL     1       6.593   7.456  17.233  0.00  0.00    +0.000 A 
ATOM     19  C   UNL     1       5.559   6.611  17.636  0.00  0.00    +0.000 A 
ENDBRANCH  13  14
ENDBRANCH  12  13
ENDBRANCH   1  12
TORSDOF 6
ENDMDL
MODEL 5
REMARK VINA RESULT:      -6.9      2.588      6.880
REMARK  Name = 
REMARK  6 active torsions:
REMARK  status: ('A' for Active; 'I' for Inactive)
REMARK    1  A    between atoms: C_5  and  C_6
REMARK    2  A    between atoms: C_6  and  C_7
REMARK    3  A    between atoms: C_7  and  C_8
REMARK    4  A    between atoms: C_8  and  O_10
REMARK    5  A    between atoms: O_10  and  C_11
REMARK    6  A    between atoms: C_11  and  C_12
REMARK                            x       y       z     vdW  Elec       q    Type
REMARK                         _______ _______ _______ _____ _____    ______ ____
ROOT
ATOM      1  C   UNL     1       5.465   4.284  17.987  0.00  0.00    +0.000 C 
ATOM      2  O   UNL     1       5.780   4.067  19.143  0.00  0.00    +0.000 OA
ENDROOT
BRANCH   1   3
ATOM      3  C   UNL     1       4.030   4.336  17.518  0.00  0.00    +0.000 C 
BRANCH   3   4
ATOM      4  C   UNL     1       3.453   2.928  17.397  0.00  0.00    +0.000 C 
BRANCH   4   9
ATOM      5  O   UNL     1       2.649   2.785  21.985  0.00  0.00    +0.000 OA
ATOM      6  C   UNL     1       2.352   2.907  20.811  0.00  0.00    +0.000 C 
ATOM      7  C   UNL     1       1.132   3.593  20.258  0.00  0.00    +0.000 C 
ATOM      8  C   UNL     1       1.491   3.773  18.783  0.00  0.00    +0.000 C 
ATOM      9  C   UNL     1       2.431   2.605  18.485  0.00  0.00    +0.000 C 
ATOM     10  N   UNL     1       3.063   2.384  19.755  0.00  0.00    +0.000 N 
ATOM     11  H   UNL     1       3.853   1.772  19.931  0.00  0.00    +0.000 HD
ENDBRANCH   4   9
ENDBRANCH   3   4
ENDBRANCH   1   3
BRANCH   1  12
ATOM     12  O   UNL     1       6.317   4.536  16.953  0.00  0.00    +0.000 OA
BRANCH  12  13
ATOM     13  C   UNL     1       5.763   5.389  15.946  0.00  0.00    +0.000 C 
BRANCH  13  14
ATOM     14  C   UNL     1       6.144   4.881  14.582  0.00  0.00    +0.000 A 
ATOM     15  C   UNL     1       5.325   3.972  13.899  0.00  0.00    +0.000 A 
ATOM     16  C   UNL     1       5.713   3.464  12.660  0.00  0.00    +0.000 A 
ATOM     17  C   UNL     1       6.910   3.878  12.078  0.00  0.00    +0.000 A 
ATOM     18  C   UNL     1       7.712   4.814  12.729  0.00  0.00    +0.000 A 
ATOM     19  C   UNL     1       7.332   5.315  13.974  0.00  0.00    +0.000 A 
ENDBRANCH  13  14
ENDBRANCH  12  13
ENDBRANCH   1  12
TORSDOF 6
ENDMDL
MODEL 6
REMARK VINA RESULT:      -6.8      0.968      1.402
REMARK  Name = 
REMARK  6 active torsions:
REMARK  status: ('A' for Active; 'I' for Inactive)
REMARK    1  A    between atoms: C_5  and  C_6
REMARK    2  A    between atoms: C_6  and  C_7
REMARK    3  A    between atoms: C_7  and  C_8
REMARK    4  A    between atoms: C_8  and  O_10
REMARK    5  A    between atoms: O_10  and  C_11
REMARK    6  A    between atoms: C_11  and  C_12
REMARK                            x       y       z     vdW  Elec       q    Type
REMARK                         _______ _______ _______ _____ _____    ______ ____
ROOT
ATOM      1  C   UNL     1       5.744   5.172  18.820  0.00  0.00    +0.000 C 
ATOM      2  O   UNL     1       5.908   4.198  19.531  0.00  0.00    +0.000 OA
ENDROOT
BRANCH   1   3
ATOM      3  C   UNL     1       6.881   5.908  18.151  0.00  0.00    +0.000 C 
BRANCH   3   4
ATOM      4  C   UNL     1       7.472   5.069  17.022  0.00  0.00    +0.000 C 
BRANCH   4   9
ATOM      5  O   UNL     1       7.685   4.900  12.369  0.00  0.00    +0.000 OA
ATOM      6  C   UNL     1       7.160   4.773  13.460  0.00  0.00    +0.000 C 
ATOM      7  C   UNL     1       5.973   3.910  13.793  0.00  0.00    +0.000 C 
ATOM      8  C   UNL     1       6.022   3.849  15.319  0.00  0.00    +0.000 C 
ATOM      9  C   UNL     1       6.677   5.171  15.722  0.00  0.00    +0.000 C 
ATOM     10  N   UNL     1       7.529   5.449  14.601  0.00  0.00    +0.000 N 
ATOM     11  H   UNL     1       8.231   6.180  14.550  0.00  0.00    +0.000 HD
ENDBRANCH   4   9
ENDBRANCH   3   4
ENDBRANCH   1   3
BRANCH   1  12
ATOM     12  O   UNL     1       4.547   5.736  18.489  0.00  0.00    +0.000 OA
BRANCH  12  13
ATOM     13  C   UNL     1       3.606   5.765  19.567  0.00  0.00    +0.000 C 
BRANCH  13  14
ATOM     14  C   UNL     1       2.622   4.636  19.414  0.00  0.00    +0.000 A 
ATOM     15  C   UNL     1       2.560   3.894  18.228  0.00  0.00    +0.000 A 
ATOM     16  C   UNL     1       1.608   2.886  18.074  0.00  0.00    +0.000 A 
ATOM     17  C   UNL     1       0.726   2.593  19.113  0.00  0.00    +0.000 A 
ATOM     18  C   UNL     1       0.808   3.297  20.313  0.00  0.00    +0.000 A 
ATOM     19  C   UNL     1       1.751   4.313  20.465  0.00  0.00    +0.000 A 
ENDBRANCH  13  14
ENDBRANCH  12  13
ENDBRANCH   1  12
TORSDOF 6
ENDMDL
MODEL 7
REMARK VINA RESULT:      -6.8      1.612      2.072
REMARK  Name = 
REMARK  6 active torsions:
REMARK  status: ('A' for Active; 'I' for Inactive)
REMARK    1  A    between atoms: C_5  and  C_6
REMARK    2  A    between atoms: C_6  and  C_7
REMARK    3  A    between atoms: C_7  and  C_8
REMARK    4  A    between atoms: C_8  and  O_10
REMARK    5  A    between atoms: O_10  and  C_11
REMARK    6  A    between atoms: C_11  and  C_12
REMARK                            x       y       z     vdW  Elec       q    Type
REMARK                         _______ _______ _______ _____ _____    ______ ____
ROOT
ATOM      1  C   UNL     1       6.375   6.603  17.798  0.00  0.00    +0.000 C 
ATOM      2  O   UNL     1       6.411   7.608  17.113  0.00  0.00    +0.000 OA
ENDROOT
BRANCH   1   3
ATOM      3  C   UNL     1       7.562   5.686  17.984  0.00  0.00    +0.000 C 
BRANCH   3   4
ATOM      4  C   UNL     1       7.510   4.534  16.985  0.00  0.00    +0.000 C 
BRANCH   4   9
ATOM      5  O   UNL     1       7.823   5.108  12.371  0.00  0.00    +0.000 OA
ATOM      6  C   UNL     1       7.268   4.834  13.418  0.00  0.00    +0.000 C 
ATOM      7  C   UNL     1       6.034   3.989  13.588  0.00  0.00    +0.000 C 
ATOM      8  C   UNL     1       6.044   3.680  15.085  0.00  0.00    +0.000 C 
ATOM      9  C   UNL     1       6.751   4.885  15.707  0.00  0.00    +0.000 C 
ATOM     10  N   UNL     1       7.641   5.297  14.659  0.00  0.00    +0.000 N 
ATOM     11  H   UNL     1       8.378   5.990  14.739  0.00  0.00    +0.000 HD
ENDBRANCH   4   9
ENDBRANCH   3   4
ENDBRANCH   1   3
BRANCH   1  12
ATOM     12  O   UNL     1       5.306   6.154  18.516  0.00  0.00    +0.000 OA
BRANCH  12  13
ATOM     13  C   UNL     1       4.076   6.166  17.785  0.00  0.00    +0.000 C 
BRANCH  13  14
ATOM     14  C   UNL     1       3.385   4.837  17.930  0.00  0.00    +0.000 A 
ATOM     15  C   UNL     1       4.123   3.657  18.089  0.00  0.00    +0.000 A 
ATOM     16  C   UNL     1       3.476   2.425  18.167  0.00  0.00    +0.000 A 
ATOM     17  C   UNL     1       2.085   2.360  18.114  0.00  0.00    +0.000 A 
ATOM     18  C   UNL     1       1.338   3.532  18.000  0.00  0.00    +0.000 A 
ATOM     19  C   UNL     1       1.984   4.765  17.909  0.00  0.00    +0.000 A 
ENDBRANCH  13  14
ENDBRANCH  12  13
ENDBRANCH   1  12
TORSDOF 6
ENDMDL
MODEL 8
REMARK VINA RESULT:      -6.8      2.904      5.804
REMARK  Name = 
REMARK  6 active torsions:
REMARK  status: ('A' for Active; 'I' for Inactive)
REMARK    1  A    between atoms: C_5  and  C_6
REMARK    2  A    between atoms: C_6  and  C_7
REMARK    3  A    between atoms: C_7  and  C_8
REMARK    4  A    between atoms: C_8  and  O_10
REMARK    5  A    between atoms: O_10  and  C_11
REMARK    6  A    between atoms: C_11  and  C_12
REMARK                            x       y       z     vdW  Elec       q    Type
REMARK                         _______ _______ _______ _____ _____    ______ ____
ROOT
ATOM      1  C   UNL     1       2.356   6.209  20.021  0.00  0.00    +0.000 C 
ATOM      2  O   UNL     1       1.844   7.286  20.259  0.00  0.00    +0.000 OA
ENDROOT
BRANCH   1   3
ATOM      3  C   UNL     1       2.206   5.005  20.922  0.00  0.00    +0.000 C 
BRANCH   3   4
ATOM      4  C   UNL     1       0.959   4.208  20.548  0.00  0.00    +0.000 C 
BRANCH   4   9
ATOM      5  O   UNL     1       2.601   2.880  16.394  0.00  0.00    +0.000 OA
ATOM      6  C   UNL     1       2.364   2.761  17.582  0.00  0.00    +0.000 C 
ATOM      7  C   UNL     1       3.053   1.836  18.549  0.00  0.00    +0.000 C 
ATOM      8  C   UNL     1       2.627   2.394  19.906  0.00  0.00    +0.000 C 
ATOM      9  C   UNL     1       1.259   3.021  19.636  0.00  0.00    +0.000 C 
ATOM     10  N   UNL     1       1.368   3.423  18.263  0.00  0.00    +0.000 N 
ATOM     11  H   UNL     1       0.705   3.999  17.754  0.00  0.00    +0.000 HD
ENDBRANCH   4   9
ENDBRANCH   3   4
ENDBRANCH   1   3
BRANCH   1  12
ATOM     12  O   UNL     1       3.108   5.897  18.927  0.00  0.00    +0.000 OA
BRANCH  12  13
ATOM     13  C   UNL     1       4.443   5.489  19.243  0.00  0.00    +0.000 C 
BRANCH  13  14
ATOM     14  C   UNL     1       5.224   5.275  17.974  0.00  0.00    +0.000 A 
ATOM     15  C   UNL     1       6.499   4.696  18.005  0.00  0.00    +0.000 A 
ATOM     16  C   UNL     1       7.238   4.553  16.832  0.00  0.00    +0.000 A 
ATOM     17  C   UNL     1       6.702   4.963  15.613  0.00  0.00    +0.000 A 
ATOM     18  C   UNL     1       5.418   5.502  15.565  0.00  0.00    +0.000 A 
ATOM     19  C   UNL     1       4.680   5.657  16.739  0.00  0.00    +0.000 A 
ENDBRANCH  13  14
ENDBRANCH  12  13
ENDBRANCH   1  12
TORSDOF 6
ENDMDL
MODEL 9
REMARK VINA RESULT:      -6.7      2.433      3.453
REMARK  Name = 
REMARK  6 active torsions:
REMARK  status: ('A' for Active; 'I' for Inactive)
REMARK    1  A    between atoms: C_5  and  C_6
REMARK    2  A    between atoms: C_6  and  C_7
REMARK    3  A    between atoms: C_7  and  C_8
REMARK    4  A    between atoms: C_8  and  O_10
REMARK    5  A    between atoms: O_10  and  C_11
REMARK    6  A    between atoms: C_11  and  C_12
REMARK                            x       y       z     vdW  Elec       q    Type
REMARK                         _______ _______ _______ _____ _____    ______ ____
ROOT
ATOM      1  C   UNL     1       3.933   6.123  17.208  0.00  0.00    +0.000 C 
ATOM      2  O   UNL     1       4.437   7.112  16.710  0.00  0.00    +0.000 OA
ENDROOT
BRANCH   1   3
ATOM      3  C   UNL     1       4.653   4.800  17.330  0.00  0.00    +0.000 C 
BRANCH   3   4
ATOM      4  C   UNL     1       5.837   4.745  16.369  0.00  0.00    +0.000 C 
BRANCH   4   9
ATOM      5  O   UNL     1       8.150   8.534  17.786  0.00  0.00    +0.000 OA
ATOM      6  C   UNL     1       7.843   7.357  17.792  0.00  0.00    +0.000 C 
ATOM      7  C   UNL     1       8.025   6.384  18.926  0.00  0.00    +0.000 C 
ATOM      8  C   UNL     1       7.128   5.217  18.513  0.00  0.00    +0.000 C 
ATOM      9  C   UNL     1       7.132   5.271  16.985  0.00  0.00    +0.000 C 
ATOM     10  N   UNL     1       7.312   6.670  16.723  0.00  0.00    +0.000 N 
ATOM     11  H   UNL     1       7.234   7.125  15.819  0.00  0.00    +0.000 HD
ENDBRANCH   4   9
ENDBRANCH   3   4
ENDBRANCH   1   3
BRANCH   1  12
ATOM     12  O   UNL     1       2.684   6.040  17.751  0.00  0.00    +0.000 OA
BRANCH  12  13
ATOM     13  C   UNL     1       2.666   6.177  19.175  0.00  0.00    +0.000 C 
BRANCH  13  14
ATOM     14  C   UNL     1       2.191   4.894  19.804  0.00  0.00    +0.000 A 
ATOM     15  C   UNL     1       1.409   3.986  19.078  0.00  0.00    +0.000 A 
ATOM     16  C   UNL     1       0.926   2.827  19.685  0.00  0.00    +0.000 A 
ATOM     17  C   UNL     1       1.241   2.551  21.014  0.00  0.00    +0.000 A 
ATOM     18  C   UNL     1       2.054   3.426  21.733  0.00  0.00    +0.000 A 
ATOM     19  C   UNL     1       2.528   4.592  21.132  0.00  0.00    +0.000 A 
ENDBRANCH  13  14
ENDBRANCH  12  13
ENDBRANCH   1  12
TORSDOF 6
ENDMDL
