MODEL 1
REMARK VINA RESULT:      -8.6      0.000      0.000
REMARK  Name = 
REMARK  8 active torsions:
REMARK  status: ('A' for Active; 'I' for Inactive)
REMARK    1  A    between atoms: C_1  and  C_2
REMARK    2  A    between atoms: C_3  and  C_4
REMARK    3  A    between atoms: C_4  and  C_5
REMARK    4  A    between atoms: C_5  and  O_7
REMARK    5  A    between atoms: C_9  and  C_10
REMARK    6  A    between atoms: C_13  and  S_14
REMARK    7  A    between atoms: S_14  and  C_15
REMARK    8  A    between atoms: N_20  and  C_21
REMARK                            x       y       z     vdW  Elec       q    Type
REMARK                         _______ _______ _______ _____ _____    ______ ____
ROOT
ATOM      1  C   UNL     1       4.543   3.073  16.811  0.00  0.00    +0.000 C 
ATOM      2  C   UNL     1       4.284   4.537  16.998  0.00  0.00    +0.000 A 
ATOM      3  C   UNL     1       4.772   5.572  16.215  0.00  0.00    +0.000 A 
ATOM      4  C   UNL     1       4.193   6.763  16.711  0.00  0.00    +0.000 A 
ATOM      5  C   UNL     1       3.357   6.464  17.780  0.00  0.00    +0.000 A 
ATOM      6  N   UNL     1       3.399   5.065  17.951  0.00  0.00    +0.000 N 
ENDROOT
BRANCH   6   7
ATOM      7  C   UNL     1       2.627   4.283  18.876  0.00  0.00    +0.000 A 
ATOM      8  C   UNL     1       1.316   3.892  18.559  0.00  0.00    +0.000 A 
ATOM      9  C   UNL     1       0.565   3.122  19.453  0.00  0.00    +0.000 A 
ATOM     10  C   UNL     1       1.136   2.684  20.642  0.00  0.00    +0.000 A 
ATOM     11  C   UNL     1       2.445   3.044  20.941  0.00  0.00    +0.000 A 
ATOM     12  F   UNL     1       3.016   2.576  22.059  0.00  0.00    +0.000 F 
ATOM     13  C   UNL     1       3.180   3.865  20.092  0.00  0.00    +0.000 A 
ENDBRANCH   6   7
BRANCH   5  14
ATOM     14  C   UNL     1       2.619   7.446  18.613  0.00  0.00    +0.000 A 
ATOM     15  C   UNL     1       2.189   8.667  18.065  0.00  0.00    +0.000 A 
ATOM     16  C   UNL     1       1.424   9.571  18.818  0.00  0.00    +0.000 A 
ATOM     17  C   UNL     1       1.053   9.238  20.120  0.00  0.00    +0.000 A 
ATOM     18  C   UNL     1       1.507   8.056  20.701  0.00  0.00    +0.000 A 
ATOM     19  C   UNL     1       2.324   7.198  19.963  0.00  0.00    +0.000 A 
BRANCH  17  20
ATOM     20  S   UNL     1       0.055  10.346  21.085  0.00  0.00    +0.000 S 
ATOM     21  C   UNL     1      -0.426   9.360  22.479  0.00  0.00    +0.000 C 
ATOM     22  O   UNL     1       0.915  11.411  21.556  0.00  0.00    +0.000 OA
ATOM     23  O   UNL     1      -1.137  10.647  20.307  0.00  0.00    +0.000 OA
ENDBRANCH  17  20
ENDBRANCH   5  14
BRANCH   3  24
ATOM     24  C   UNL     1       5.704   5.469  15.037  0.00  0.00    +0.000 C 
BRANCH  24  25
ATOM     25  C   UNL     1       7.167   5.255  15.378  0.00  0.00    +0.000 C 
ATOM     26  O   UNL     1       7.538   4.972  16.513  0.00  0.00    +0.000 OA
BRANCH  25  27
ATOM     27  O   UNL     1       8.061   5.394  14.374  0.00  0.00    +0.000 OA
ATOM     28  H   UNL     1       7.714   5.853  13.587  0.00  0.00    +0.000 HD
ENDBRANCH  25  27
ENDBRANCH  24  25
ENDBRANCH   3  24
TORSDOF 6
ENDMDL
MODEL 2
REMARK VINA RESULT:      -8.6      0.503      1.189
REMARK  Name = 
REMARK  8 active torsions:
REMARK  status: ('A' for Active; 'I' for Inactive)
REMARK    1  A    between atoms: C_1  and  C_2
REMARK    2  A    between atoms: C_3  and  C_4
REMARK    3  A    between atoms: C_4  and  C_5
REMARK    4  A    between atoms: C_5  and  O_7
REMARK    5  A    between atoms: C_9  and  C_10
REMARK    6  A    between atoms: C_13  and  S_14
REMARK    7  A    between atoms: S_14  and  C_15
REMARK    8  A    between atoms: N_20  and  C_21
REMARK                            x       y       z     vdW  Elec       q    Type
REMARK                         _______ _______ _______ _____ _____    ______ ____
ROOT
ATOM      1  C   UNL     1       4.549   3.389  17.073  0.00  0.00    +0.000 C 
ATOM      2  C   UNL     1       4.211   4.839  17.246  0.00  0.00    +0.000 A 
ATOM      3  C   UNL     1       4.699   5.899  16.499  0.00  0.00    +0.000 A 
ATOM      4  C   UNL     1       4.035   7.060  16.959  0.00  0.00    +0.000 A 
ATOM      5  C   UNL     1       3.147   6.717  17.972  0.00  0.00    +0.000 A 
ATOM      6  N   UNL     1       3.242   5.320  18.141  0.00  0.00    +0.000 N 
ENDROOT
BRANCH   6   7
ATOM      7  C   UNL     1       2.450   4.499  19.013  0.00  0.00    +0.000 A 
ATOM      8  C   UNL     1       1.327   3.813  18.521  0.00  0.00    +0.000 A 
ATOM      9  C   UNL     1       0.558   3.004  19.363  0.00  0.00    +0.000 A 
ATOM     10  C   UNL     1       0.939   2.822  20.688  0.00  0.00    +0.000 A 
ATOM     11  C   UNL     1       2.069   3.475  21.167  0.00  0.00    +0.000 A 
ATOM     12  F   UNL     1       2.469   3.257  22.427  0.00  0.00    +0.000 F 
ATOM     13  C   UNL     1       2.803   4.335  20.357  0.00  0.00    +0.000 A 
ENDBRANCH   6   7
BRANCH   5  14
ATOM     14  C   UNL     1       2.312   7.659  18.757  0.00  0.00    +0.000 A 
ATOM     15  C   UNL     1       2.067   7.429  20.123  0.00  0.00    +0.000 A 
ATOM     16  C   UNL     1       1.345   8.349  20.896  0.00  0.00    +0.000 A 
ATOM     17  C   UNL     1       0.891   9.531  20.310  0.00  0.00    +0.000 A 
ATOM     18  C   UNL     1       1.079   9.759  18.950  0.00  0.00    +0.000 A 
ATOM     19  C   UNL     1       1.741   8.803  18.177  0.00  0.00    +0.000 A 
BRANCH  17  20
ATOM     20  S   UNL     1       0.004  10.733  21.273  0.00  0.00    +0.000 S 
ATOM     21  C   UNL     1      -0.519   9.815  22.697  0.00  0.00    +0.000 C 
ATOM     22  O   UNL     1       0.956  11.736  21.702  0.00  0.00    +0.000 OA
ATOM     23  O   UNL     1      -1.177  11.110  20.514  0.00  0.00    +0.000 OA
ENDBRANCH  17  20
ENDBRANCH   5  14
BRANCH   3  24
ATOM     24  C   UNL     1       5.710   5.846  15.384  0.00  0.00    +0.000 C 
BRANCH  24  25
ATOM     25  C   UNL     1       7.105   5.406  15.786  0.00  0.00    +0.000 C 
ATOM     26  O   UNL     1       7.838   4.785  15.023  0.00  0.00    +0.000 OA
BRANCH  25  27
ATOM     27  O   UNL     1       7.517   5.724  17.034  0.00  0.00    +0.000 OA
ATOM     28  H   UNL     1       7.829   4.964  17.560  0.00  0.00    +0.000 HD
ENDBRANCH  25  27
ENDBRANCH  24  25
ENDBRANCH   3  24
TORSDOF 6
ENDMDL
MODEL 3
REMARK VINA RESULT:      -8.6      4.144      5.972
REMARK  Name = 
REMARK  8 active torsions:
REMARK  status: ('A' for Active; 'I' for Inactive)
REMARK    1  A    between atoms: C_1  and  C_2
REMARK    2  A    between atoms: C_3  and  C_4
REMARK    3  A    between atoms: C_4  and  C_5
REMARK    4  A    between atoms: C_5  and  O_7
REMARK    5  A    between atoms: C_9  and  C_10
REMARK    6  A    between atoms: C_13  and  S_14
REMARK    7  A    between atoms: S_14  and  C_15
REMARK    8  A    between atoms: N_20  and  C_21
REMARK                            x       y       z     vdW  Elec       q    Type
REMARK                         _______ _______ _______ _____ _____    ______ ____
ROOT
ATOM      1  C   UNL     1       8.243   5.526  13.972  0.00  0.00    +0.000 C 
ATOM      2  C   UNL     1       6.962   4.864  14.382  0.00  0.00    +0.000 A 
ATOM      3  C   UNL     1       6.191   4.004  13.616  0.00  0.00    +0.000 A 
ATOM      4  C   UNL     1       5.134   3.560  14.444  0.00  0.00    +0.000 A 
ATOM      5  C   UNL     1       5.256   4.136  15.703  0.00  0.00    +0.000 A 
ATOM      6  N   UNL     1       6.413   4.941  15.672  0.00  0.00    +0.000 N 
ENDROOT
BRANCH   6   7
ATOM      7  C   UNL     1       6.995   5.663  16.769  0.00  0.00    +0.000 A 
ATOM      8  C   UNL     1       7.521   4.977  17.876  0.00  0.00    +0.000 A 
ATOM      9  C   UNL     1       8.097   5.675  18.941  0.00  0.00    +0.000 A 
ATOM     10  C   UNL     1       8.209   7.060  18.884  0.00  0.00    +0.000 A 
ATOM     11  C   UNL     1       7.717   7.737  17.775  0.00  0.00    +0.000 A 
ATOM     12  F   UNL     1       7.874   9.065  17.692  0.00  0.00    +0.000 F 
ATOM     13  C   UNL     1       7.082   7.060  16.739  0.00  0.00    +0.000 A 
ENDBRANCH   6   7
BRANCH   5  14
ATOM     14  C   UNL     1       4.308   3.975  16.833  0.00  0.00    +0.000 A 
ATOM     15  C   UNL     1       3.590   5.079  17.326  0.00  0.00    +0.000 A 
ATOM     16  C   UNL     1       2.635   4.929  18.341  0.00  0.00    +0.000 A 
ATOM     17  C   UNL     1       2.364   3.657  18.846  0.00  0.00    +0.000 A 
ATOM     18  C   UNL     1       3.095   2.556  18.408  0.00  0.00    +0.000 A 
ATOM     19  C   UNL     1       4.091   2.731  17.446  0.00  0.00    +0.000 A 
BRANCH  17  20
ATOM     20  S   UNL     1       1.133   3.430  20.108  0.00  0.00    +0.000 S 
ATOM     21  C   UNL     1       2.018   2.603  21.403  0.00  0.00    +0.000 C 
ATOM     22  O   UNL     1       0.749   4.742  20.584  0.00  0.00    +0.000 OA
ATOM     23  O   UNL     1       0.135   2.513  19.580  0.00  0.00    +0.000 OA
ENDBRANCH  17  20
ENDBRANCH   5  14
BRANCH   3  24
ATOM     24  C   UNL     1       6.433   3.578  12.192  0.00  0.00    +0.000 C 
BRANCH  24  25
ATOM     25  C   UNL     1       5.494   2.512  11.660  0.00  0.00    +0.000 C 
ATOM     26  O   UNL     1       4.366   2.779  11.255  0.00  0.00    +0.000 OA
BRANCH  25  27
ATOM     27  O   UNL     1       5.947   1.238  11.650  0.00  0.00    +0.000 OA
ATOM     28  H   UNL     1       6.239   0.909  12.520  0.00  0.00    +0.000 HD
ENDBRANCH  25  27
ENDBRANCH  24  25
ENDBRANCH   3  24
TORSDOF 6
ENDMDL
MODEL 4
REMARK VINA RESULT:      -8.6      0.908      1.527
REMARK  Name = 
REMARK  8 active torsions:
REMARK  status: ('A' for Active; 'I' for Inactive)
REMARK    1  A    between atoms: C_1  and  C_2
REMARK    2  A    between atoms: C_3  and  C_4
REMARK    3  A    between atoms: C_4  and  C_5
REMARK    4  A    between atoms: C_5  and  O_7
REMARK    5  A    between atoms: C_9  and  C_10
REMARK    6  A    between atoms: C_13  and  S_14
REMARK    7  A    between atoms: S_14  and  C_15
REMARK    8  A    between atoms: N_20  and  C_21
REMARK                            x       y       z     vdW  Elec       q    Type
REMARK                         _______ _______ _______ _____ _____    ______ ____
ROOT
ATOM      1  C   UNL     1       4.532   3.375  17.109  0.00  0.00    +0.000 C 
ATOM      2  C   UNL     1       4.210   4.834  17.229  0.00  0.00    +0.000 A 
ATOM      3  C   UNL     1       4.718   5.862  16.449  0.00  0.00    +0.000 A 
ATOM      4  C   UNL     1       4.064   7.046  16.863  0.00  0.00    +0.000 A 
ATOM      5  C   UNL     1       3.163   6.749  17.879  0.00  0.00    +0.000 A 
ATOM      6  N   UNL     1       3.240   5.358  18.098  0.00  0.00    +0.000 N 
ENDROOT
BRANCH   6   7
ATOM      7  C   UNL     1       2.430   4.578  18.991  0.00  0.00    +0.000 A 
ATOM      8  C   UNL     1       1.327   3.856  18.507  0.00  0.00    +0.000 A 
ATOM      9  C   UNL     1       0.542   3.086  19.370  0.00  0.00    +0.000 A 
ATOM     10  C   UNL     1       0.887   2.980  20.713  0.00  0.00    +0.000 A 
ATOM     11  C   UNL     1       1.998   3.668  21.186  0.00  0.00    +0.000 A 
ATOM     12  F   UNL     1       2.365   3.523  22.466  0.00  0.00    +0.000 F 
ATOM     13  C   UNL     1       2.748   4.491  20.351  0.00  0.00    +0.000 A 
ENDBRANCH   6   7
BRANCH   5  14
ATOM     14  C   UNL     1       2.334   7.728  18.624  0.00  0.00    +0.000 A 
ATOM     15  C   UNL     1       2.063   7.541  19.991  0.00  0.00    +0.000 A 
ATOM     16  C   UNL     1       1.345   8.497  20.726  0.00  0.00    +0.000 A 
ATOM     17  C   UNL     1       0.924   9.669  20.100  0.00  0.00    +0.000 A 
ATOM     18  C   UNL     1       1.138   9.856  18.737  0.00  0.00    +0.000 A 
ATOM     19  C   UNL     1       1.794   8.866  18.002  0.00  0.00    +0.000 A 
BRANCH  17  20
ATOM     20  S   UNL     1       0.044  10.914  21.013  0.00  0.00    +0.000 S 
ATOM     21  C   UNL     1       1.013  12.377  20.754  0.00  0.00    +0.000 C 
ATOM     22  O   UNL     1      -1.240  11.100  20.373  0.00  0.00    +0.000 OA
ATOM     23  O   UNL     1       0.126  10.558  22.421  0.00  0.00    +0.000 OA
ENDBRANCH  17  20
ENDBRANCH   5  14
BRANCH   3  24
ATOM     24  C   UNL     1       5.737   5.758  15.346  0.00  0.00    +0.000 C 
BRANCH  24  25
ATOM     25  C   UNL     1       7.174   5.579  15.797  0.00  0.00    +0.000 C 
ATOM     26  O   UNL     1       7.837   4.593  15.488  0.00  0.00    +0.000 OA
BRANCH  25  27
ATOM     27  O   UNL     1       7.705   6.555  16.567  0.00  0.00    +0.000 OA
ATOM     28  H   UNL     1       8.625   6.390  16.847  0.00  0.00    +0.000 HD
ENDBRANCH  25  27
ENDBRANCH  24  25
ENDBRANCH   3  24
TORSDOF 6
ENDMDL
MODEL 5
REMARK VINA RESULT:      -8.5      0.881      1.233
REMARK  Name = 
REMARK  8 active torsions:
REMARK  status: ('A' for Active; 'I' for Inactive)
REMARK    1  A    between atoms: C_1  and  C_2
REMARK    2  A    between atoms: C_3  and  C_4
REMARK    3  A    between atoms: C_4  and  C_5
REMARK    4  A    between atoms: C_5  and  O_7
REMARK    5  A    between atoms: C_9  and  C_10
REMARK    6  A    between atoms: C_13  and  S_14
REMARK    7  A    between atoms: S_14  and  C_15
REMARK    8  A    between atoms: N_20  and  C_21
REMARK                            x       y       z     vdW  Elec       q    Type
REMARK                         _______ _______ _______ _____ _____    ______ ____
ROOT
ATOM      1  C   UNL     1       4.410   2.442  17.242  0.00  0.00    +0.000 C 
ATOM      2  C   UNL     1       4.275   3.935  17.209  0.00  0.00    +0.000 A 
ATOM      3  C   UNL     1       4.885   4.803  16.316  0.00  0.00    +0.000 A 
ATOM      4  C   UNL     1       4.394   6.096  16.608  0.00  0.00    +0.000 A 
ATOM      5  C   UNL     1       3.490   6.024  17.662  0.00  0.00    +0.000 A 
ATOM      6  N   UNL     1       3.400   4.665  18.029  0.00  0.00    +0.000 N 
ENDROOT
BRANCH   6   7
ATOM      7  C   UNL     1       2.524   4.090  19.011  0.00  0.00    +0.000 A 
ATOM      8  C   UNL     1       1.286   3.547  18.632  0.00  0.00    +0.000 A 
ATOM      9  C   UNL     1       0.435   2.976  19.583  0.00  0.00    +0.000 A 
ATOM     10  C   UNL     1       0.838   2.889  20.911  0.00  0.00    +0.000 A 
ATOM     11  C   UNL     1       2.076   3.398  21.281  0.00  0.00    +0.000 A 
ATOM     12  F   UNL     1       2.489   3.265  22.549  0.00  0.00    +0.000 F 
ATOM     13  C   UNL     1       2.904   4.028  20.357  0.00  0.00    +0.000 A 
ENDBRANCH   6   7
BRANCH   5  14
ATOM     14  C   UNL     1       2.808   7.172  18.308  0.00  0.00    +0.000 A 
ATOM     15  C   UNL     1       2.483   8.321  17.565  0.00  0.00    +0.000 A 
ATOM     16  C   UNL     1       1.771   9.382  18.142  0.00  0.00    +0.000 A 
ATOM     17  C   UNL     1       1.344   9.282  19.466  0.00  0.00    +0.000 A 
ATOM     18  C   UNL     1       1.694   8.176  20.237  0.00  0.00    +0.000 A 
ATOM     19  C   UNL     1       2.462   7.158  19.669  0.00  0.00    +0.000 A 
BRANCH  17  20
ATOM     20  S   UNL     1       0.408  10.594  20.214  0.00  0.00    +0.000 S 
ATOM     21  C   UNL     1       1.007  12.047  19.394  0.00  0.00    +0.000 C 
ATOM     22  O   UNL     1      -0.979  10.404  19.848  0.00  0.00    +0.000 OA
ATOM     23  O   UNL     1       0.802  10.665  21.612  0.00  0.00    +0.000 OA
ENDBRANCH  17  20
ENDBRANCH   5  14
BRANCH   3  24
ATOM     24  C   UNL     1       5.853   4.456  15.217  0.00  0.00    +0.000 C 
BRANCH  24  25
ATOM     25  C   UNL     1       7.296   4.853  15.467  0.00  0.00    +0.000 C 
ATOM     26  O   UNL     1       7.900   4.517  16.481  0.00  0.00    +0.000 OA
BRANCH  25  27
ATOM     27  O   UNL     1       7.901   5.606  14.521  0.00  0.00    +0.000 OA
ATOM     28  H   UNL     1       8.294   5.095  13.790  0.00  0.00    +0.000 HD
ENDBRANCH  25  27
ENDBRANCH  24  25
ENDBRANCH   3  24
TORSDOF 6
ENDMDL
MODEL 6
REMARK VINA RESULT:      -8.5      3.849      5.777
REMARK  Name = 
REMARK  8 active torsions:
REMARK  status: ('A' for Active; 'I' for Inactive)
REMARK    1  A    between atoms: C_1  and  C_2
REMARK    2  A    between atoms: C_3  and  C_4
REMARK    3  A    between atoms: C_4  and  C_5
REMARK    4  A    between atoms: C_5  and  O_7
REMARK    5  A    between atoms: C_9  and  C_10
REMARK    6  A    between atoms: C_13  and  S_14
REMARK    7  A    between atoms: S_14  and  C_15
REMARK    8  A    between atoms: N_20  and  C_21
REMARK                            x       y       z     vdW  Elec       q    Type
REMARK                         _______ _______ _______ _____ _____    ______ ____
ROOT
ATOM      1  C   UNL     1       8.312   5.504  13.879  0.00  0.00    +0.000 C 
ATOM      2  C   UNL     1       7.017   4.889  14.316  0.00  0.00    +0.000 A 
ATOM      3  C   UNL     1       6.224   4.017  13.585  0.00  0.00    +0.000 A 
ATOM      4  C   UNL     1       5.159   3.630  14.430  0.00  0.00    +0.000 A 
ATOM      5  C   UNL     1       5.298   4.251  15.666  0.00  0.00    +0.000 A 
ATOM      6  N   UNL     1       6.473   5.028  15.603  0.00  0.00    +0.000 N 
ENDROOT
BRANCH   6   7
ATOM      7  C   UNL     1       7.073   5.777  16.670  0.00  0.00    +0.000 A 
ATOM      8  C   UNL     1       7.147   7.178  16.605  0.00  0.00    +0.000 A 
ATOM      9  C   UNL     1       7.721   7.913  17.648  0.00  0.00    +0.000 A 
ATOM     10  C   UNL     1       8.170   7.261  18.790  0.00  0.00    +0.000 A 
ATOM     11  C   UNL     1       8.069   5.877  18.869  0.00  0.00    +0.000 A 
ATOM     12  F   UNL     1       8.450   5.252  19.991  0.00  0.00    +0.000 F 
ATOM     13  C   UNL     1       7.561   5.129  17.811  0.00  0.00    +0.000 A 
ENDBRANCH   6   7
BRANCH   5  14
ATOM     14  C   UNL     1       4.349   4.156  16.803  0.00  0.00    +0.000 A 
ATOM     15  C   UNL     1       4.082   2.916  17.409  0.00  0.00    +0.000 A 
ATOM     16  C   UNL     1       3.248   2.821  18.532  0.00  0.00    +0.000 A 
ATOM     17  C   UNL     1       2.700   3.981  19.080  0.00  0.00    +0.000 A 
ATOM     18  C   UNL     1       2.910   5.214  18.470  0.00  0.00    +0.000 A 
ATOM     19  C   UNL     1       3.688   5.285  17.312  0.00  0.00    +0.000 A 
BRANCH  17  20
ATOM     20  S   UNL     1       1.668   3.897  20.524  0.00  0.00    +0.000 S 
ATOM     21  C   UNL     1       2.512   2.738  21.567  0.00  0.00    +0.000 C 
ATOM     22  O   UNL     1       1.705   5.195  21.163  0.00  0.00    +0.000 OA
ATOM     23  O   UNL     1       0.402   3.307  20.119  0.00  0.00    +0.000 OA
ENDBRANCH  17  20
ENDBRANCH   5  14
BRANCH   3  24
ATOM     24  C   UNL     1       6.453   3.531  12.178  0.00  0.00    +0.000 C 
BRANCH  24  25
ATOM     25  C   UNL     1       5.433   2.538  11.655  0.00  0.00    +0.000 C 
ATOM     26  O   UNL     1       4.304   2.880  11.315  0.00  0.00    +0.000 OA
BRANCH  25  27
ATOM     27  O   UNL     1       5.814   1.243  11.579  0.00  0.00    +0.000 OA
ATOM     28  H   UNL     1       6.776   1.102  11.656  0.00  0.00    +0.000 HD
ENDBRANCH  25  27
ENDBRANCH  24  25
ENDBRANCH   3  24
TORSDOF 6
ENDMDL
MODEL 7
REMARK VINA RESULT:      -8.5      1.026      1.671
REMARK  Name = 
REMARK  8 active torsions:
REMARK  status: ('A' for Active; 'I' for Inactive)
REMARK    1  A    between atoms: C_1  and  C_2
REMARK    2  A    between atoms: C_3  and  C_4
REMARK    3  A    between atoms: C_4  and  C_5
REMARK    4  A    between atoms: C_5  and  O_7
REMARK    5  A    between atoms: C_9  and  C_10
REMARK    6  A    between atoms: C_13  and  S_14
REMARK    7  A    between atoms: S_14  and  C_15
REMARK    8  A    between atoms: N_20  and  C_21
REMARK                            x       y       z     vdW  Elec       q    Type
REMARK                         _______ _______ _______ _____ _____    ______ ____
ROOT
ATOM      1  C   UNL     1       4.728   3.399  17.227  0.00  0.00    +0.000 C 
ATOM      2  C   UNL     1       4.331   4.840  17.336  0.00  0.00    +0.000 A 
ATOM      3  C   UNL     1       4.757   5.881  16.526  0.00  0.00    +0.000 A 
ATOM      4  C   UNL     1       4.053   7.035  16.942  0.00  0.00    +0.000 A 
ATOM      5  C   UNL     1       3.201   6.706  17.990  0.00  0.00    +0.000 A 
ATOM      6  N   UNL     1       3.361   5.325  18.227  0.00  0.00    +0.000 N 
ENDROOT
BRANCH   6   7
ATOM      7  C   UNL     1       2.622   4.516  19.156  0.00  0.00    +0.000 A 
ATOM      8  C   UNL     1       2.913   4.560  20.529  0.00  0.00    +0.000 A 
ATOM      9  C   UNL     1       2.189   3.782  21.438  0.00  0.00    +0.000 A 
ATOM     10  C   UNL     1       1.130   3.000  20.992  0.00  0.00    +0.000 A 
ATOM     11  C   UNL     1       0.821   2.980  19.638  0.00  0.00    +0.000 A 
ATOM     12  F   UNL     1      -0.233   2.271  19.214  0.00  0.00    +0.000 F 
ATOM     13  C   UNL     1       1.576   3.697  18.715  0.00  0.00    +0.000 A 
ENDBRANCH   6   7
BRANCH   5  14
ATOM     14  C   UNL     1       2.343   7.650  18.747  0.00  0.00    +0.000 A 
ATOM     15  C   UNL     1       2.059   7.426  20.106  0.00  0.00    +0.000 A 
ATOM     16  C   UNL     1       1.313   8.349  20.853  0.00  0.00    +0.000 A 
ATOM     17  C   UNL     1       0.876   9.528  20.249  0.00  0.00    +0.000 A 
ATOM     18  C   UNL     1       1.103   9.750  18.894  0.00  0.00    +0.000 A 
ATOM     19  C   UNL     1       1.788   8.791  18.145  0.00  0.00    +0.000 A 
BRANCH  17  20
ATOM     20  S   UNL     1      -0.040  10.733  21.180  0.00  0.00    +0.000 S 
ATOM     21  C   UNL     1      -0.522   9.848  22.639  0.00  0.00    +0.000 C 
ATOM     22  O   UNL     1       0.882  11.779  21.566  0.00  0.00    +0.000 OA
ATOM     23  O   UNL     1      -1.240  11.047  20.421  0.00  0.00    +0.000 OA
ENDBRANCH  17  20
ENDBRANCH   5  14
BRANCH   3  24
ATOM     24  C   UNL     1       5.746   5.814  15.392  0.00  0.00    +0.000 C 
BRANCH  24  25
ATOM     25  C   UNL     1       7.199   5.653  15.800  0.00  0.00    +0.000 C 
ATOM     26  O   UNL     1       7.823   4.617  15.592  0.00  0.00    +0.000 OA
BRANCH  25  27
ATOM     27  O   UNL     1       7.788   6.704  16.412  0.00  0.00    +0.000 OA
ATOM     28  H   UNL     1       7.240   7.509  16.447  0.00  0.00    +0.000 HD
ENDBRANCH  25  27
ENDBRANCH  24  25
ENDBRANCH   3  24
TORSDOF 6
ENDMDL
MODEL 8
REMARK VINA RESULT:      -8.5      0.896      1.422
REMARK  Name = 
REMARK  8 active torsions:
REMARK  status: ('A' for Active; 'I' for Inactive)
REMARK    1  A    between atoms: C_1  and  C_2
REMARK    2  A    between atoms: C_3  and  C_4
REMARK    3  A    between atoms: C_4  and  C_5
REMARK    4  A    between atoms: C_5  and  O_7
REMARK    5  A    between atoms: C_9  and  C_10
REMARK    6  A    between atoms: C_13  and  S_14
REMARK    7  A    between atoms: S_14  and  C_15
REMARK    8  A    between atoms: N_20  and  C_21
REMARK                            x       y       z     vdW  Elec       q    Type
REMARK                         _______ _______ _______ _____ _____    ______ ____
ROOT
ATOM      1  C   UNL     1       4.665   3.331  16.959  0.00  0.00    +0.000 C 
ATOM      2  C   UNL     1       4.341   4.783  17.137  0.00  0.00    +0.000 A 
ATOM      3  C   UNL     1       4.864   5.845  16.415  0.00  0.00    +0.000 A 
ATOM      4  C   UNL     1       4.201   7.009  16.867  0.00  0.00    +0.000 A 
ATOM      5  C   UNL     1       3.279   6.668  17.850  0.00  0.00    +0.000 A 
ATOM      6  N   UNL     1       3.352   5.268  18.008  0.00  0.00    +0.000 N 
ENDROOT
BRANCH   6   7
ATOM      7  C   UNL     1       2.524   4.449  18.848  0.00  0.00    +0.000 A 
ATOM      8  C   UNL     1       1.400   3.793  18.319  0.00  0.00    +0.000 A 
ATOM      9  C   UNL     1       0.597   2.985  19.131  0.00  0.00    +0.000 A 
ATOM     10  C   UNL     1       0.944   2.776  20.461  0.00  0.00    +0.000 A 
ATOM     11  C   UNL     1       2.074   3.400  20.976  0.00  0.00    +0.000 A 
ATOM     12  F   UNL     1       2.440   3.155  22.241  0.00  0.00    +0.000 F 
ATOM     13  C   UNL     1       2.843   4.259  20.197  0.00  0.00    +0.000 A 
ENDBRANCH   6   7
BRANCH   5  14
ATOM     14  C   UNL     1       2.434   7.613  18.620  0.00  0.00    +0.000 A 
ATOM     15  C   UNL     1       2.170   7.388  19.983  0.00  0.00    +0.000 A 
ATOM     16  C   UNL     1       1.437   8.311  20.742  0.00  0.00    +0.000 A 
ATOM     17  C   UNL     1       0.992   9.491  20.146  0.00  0.00    +0.000 A 
ATOM     18  C   UNL     1       1.200   9.715  18.788  0.00  0.00    +0.000 A 
ATOM     19  C   UNL     1       1.871   8.755  18.028  0.00  0.00    +0.000 A 
BRANCH  17  20
ATOM     20  S   UNL     1       0.092  10.697  21.092  0.00  0.00    +0.000 S 
ATOM     21  C   UNL     1      -1.070  11.352  19.924  0.00  0.00    +0.000 C 
ATOM     22  O   UNL     1      -0.643   9.987  22.117  0.00  0.00    +0.000 OA
ATOM     23  O   UNL     1       1.026  11.754  21.447  0.00  0.00    +0.000 OA
ENDBRANCH  17  20
ENDBRANCH   5  14
BRANCH   3  24
ATOM     24  C   UNL     1       5.905   5.789  15.329  0.00  0.00    +0.000 C 
BRANCH  24  25
ATOM     25  C   UNL     1       6.873   4.623  15.410  0.00  0.00    +0.000 C 
ATOM     26  O   UNL     1       7.767   4.575  16.250  0.00  0.00    +0.000 OA
BRANCH  25  27
ATOM     27  O   UNL     1       6.718   3.628  14.509  0.00  0.00    +0.000 OA
ATOM     28  H   UNL     1       6.961   2.744  14.841  0.00  0.00    +0.000 HD
ENDBRANCH  25  27
ENDBRANCH  24  25
ENDBRANCH   3  24
TORSDOF 6
ENDMDL
MODEL 9
REMARK VINA RESULT:      -8.4      1.108      1.652
REMARK  Name = 
REMARK  8 active torsions:
REMARK  status: ('A' for Active; 'I' for Inactive)
REMARK    1  A    between atoms: C_1  and  C_2
REMARK    2  A    between atoms: C_3  and  C_4
REMARK    3  A    between atoms: C_4  and  C_5
REMARK    4  A    between atoms: C_5  and  O_7
REMARK    5  A    between atoms: C_9  and  C_10
REMARK    6  A    between atoms: C_13  and  S_14
REMARK    7  A    between atoms: S_14  and  C_15
REMARK    8  A    between atoms: N_20  and  C_21
REMARK                            x       y       z     vdW  Elec       q    Type
REMARK                         _______ _______ _______ _____ _____    ______ ____
ROOT
ATOM      1  C   UNL     1       5.155   3.292  17.701  0.00  0.00    +0.000 C 
ATOM      2  C   UNL     1       4.796   4.747  17.714  0.00  0.00    +0.000 A 
ATOM      3  C   UNL     1       5.484   5.776  17.090  0.00  0.00    +0.000 A 
ATOM      4  C   UNL     1       4.729   6.954  17.298  0.00  0.00    +0.000 A 
ATOM      5  C   UNL     1       3.590   6.652  18.035  0.00  0.00    +0.000 A 
ATOM      6  N   UNL     1       3.620   5.264  18.282  0.00  0.00    +0.000 N 
ENDROOT
BRANCH   6   7
ATOM      7  C   UNL     1       2.608   4.478  18.930  0.00  0.00    +0.000 A 
ATOM      8  C   UNL     1       1.587   3.872  18.180  0.00  0.00    +0.000 A 
ATOM      9  C   UNL     1       0.605   3.097  18.806  0.00  0.00    +0.000 A 
ATOM     10  C   UNL     1       0.669   2.870  20.176  0.00  0.00    +0.000 A 
ATOM     11  C   UNL     1       1.698   3.443  20.914  0.00  0.00    +0.000 A 
ATOM     12  F   UNL     1       1.793   3.181  22.224  0.00  0.00    +0.000 F 
ATOM     13  C   UNL     1       2.642   4.271  20.314  0.00  0.00    +0.000 A 
ENDBRANCH   6   7
BRANCH   5  14
ATOM     14  C   UNL     1       2.578   7.624  18.516  0.00  0.00    +0.000 A 
ATOM     15  C   UNL     1       2.163   7.617  19.860  0.00  0.00    +0.000 A 
ATOM     16  C   UNL     1       1.266   8.579  20.347  0.00  0.00    +0.000 A 
ATOM     17  C   UNL     1       0.804   9.581  19.495  0.00  0.00    +0.000 A 
ATOM     18  C   UNL     1       1.163   9.581  18.150  0.00  0.00    +0.000 A 
ATOM     19  C   UNL     1       2.003   8.578  17.662  0.00  0.00    +0.000 A 
BRANCH  17  20
ATOM     20  S   UNL     1      -0.306  10.834  20.093  0.00  0.00    +0.000 S 
ATOM     21  C   UNL     1       0.729  12.267  20.235  0.00  0.00    +0.000 C 
ATOM     22  O   UNL     1      -1.285  11.081  19.056  0.00  0.00    +0.000 OA
ATOM     23  O   UNL     1      -0.725  10.441  21.428  0.00  0.00    +0.000 OA
ENDBRANCH  17  20
ENDBRANCH   5  14
BRANCH   3  24
ATOM     24  C   UNL     1       6.765   5.678  16.304  0.00  0.00    +0.000 C 
BRANCH  24  25
ATOM     25  C   UNL     1       6.618   5.204  14.870  0.00  0.00    +0.000 C 
ATOM     26  O   UNL     1       5.599   4.651  14.467  0.00  0.00    +0.000 OA
BRANCH  25  27
ATOM     27  O   UNL     1       7.666   5.411  14.042  0.00  0.00    +0.000 OA
ATOM     28  H   UNL     1       8.536   5.396  14.482  0.00  0.00    +0.000 HD
ENDBRANCH  25  27
ENDBRANCH  24  25
ENDBRANCH   3  24
TORSDOF 6
ENDMDL
