MODEL 1
REMARK VINA RESULT:      -6.7      0.000      0.000
REMARK  Name = 
REMARK  10 active torsions:
REMARK  status: ('A' for Active; 'I' for Inactive)
REMARK    1  A    between atoms: C_1  and  C_2
REMARK    2  A    between atoms: C_2  and  O_3
REMARK    3  A    between atoms: O_3  and  C_4
REMARK    4  A    between atoms: C_4  and  C_5
REMARK    5  A    between atoms: C_5  and  N_6
REMARK    6  A    between atoms: C_7  and  C_9
REMARK    7  A    between atoms: C_9  and  C_10
REMARK    8  A    between atoms: C_9  and  C_11
REMARK    9  A    between atoms: N_13  and  C_14
REMARK   10  A    between atoms: N_17  and  C_18
REMARK                            x       y       z     vdW  Elec       q    Type
REMARK                         _______ _______ _______ _____ _____    ______ ____
ROOT
ATOM      1  C   UNL     1       8.124  14.173  21.050  0.00  0.00    +0.000 C 
ATOM      2  C   UNL     1       7.430  15.202  20.120  0.00  0.00    +0.000 C 
ATOM      3  O   UNL     1       6.222  15.434  20.247  0.00  0.00    +0.000 OA
ATOM      4  N   UNL     1       8.242  15.951  19.260  0.00  0.00    +0.000 N 
ATOM      5  C   UNL     1       7.748  17.241  18.802  0.00  0.00    +0.000 C 
ATOM      6  C   UNL     1       9.621  15.680  19.033  0.00  0.00    +0.000 A 
ATOM      7  C   UNL     1      10.017  15.485  17.699  0.00  0.00    +0.000 A 
ATOM      8  C   UNL     1      11.306  15.049  17.397  0.00  0.00    +0.000 A 
ATOM      9  C   UNL     1      12.221  14.841  18.423  0.00  0.00    +0.000 A 
ATOM     10  C   UNL     1      11.851  15.079  19.749  0.00  0.00    +0.000 A 
ATOM     11  C   UNL     1      10.548  15.492  20.086  0.00  0.00    +0.000 A 
ATOM     12  C   UNL     1      10.167  15.613  21.511  0.00  0.00    +0.000 A 
ATOM     13  C   UNL     1      10.956  16.348  22.411  0.00  0.00    +0.000 A 
ATOM     14  C   UNL     1      10.586  16.480  23.751  0.00  0.00    +0.000 A 
ATOM     15  C   UNL     1       9.410  15.893  24.210  0.00  0.00    +0.000 A 
ATOM     16  C   UNL     1       8.618  15.145  23.341  0.00  0.00    +0.000 A 
ATOM     17  C   UNL     1       9.004  14.973  22.002  0.00  0.00    +0.000 A 
ENDROOT
BRANCH   1  20
ATOM     18  C   UNL     1       9.132  11.912  20.922  0.00  0.00    +0.000 C 
ATOM     19  O   UNL     1       8.659  11.602  22.023  0.00  0.00    +0.000 OA
ATOM     20  N   UNL     1       8.896  13.139  20.373  0.00  0.00    +0.000 N 
ATOM     21  H   UNL     1       9.325  13.355  19.473  0.00  0.00    +0.000 HD
BRANCH  18  22
ATOM     22  C   UNL     1       9.912  10.931  20.065  0.00  0.00    +0.000 C 
ATOM     23  C   UNL     1      11.276  11.539  19.730  0.00  0.00    +0.000 C 
BRANCH  22  25
ATOM     24  N   UNL     1       8.812   9.073  18.835  0.00  0.00    +0.000 N 
ATOM     25  C   UNL     1       9.121  10.412  18.867  0.00  0.00    +0.000 C 
ATOM     26  O   UNL     1       8.798  11.167  17.947  0.00  0.00    +0.000 OA
ATOM     27  H   UNL     1       8.937   8.490  19.655  0.00  0.00    +0.000 HD
BRANCH  24  28
ATOM     28  C   UNL     1       7.963   8.525  17.788  0.00  0.00    +0.000 C 
BRANCH  28  29
ATOM     29  C   UNL     1       7.720   7.028  17.968  0.00  0.00    +0.000 C 
BRANCH  29  30
ATOM     30  O   UNL     1       7.531   6.412  16.688  0.00  0.00    +0.000 OA
BRANCH  30  32
ATOM     31  C   UNL     1       6.294   4.761  17.912  0.00  0.00    +0.000 C 
ATOM     32  C   UNL     1       7.314   5.007  16.817  0.00  0.00    +0.000 C 
ENDBRANCH  30  32
ENDBRANCH  29  30
ENDBRANCH  28  29
ENDBRANCH  24  28
ENDBRANCH  22  25
ENDBRANCH  18  22
ENDBRANCH   1  20
TORSDOF 7
ENDMDL
MODEL 2
REMARK VINA RESULT:      -6.6      7.519     10.988
REMARK  Name = 
REMARK  10 active torsions:
REMARK  status: ('A' for Active; 'I' for Inactive)
REMARK    1  A    between atoms: C_1  and  C_2
REMARK    2  A    between atoms: C_2  and  O_3
REMARK    3  A    between atoms: O_3  and  C_4
REMARK    4  A    between atoms: C_4  and  C_5
REMARK    5  A    between atoms: C_5  and  N_6
REMARK    6  A    between atoms: C_7  and  C_9
REMARK    7  A    between atoms: C_9  and  C_10
REMARK    8  A    between atoms: C_9  and  C_11
REMARK    9  A    between atoms: N_13  and  C_14
REMARK   10  A    between atoms: N_17  and  C_18
REMARK                            x       y       z     vdW  Elec       q    Type
REMARK                         _______ _______ _______ _____ _____    ______ ____
ROOT
ATOM      1  C   UNL     1       4.989   6.971  16.801  0.00  0.00    +0.000 C 
ATOM      2  C   UNL     1       5.093   5.944  15.644  0.00  0.00    +0.000 C 
ATOM      3  O   UNL     1       5.515   6.299  14.537  0.00  0.00    +0.000 OA
ATOM      4  N   UNL     1       4.842   4.600  15.943  0.00  0.00    +0.000 N 
ATOM      5  C   UNL     1       5.436   3.584  15.086  0.00  0.00    +0.000 C 
ATOM      6  C   UNL     1       4.295   4.150  17.178  0.00  0.00    +0.000 A 
ATOM      7  C   UNL     1       3.130   3.367  17.108  0.00  0.00    +0.000 A 
ATOM      8  C   UNL     1       2.432   3.027  18.266  0.00  0.00    +0.000 A 
ATOM      9  C   UNL     1       2.913   3.433  19.505  0.00  0.00    +0.000 A 
ATOM     10  C   UNL     1       4.096   4.171  19.589  0.00  0.00    +0.000 A 
ATOM     11  C   UNL     1       4.807   4.554  18.434  0.00  0.00    +0.000 A 
ATOM     12  C   UNL     1       5.988   5.438  18.565  0.00  0.00    +0.000 A 
ATOM     13  C   UNL     1       7.021   5.135  19.467  0.00  0.00    +0.000 A 
ATOM     14  C   UNL     1       8.144   5.958  19.575  0.00  0.00    +0.000 A 
ATOM     15  C   UNL     1       8.261   7.087  18.770  0.00  0.00    +0.000 A 
ATOM     16  C   UNL     1       7.243   7.418  17.878  0.00  0.00    +0.000 A 
ATOM     17  C   UNL     1       6.091   6.619  17.793  0.00  0.00    +0.000 A 
ENDROOT
BRANCH   1  20
ATOM     18  C   UNL     1       3.040   8.212  17.698  0.00  0.00    +0.000 C 
ATOM     19  O   UNL     1       3.508   9.292  17.313  0.00  0.00    +0.000 OA
ATOM     20  N   UNL     1       3.694   7.037  17.465  0.00  0.00    +0.000 N 
ATOM     21  H   UNL     1       3.278   6.175  17.820  0.00  0.00    +0.000 HD
BRANCH  18  22
ATOM     22  C   UNL     1       1.676   8.104  18.356  0.00  0.00    +0.000 C 
ATOM     23  C   UNL     1       0.792   9.248  17.857  0.00  0.00    +0.000 C 
BRANCH  22  25
ATOM     24  N   UNL     1       1.397   9.038  20.642  0.00  0.00    +0.000 N 
ATOM     25  C   UNL     1       1.748   7.953  19.874  0.00  0.00    +0.000 C 
ATOM     26  O   UNL     1       2.137   6.902  20.388  0.00  0.00    +0.000 OA
ATOM     27  H   UNL     1       0.932   9.839  20.230  0.00  0.00    +0.000 HD
BRANCH  24  28
ATOM     28  C   UNL     1       1.328   8.939  22.091  0.00  0.00    +0.000 C 
BRANCH  28  29
ATOM     29  C   UNL     1      -0.094   9.131  22.615  0.00  0.00    +0.000 C 
BRANCH  29  30
ATOM     30  O   UNL     1      -0.157  10.317  23.418  0.00  0.00    +0.000 OA
BRANCH  30  32
ATOM     31  C   UNL     1      -0.999  11.861  21.787  0.00  0.00    +0.000 C 
ATOM     32  C   UNL     1      -1.290  11.115  23.075  0.00  0.00    +0.000 C 
ENDBRANCH  30  32
ENDBRANCH  29  30
ENDBRANCH  28  29
ENDBRANCH  24  28
ENDBRANCH  22  25
ENDBRANCH  18  22
ENDBRANCH   1  20
TORSDOF 7
ENDMDL
MODEL 3
REMARK VINA RESULT:      -6.3      9.262     10.470
REMARK  Name = 
REMARK  10 active torsions:
REMARK  status: ('A' for Active; 'I' for Inactive)
REMARK    1  A    between atoms: C_1  and  C_2
REMARK    2  A    between atoms: C_2  and  O_3
REMARK    3  A    between atoms: O_3  and  C_4
REMARK    4  A    between atoms: C_4  and  C_5
REMARK    5  A    between atoms: C_5  and  N_6
REMARK    6  A    between atoms: C_7  and  C_9
REMARK    7  A    between atoms: C_9  and  C_10
REMARK    8  A    between atoms: C_9  and  C_11
REMARK    9  A    between atoms: N_13  and  C_14
REMARK   10  A    between atoms: N_17  and  C_18
REMARK                            x       y       z     vdW  Elec       q    Type
REMARK                         _______ _______ _______ _____ _____    ______ ____
ROOT
ATOM      1  C   UNL     1      -1.393  12.532  22.979  0.00  0.00    +0.000 C 
ATOM      2  C   UNL     1      -2.897  12.276  22.705  0.00  0.00    +0.000 C 
ATOM      3  O   UNL     1      -3.655  11.984  23.638  0.00  0.00    +0.000 OA
ATOM      4  N   UNL     1      -3.377  12.536  21.416  0.00  0.00    +0.000 N 
ATOM      5  C   UNL     1      -4.792  12.836  21.259  0.00  0.00    +0.000 C 
ATOM      6  C   UNL     1      -2.539  12.812  20.298  0.00  0.00    +0.000 A 
ATOM      7  C   UNL     1      -2.702  11.994  19.168  0.00  0.00    +0.000 A 
ATOM      8  C   UNL     1      -1.815  12.079  18.096  0.00  0.00    +0.000 A 
ATOM      9  C   UNL     1      -0.782  13.008  18.128  0.00  0.00    +0.000 A 
ATOM     10  C   UNL     1      -0.641  13.859  19.227  0.00  0.00    +0.000 A 
ATOM     11  C   UNL     1      -1.504  13.776  20.337  0.00  0.00    +0.000 A 
ATOM     12  C   UNL     1      -1.241  14.613  21.529  0.00  0.00    +0.000 A 
ATOM     13  C   UNL     1      -1.039  15.998  21.410  0.00  0.00    +0.000 A 
ATOM     14  C   UNL     1      -0.811  16.791  22.536  0.00  0.00    +0.000 A 
ATOM     15  C   UNL     1      -0.801  16.215  23.804  0.00  0.00    +0.000 A 
ATOM     16  C   UNL     1      -0.984  14.842  23.948  0.00  0.00    +0.000 A 
ATOM     17  C   UNL     1      -1.171  14.030  22.817  0.00  0.00    +0.000 A 
ENDROOT
BRANCH   1  20
ATOM     18  C   UNL     1       0.083  10.591  22.536  0.00  0.00    +0.000 C 
ATOM     19  O   UNL     1      -0.215  10.073  23.621  0.00  0.00    +0.000 OA
ATOM     20  N   UNL     1      -0.467  11.776  22.146  0.00  0.00    +0.000 N 
ATOM     21  H   UNL     1      -0.174  12.172  21.251  0.00  0.00    +0.000 HD
BRANCH  18  22
ATOM     22  C   UNL     1       0.990   9.905  21.529  0.00  0.00    +0.000 C 
ATOM     23  C   UNL     1       1.036  10.744  20.251  0.00  0.00    +0.000 C 
BRANCH  22  25
ATOM     24  N   UNL     1       1.684   7.585  20.968  0.00  0.00    +0.000 N 
ATOM     25  C   UNL     1       0.658   8.429  21.324  0.00  0.00    +0.000 C 
ATOM     26  O   UNL     1      -0.499   8.018  21.445  0.00  0.00    +0.000 OA
ATOM     27  H   UNL     1       2.649   7.888  21.023  0.00  0.00    +0.000 HD
BRANCH  24  28
ATOM     28  C   UNL     1       1.472   6.150  20.868  0.00  0.00    +0.000 C 
BRANCH  28  29
ATOM     29  C   UNL     1       2.447   5.490  19.895  0.00  0.00    +0.000 C 
BRANCH  29  30
ATOM     30  O   UNL     1       2.985   4.299  20.483  0.00  0.00    +0.000 OA
BRANCH  30  32
ATOM     31  C   UNL     1       1.611   2.639  21.538  0.00  0.00    +0.000 C 
ATOM     32  C   UNL     1       2.150   3.170  20.224  0.00  0.00    +0.000 C 
ENDBRANCH  30  32
ENDBRANCH  29  30
ENDBRANCH  28  29
ENDBRANCH  24  28
ENDBRANCH  22  25
ENDBRANCH  18  22
ENDBRANCH   1  20
TORSDOF 7
ENDMDL
MODEL 4
REMARK VINA RESULT:      -6.3     11.931     14.087
REMARK  Name = 
REMARK  10 active torsions:
REMARK  status: ('A' for Active; 'I' for Inactive)
REMARK    1  A    between atoms: C_1  and  C_2
REMARK    2  A    between atoms: C_2  and  O_3
REMARK    3  A    between atoms: O_3  and  C_4
REMARK    4  A    between atoms: C_4  and  C_5
REMARK    5  A    between atoms: C_5  and  N_6
REMARK    6  A    between atoms: C_7  and  C_9
REMARK    7  A    between atoms: C_9  and  C_10
REMARK    8  A    between atoms: C_9  and  C_11
REMARK    9  A    between atoms: N_13  and  C_14
REMARK   10  A    between atoms: N_17  and  C_18
REMARK                            x       y       z     vdW  Elec       q    Type
REMARK                         _______ _______ _______ _____ _____    ______ ____
ROOT
ATOM      1  C   UNL     1      -5.450  12.912  20.066  0.00  0.00    +0.000 C 
ATOM      2  C   UNL     1      -6.129  11.556  20.390  0.00  0.00    +0.000 C 
ATOM      3  O   UNL     1      -6.843  11.445  21.394  0.00  0.00    +0.000 OA
ATOM      4  N   UNL     1      -6.030  10.535  19.438  0.00  0.00    +0.000 N 
ATOM      5  C   UNL     1      -7.053   9.500  19.432  0.00  0.00    +0.000 C 
ATOM      6  C   UNL     1      -5.173  10.590  18.302  0.00  0.00    +0.000 A 
ATOM      7  C   UNL     1      -4.263   9.532  18.143  0.00  0.00    +0.000 A 
ATOM      8  C   UNL     1      -3.275   9.587  17.160  0.00  0.00    +0.000 A 
ATOM      9  C   UNL     1      -3.214  10.680  16.304  0.00  0.00    +0.000 A 
ATOM     10  C   UNL     1      -4.145  11.714  16.423  0.00  0.00    +0.000 A 
ATOM     11  C   UNL     1      -5.135  11.700  17.425  0.00  0.00    +0.000 A 
ATOM     12  C   UNL     1      -6.022  12.875  17.590  0.00  0.00    +0.000 A 
ATOM     13  C   UNL     1      -6.711  13.420  16.494  0.00  0.00    +0.000 A 
ATOM     14  C   UNL     1      -7.563  14.515  16.654  0.00  0.00    +0.000 A 
ATOM     15  C   UNL     1      -7.755  15.071  17.916  0.00  0.00    +0.000 A 
ATOM     16  C   UNL     1      -7.071  14.558  19.016  0.00  0.00    +0.000 A 
ATOM     17  C   UNL     1      -6.180  13.484  18.857  0.00  0.00    +0.000 A 
ENDROOT
BRANCH   1  20
ATOM     18  C   UNL     1      -3.090  13.093  20.799  0.00  0.00    +0.000 C 
ATOM     19  O   UNL     1      -3.434  13.342  21.962  0.00  0.00    +0.000 OA
ATOM     20  N   UNL     1      -4.015  12.851  19.826  0.00  0.00    +0.000 N 
ATOM     21  H   UNL     1      -3.681  12.671  18.878  0.00  0.00    +0.000 HD
BRANCH  18  22
ATOM     22  C   UNL     1      -1.633  12.940  20.397  0.00  0.00    +0.000 C 
ATOM     23  C   UNL     1      -1.567  12.347  18.988  0.00  0.00    +0.000 C 
BRANCH  22  25
ATOM     24  N   UNL     1      -1.407  11.257  22.212  0.00  0.00    +0.000 N 
ATOM     25  C   UNL     1      -0.790  12.217  21.445  0.00  0.00    +0.000 C 
ATOM     26  O   UNL     1       0.395  12.511  21.615  0.00  0.00    +0.000 OA
ATOM     27  H   UNL     1      -2.328  10.909  21.969  0.00  0.00    +0.000 HD
BRANCH  24  28
ATOM     28  C   UNL     1      -0.647  10.446  23.149  0.00  0.00    +0.000 C 
BRANCH  28  29
ATOM     29  C   UNL     1      -0.193   9.125  22.531  0.00  0.00    +0.000 C 
BRANCH  29  30
ATOM     30  O   UNL     1       1.067   9.307  21.871  0.00  0.00    +0.000 OA
BRANCH  30  32
ATOM     31  C   UNL     1       1.241   9.180  19.482  0.00  0.00    +0.000 C 
ATOM     32  C   UNL     1       1.216   8.398  20.781  0.00  0.00    +0.000 C 
ENDBRANCH  30  32
ENDBRANCH  29  30
ENDBRANCH  28  29
ENDBRANCH  24  28
ENDBRANCH  22  25
ENDBRANCH  18  22
ENDBRANCH   1  20
TORSDOF 7
ENDMDL
MODEL 5
REMARK VINA RESULT:      -6.2      9.768     11.637
REMARK  Name = 
REMARK  10 active torsions:
REMARK  status: ('A' for Active; 'I' for Inactive)
REMARK    1  A    between atoms: C_1  and  C_2
REMARK    2  A    between atoms: C_2  and  O_3
REMARK    3  A    between atoms: O_3  and  C_4
REMARK    4  A    between atoms: C_4  and  C_5
REMARK    5  A    between atoms: C_5  and  N_6
REMARK    6  A    between atoms: C_7  and  C_9
REMARK    7  A    between atoms: C_9  and  C_10
REMARK    8  A    between atoms: C_9  and  C_11
REMARK    9  A    between atoms: N_13  and  C_14
REMARK   10  A    between atoms: N_17  and  C_18
REMARK                            x       y       z     vdW  Elec       q    Type
REMARK                         _______ _______ _______ _____ _____    ______ ____
ROOT
ATOM      1  C   UNL     1      -1.583  11.681  18.929  0.00  0.00    +0.000 C 
ATOM      2  C   UNL     1      -0.898  13.072  18.914  0.00  0.00    +0.000 C 
ATOM      3  O   UNL     1      -0.220  13.418  17.939  0.00  0.00    +0.000 OA
ATOM      4  N   UNL     1      -1.201  13.957  19.956  0.00  0.00    +0.000 N 
ATOM      5  C   UNL     1      -1.042  15.383  19.712  0.00  0.00    +0.000 C 
ATOM      6  C   UNL     1      -1.921  13.588  21.127  0.00  0.00    +0.000 A 
ATOM      7  C   UNL     1      -1.299  13.845  22.360  0.00  0.00    +0.000 A 
ATOM      8  C   UNL     1      -1.850  13.365  23.548  0.00  0.00    +0.000 A 
ATOM      9  C   UNL     1      -3.047  12.659  23.516  0.00  0.00    +0.000 A 
ATOM     10  C   UNL     1      -3.698  12.441  22.299  0.00  0.00    +0.000 A 
ATOM     11  C   UNL     1      -3.150  12.888  21.082  0.00  0.00    +0.000 A 
ATOM     12  C   UNL     1      -3.813  12.528  19.808  0.00  0.00    +0.000 A 
ATOM     13  C   UNL     1      -5.187  12.752  19.619  0.00  0.00    +0.000 A 
ATOM     14  C   UNL     1      -5.808  12.431  18.410  0.00  0.00    +0.000 A 
ATOM     15  C   UNL     1      -5.061  11.897  17.363  0.00  0.00    +0.000 A 
ATOM     16  C   UNL     1      -3.700  11.651  17.530  0.00  0.00    +0.000 A 
ATOM     17  C   UNL     1      -3.076  11.932  18.757  0.00  0.00    +0.000 A 
ENDROOT
BRANCH   1  20
ATOM     18  C   UNL     1      -0.365   9.902  20.150  0.00  0.00    +0.000 C 
ATOM     19  O   UNL     1       0.373   9.692  19.177  0.00  0.00    +0.000 OA
ATOM     20  N   UNL     1      -1.326  10.869  20.111  0.00  0.00    +0.000 N 
ATOM     21  H   UNL     1      -1.922  10.990  20.931  0.00  0.00    +0.000 HD
BRANCH  18  22
ATOM     22  C   UNL     1      -0.190   9.180  21.475  0.00  0.00    +0.000 C 
ATOM     23  C   UNL     1      -0.277  10.200  22.612  0.00  0.00    +0.000 C 
BRANCH  22  25
ATOM     24  N   UNL     1       0.969   7.076  20.833  0.00  0.00    +0.000 N 
ATOM     25  C   UNL     1       1.037   8.271  21.510  0.00  0.00    +0.000 C 
ATOM     26  O   UNL     1       2.041   8.589  22.151  0.00  0.00    +0.000 OA
ATOM     27  H   UNL     1       0.213   6.888  20.184  0.00  0.00    +0.000 HD
BRANCH  24  28
ATOM     28  C   UNL     1       2.132   6.211  20.722  0.00  0.00    +0.000 C 
BRANCH  28  29
ATOM     29  C   UNL     1       1.924   5.092  19.704  0.00  0.00    +0.000 C 
BRANCH  29  30
ATOM     30  O   UNL     1       0.842   4.251  20.126  0.00  0.00    +0.000 OA
BRANCH  30  32
ATOM     31  C   UNL     1       1.636   2.680  21.756  0.00  0.00    +0.000 C 
ATOM     32  C   UNL     1       1.274   2.901  20.300  0.00  0.00    +0.000 C 
ENDBRANCH  30  32
ENDBRANCH  29  30
ENDBRANCH  28  29
ENDBRANCH  24  28
ENDBRANCH  22  25
ENDBRANCH  18  22
ENDBRANCH   1  20
TORSDOF 7
ENDMDL
MODEL 6
REMARK VINA RESULT:      -6.1     10.557     12.662
REMARK  Name = 
REMARK  10 active torsions:
REMARK  status: ('A' for Active; 'I' for Inactive)
REMARK    1  A    between atoms: C_1  and  C_2
REMARK    2  A    between atoms: C_2  and  O_3
REMARK    3  A    between atoms: O_3  and  C_4
REMARK    4  A    between atoms: C_4  and  C_5
REMARK    5  A    between atoms: C_5  and  N_6
REMARK    6  A    between atoms: C_7  and  C_9
REMARK    7  A    between atoms: C_9  and  C_10
REMARK    8  A    between atoms: C_9  and  C_11
REMARK    9  A    between atoms: N_13  and  C_14
REMARK   10  A    between atoms: N_17  and  C_18
REMARK                            x       y       z     vdW  Elec       q    Type
REMARK                         _______ _______ _______ _____ _____    ______ ____
ROOT
ATOM      1  C   UNL     1      -1.823  12.813  19.579  0.00  0.00    +0.000 C 
ATOM      2  C   UNL     1      -2.030  11.692  18.528  0.00  0.00    +0.000 C 
ATOM      3  O   UNL     1      -2.754  11.891  17.545  0.00  0.00    +0.000 OA
ATOM      4  N   UNL     1      -1.259  10.531  18.655  0.00  0.00    +0.000 N 
ATOM      5  C   UNL     1      -1.015   9.735  17.461  0.00  0.00    +0.000 C 
ATOM      6  C   UNL     1      -0.463  10.228  19.796  0.00  0.00    +0.000 A 
ATOM      7  C   UNL     1      -0.705   8.997  20.429  0.00  0.00    +0.000 A 
ATOM      8  C   UNL     1      -0.096   8.692  21.645  0.00  0.00    +0.000 A 
ATOM      9  C   UNL     1       0.788   9.597  22.219  0.00  0.00    +0.000 A 
ATOM     10  C   UNL     1       1.073  10.803  21.573  0.00  0.00    +0.000 A 
ATOM     11  C   UNL     1       0.451  11.150  20.359  0.00  0.00    +0.000 A 
ATOM     12  C   UNL     1       0.691  12.489  19.774  0.00  0.00    +0.000 A 
ATOM     13  C   UNL     1       1.996  12.976  19.593  0.00  0.00    +0.000 A 
ATOM     14  C   UNL     1       2.222  14.230  19.022  0.00  0.00    +0.000 A 
ATOM     15  C   UNL     1       1.147  15.011  18.606  0.00  0.00    +0.000 A 
ATOM     16  C   UNL     1      -0.157  14.558  18.789  0.00  0.00    +0.000 A 
ATOM     17  C   UNL     1      -0.395  13.316  19.400  0.00  0.00    +0.000 A 
ENDROOT
BRANCH   1  20
ATOM     18  C   UNL     1      -2.573  13.289  21.892  0.00  0.00    +0.000 C 
ATOM     19  O   UNL     1      -2.887  14.448  21.588  0.00  0.00    +0.000 OA
ATOM     20  N   UNL     1      -2.068  12.428  20.962  0.00  0.00    +0.000 N 
ATOM     21  H   UNL     1      -1.806  11.490  21.266  0.00  0.00    +0.000 HD
BRANCH  18  22
ATOM     22  C   UNL     1      -2.817  12.716  23.277  0.00  0.00    +0.000 C 
ATOM     23  C   UNL     1      -2.019  11.419  23.426  0.00  0.00    +0.000 C 
BRANCH  22  25
ATOM     24  N   UNL     1      -5.200  13.256  22.821  0.00  0.00    +0.000 N 
ATOM     25  C   UNL     1      -4.298  12.611  23.635  0.00  0.00    +0.000 C 
ATOM     26  O   UNL     1      -4.665  11.994  24.637  0.00  0.00    +0.000 OA
ATOM     27  H   UNL     1      -4.918  13.626  21.921  0.00  0.00    +0.000 HD
BRANCH  24  28
ATOM     28  C   UNL     1      -6.632  13.108  23.028  0.00  0.00    +0.000 C 
BRANCH  28  29
ATOM     29  C   UNL     1      -7.338  12.555  21.792  0.00  0.00    +0.000 C 
BRANCH  29  30
ATOM     30  O   UNL     1      -7.326  11.122  21.830  0.00  0.00    +0.000 OA
BRANCH  30  32
ATOM     31  C   UNL     1      -7.316  11.655  19.491  0.00  0.00    +0.000 C 
ATOM     32  C   UNL     1      -7.519  10.568  20.528  0.00  0.00    +0.000 C 
ENDBRANCH  30  32
ENDBRANCH  29  30
ENDBRANCH  28  29
ENDBRANCH  24  28
ENDBRANCH  22  25
ENDBRANCH  18  22
ENDBRANCH   1  20
TORSDOF 7
ENDMDL
MODEL 7
REMARK VINA RESULT:      -6.1      7.779     10.470
REMARK  Name = 
REMARK  10 active torsions:
REMARK  status: ('A' for Active; 'I' for Inactive)
REMARK    1  A    between atoms: C_1  and  C_2
REMARK    2  A    between atoms: C_2  and  O_3
REMARK    3  A    between atoms: O_3  and  C_4
REMARK    4  A    between atoms: C_4  and  C_5
REMARK    5  A    between atoms: C_5  and  N_6
REMARK    6  A    between atoms: C_7  and  C_9
REMARK    7  A    between atoms: C_9  and  C_10
REMARK    8  A    between atoms: C_9  and  C_11
REMARK    9  A    between atoms: N_13  and  C_14
REMARK   10  A    between atoms: N_17  and  C_18
REMARK                            x       y       z     vdW  Elec       q    Type
REMARK                         _______ _______ _______ _____ _____    ______ ____
ROOT
ATOM      1  C   UNL     1      -0.227  11.745  19.255  0.00  0.00    +0.000 C 
ATOM      2  C   UNL     1      -1.709  11.895  18.825  0.00  0.00    +0.000 C 
ATOM      3  O   UNL     1      -2.129  11.291  17.831  0.00  0.00    +0.000 OA
ATOM      4  N   UNL     1      -2.565  12.601  19.678  0.00  0.00    +0.000 N 
ATOM      5  C   UNL     1      -3.990  12.310  19.613  0.00  0.00    +0.000 C 
ATOM      6  C   UNL     1      -2.121  13.364  20.795  0.00  0.00    +0.000 A 
ATOM      7  C   UNL     1      -2.513  14.712  20.837  0.00  0.00    +0.000 A 
ATOM      8  C   UNL     1      -1.987  15.575  21.798  0.00  0.00    +0.000 A 
ATOM      9  C   UNL     1      -1.097  15.089  22.748  0.00  0.00    +0.000 A 
ATOM     10  C   UNL     1      -0.739  13.738  22.744  0.00  0.00    +0.000 A 
ATOM     11  C   UNL     1      -1.231  12.850  21.768  0.00  0.00    +0.000 A 
ATOM     12  C   UNL     1      -0.729  11.458  21.730  0.00  0.00    +0.000 A 
ATOM     13  C   UNL     1      -0.723  10.660  22.886  0.00  0.00    +0.000 A 
ATOM     14  C   UNL     1      -0.268   9.340  22.845  0.00  0.00    +0.000 A 
ATOM     15  C   UNL     1       0.170   8.790  21.644  0.00  0.00    +0.000 A 
ATOM     16  C   UNL     1       0.188   9.566  20.487  0.00  0.00    +0.000 A 
ATOM     17  C   UNL     1      -0.227  10.906  20.527  0.00  0.00    +0.000 A 
ENDROOT
BRANCH   1  20
ATOM     18  C   UNL     1       1.749  13.213  18.964  0.00  0.00    +0.000 C 
ATOM     19  O   UNL     1       2.325  12.358  18.277  0.00  0.00    +0.000 OA
ATOM     20  N   UNL     1       0.496  12.994  19.457  0.00  0.00    +0.000 N 
ATOM     21  H   UNL     1       0.072  13.721  20.035  0.00  0.00    +0.000 HD
BRANCH  18  22
ATOM     22  C   UNL     1       2.343  14.587  19.220  0.00  0.00    +0.000 C 
ATOM     23  C   UNL     1       1.213  15.617  19.255  0.00  0.00    +0.000 C 
BRANCH  22  25
ATOM     24  N   UNL     1       4.753  14.465  18.624  0.00  0.00    +0.000 N 
ATOM     25  C   UNL     1       3.503  14.927  18.286  0.00  0.00    +0.000 C 
ATOM     26  O   UNL     1       3.324  15.619  17.282  0.00  0.00    +0.000 OA
ATOM     27  H   UNL     1       4.873  13.773  19.355  0.00  0.00    +0.000 HD
BRANCH  24  28
ATOM     28  C   UNL     1       5.885  14.647  17.729  0.00  0.00    +0.000 C 
BRANCH  28  29
ATOM     29  C   UNL     1       6.954  15.557  18.331  0.00  0.00    +0.000 C 
BRANCH  29  30
ATOM     30  O   UNL     1       8.257  15.051  18.011  0.00  0.00    +0.000 OA
BRANCH  30  32
ATOM     31  C   UNL     1       9.634  13.115  17.675  0.00  0.00    +0.000 C 
ATOM     32  C   UNL     1       8.345  13.649  18.269  0.00  0.00    +0.000 C 
ENDBRANCH  30  32
ENDBRANCH  29  30
ENDBRANCH  28  29
ENDBRANCH  24  28
ENDBRANCH  22  25
ENDBRANCH  18  22
ENDBRANCH   1  20
TORSDOF 7
ENDMDL
MODEL 8
REMARK VINA RESULT:      -6.0      7.481     10.626
REMARK  Name = 
REMARK  10 active torsions:
REMARK  status: ('A' for Active; 'I' for Inactive)
REMARK    1  A    between atoms: C_1  and  C_2
REMARK    2  A    between atoms: C_2  and  O_3
REMARK    3  A    between atoms: O_3  and  C_4
REMARK    4  A    between atoms: C_4  and  C_5
REMARK    5  A    between atoms: C_5  and  N_6
REMARK    6  A    between atoms: C_7  and  C_9
REMARK    7  A    between atoms: C_9  and  C_10
REMARK    8  A    between atoms: C_9  and  C_11
REMARK    9  A    between atoms: N_13  and  C_14
REMARK   10  A    between atoms: N_17  and  C_18
REMARK                            x       y       z     vdW  Elec       q    Type
REMARK                         _______ _______ _______ _____ _____    ______ ____
ROOT
ATOM      1  C   UNL     1      -0.385  12.395  20.775  0.00  0.00    +0.000 C 
ATOM      2  C   UNL     1      -0.297  11.328  21.897  0.00  0.00    +0.000 C 
ATOM      3  O   UNL     1      -0.560  11.635  23.066  0.00  0.00    +0.000 OA
ATOM      4  N   UNL     1      -0.066  10.001  21.516  0.00  0.00    +0.000 N 
ATOM      5  C   UNL     1      -0.506   8.943  22.413  0.00  0.00    +0.000 C 
ATOM      6  C   UNL     1       0.304   9.607  20.198  0.00  0.00    +0.000 A 
ATOM      7  C   UNL     1       1.482   8.852  20.070  0.00  0.00    +0.000 A 
ATOM      8  C   UNL     1       2.010   8.569  18.811  0.00  0.00    +0.000 A 
ATOM      9  C   UNL     1       1.345   9.003  17.671  0.00  0.00    +0.000 A 
ATOM     10  C   UNL     1       0.146   9.712  17.787  0.00  0.00    +0.000 A 
ATOM     11  C   UNL     1      -0.395  10.038  19.046  0.00  0.00    +0.000 A 
ATOM     12  C   UNL     1      -1.600  10.896  19.121  0.00  0.00    +0.000 A 
ATOM     13  C   UNL     1      -2.748  10.597  18.369  0.00  0.00    +0.000 A 
ATOM     14  C   UNL     1      -3.891  11.393  18.456  0.00  0.00    +0.000 A 
ATOM     15  C   UNL     1      -3.913  12.492  19.311  0.00  0.00    +0.000 A 
ATOM     16  C   UNL     1      -2.781  12.819  20.055  0.00  0.00    +0.000 A 
ATOM     17  C   UNL     1      -1.613  12.048  19.943  0.00  0.00    +0.000 A 
ENDROOT
BRANCH   1  20
ATOM     18  C   UNL     1       1.092  13.647  19.229  0.00  0.00    +0.000 C 
ATOM     19  O   UNL     1       0.377  14.655  19.308  0.00  0.00    +0.000 OA
ATOM     20  N   UNL     1       0.797  12.516  19.932  0.00  0.00    +0.000 N 
ATOM     21  H   UNL     1       1.406  11.705  19.819  0.00  0.00    +0.000 HD
BRANCH  18  22
ATOM     22  C   UNL     1       2.388  13.629  18.438  0.00  0.00    +0.000 C 
ATOM     23  C   UNL     1       2.647  12.205  17.942  0.00  0.00    +0.000 C 
BRANCH  22  25
ATOM     24  N   UNL     1       4.637  14.687  18.430  0.00  0.00    +0.000 N 
ATOM     25  C   UNL     1       3.556  14.281  19.176  0.00  0.00    +0.000 C 
ATOM     26  O   UNL     1       3.537  14.408  20.402  0.00  0.00    +0.000 OA
ATOM     27  H   UNL     1       4.587  14.726  17.419  0.00  0.00    +0.000 HD
BRANCH  24  28
ATOM     28  C   UNL     1       5.736  15.419  19.042  0.00  0.00    +0.000 C 
BRANCH  28  29
ATOM     29  C   UNL     1       7.008  15.358  18.199  0.00  0.00    +0.000 C 
BRANCH  29  30
ATOM     30  O   UNL     1       8.156  15.503  19.046  0.00  0.00    +0.000 OA
BRANCH  30  32
ATOM     31  C   UNL     1       9.430  13.744  18.028  0.00  0.00    +0.000 C 
ATOM     32  C   UNL     1       8.773  14.241  19.302  0.00  0.00    +0.000 C 
ENDBRANCH  30  32
ENDBRANCH  29  30
ENDBRANCH  28  29
ENDBRANCH  24  28
ENDBRANCH  22  25
ENDBRANCH  18  22
ENDBRANCH   1  20
TORSDOF 7
ENDMDL
MODEL 9
REMARK VINA RESULT:      -5.9      7.899     10.781
REMARK  Name = 
REMARK  10 active torsions:
REMARK  status: ('A' for Active; 'I' for Inactive)
REMARK    1  A    between atoms: C_1  and  C_2
REMARK    2  A    between atoms: C_2  and  O_3
REMARK    3  A    between atoms: O_3  and  C_4
REMARK    4  A    between atoms: C_4  and  C_5
REMARK    5  A    between atoms: C_5  and  N_6
REMARK    6  A    between atoms: C_7  and  C_9
REMARK    7  A    between atoms: C_9  and  C_10
REMARK    8  A    between atoms: C_9  and  C_11
REMARK    9  A    between atoms: N_13  and  C_14
REMARK   10  A    between atoms: N_17  and  C_18
REMARK                            x       y       z     vdW  Elec       q    Type
REMARK                         _______ _______ _______ _____ _____    ______ ____
ROOT
ATOM      1  C   UNL     1      -0.103  11.926  19.582  0.00  0.00    +0.000 C 
ATOM      2  C   UNL     1      -1.544  12.081  19.032  0.00  0.00    +0.000 C 
ATOM      3  O   UNL     1      -1.855  11.559  17.955  0.00  0.00    +0.000 OA
ATOM      4  N   UNL     1      -2.494  12.687  19.862  0.00  0.00    +0.000 N 
ATOM      5  C   UNL     1      -3.898  12.372  19.641  0.00  0.00    +0.000 C 
ATOM      6  C   UNL     1      -2.176  13.357  21.077  0.00  0.00    +0.000 A 
ATOM      7  C   UNL     1      -2.610  14.687  21.201  0.00  0.00    +0.000 A 
ATOM      8  C   UNL     1      -2.199  15.471  22.278  0.00  0.00    +0.000 A 
ATOM      9  C   UNL     1      -1.383  14.921  23.259  0.00  0.00    +0.000 A 
ATOM     10  C   UNL     1      -0.986  13.584  23.170  0.00  0.00    +0.000 A 
ATOM     11  C   UNL     1      -1.361  12.777  22.079  0.00  0.00    +0.000 A 
ATOM     12  C   UNL     1      -0.816  11.405  21.965  0.00  0.00    +0.000 A 
ATOM     13  C   UNL     1      -0.889  10.507  23.042  0.00  0.00    +0.000 A 
ATOM     14  C   UNL     1      -0.393   9.206  22.928  0.00  0.00    +0.000 A 
ATOM     15  C   UNL     1       0.168   8.777  21.729  0.00  0.00    +0.000 A 
ATOM     16  C   UNL     1       0.266   9.654  20.651  0.00  0.00    +0.000 A 
ATOM     17  C   UNL     1      -0.192  10.976  20.770  0.00  0.00    +0.000 A 
ENDROOT
BRANCH   1  20
ATOM     18  C   UNL     1       1.759  13.555  19.432  0.00  0.00    +0.000 C 
ATOM     19  O   UNL     1       2.328  12.877  18.566  0.00  0.00    +0.000 OA
ATOM     20  N   UNL     1       0.561  13.167  19.958  0.00  0.00    +0.000 N 
ATOM     21  H   UNL     1       0.141  13.750  20.683  0.00  0.00    +0.000 HD
BRANCH  18  22
ATOM     22  C   UNL     1       2.291  14.901  19.892  0.00  0.00    +0.000 C 
ATOM     23  C   UNL     1       3.241  15.450  18.825  0.00  0.00    +0.000 C 
BRANCH  22  25
ATOM     24  N   UNL     1       4.204  15.084  21.468  0.00  0.00    +0.000 N 
ATOM     25  C   UNL     1       2.854  14.875  21.311  0.00  0.00    +0.000 C 
ATOM     26  O   UNL     1       2.125  14.642  22.277  0.00  0.00    +0.000 OA
ATOM     27  H   UNL     1       4.770  15.428  20.700  0.00  0.00    +0.000 HD
BRANCH  24  28
ATOM     28  C   UNL     1       4.797  15.190  22.792  0.00  0.00    +0.000 C 
BRANCH  28  29
ATOM     29  C   UNL     1       5.546  13.920  23.190  0.00  0.00    +0.000 C 
BRANCH  29  30
ATOM     30  O   UNL     1       5.043  13.434  24.442  0.00  0.00    +0.000 OA
BRANCH  30  32
ATOM     31  C   UNL     1       6.158  11.358  24.890  0.00  0.00    +0.000 C 
ATOM     32  C   UNL     1       6.080  12.837  25.220  0.00  0.00    +0.000 C 
ENDBRANCH  30  32
ENDBRANCH  29  30
ENDBRANCH  28  29
ENDBRANCH  24  28
ENDBRANCH  22  25
ENDBRANCH  18  22
ENDBRANCH   1  20
TORSDOF 7
ENDMDL
