MODEL 1
REMARK VINA RESULT:      -7.5      0.000      0.000
REMARK  Name = 
REMARK  14 active torsions:
REMARK  status: ('A' for Active; 'I' for Inactive)
REMARK    1  A    between atoms: C_1  and  C_2
REMARK    2  A    between atoms: C_2  and  C_3
REMARK    3  A    between atoms: C_3  and  C_4
REMARK    4  A    between atoms: C_4  and  N_5
REMARK    5  A    between atoms: N_5  and  C_6
REMARK    6  A    between atoms: N_5  and  C_8
REMARK    7  A    between atoms: C_6  and  C_7
REMARK    8  A    between atoms: C_8  and  C_9
REMARK    9  A    between atoms: C_9  and  C_10
REMARK   10  A    between atoms: C_10  and  N_11
REMARK   11  A    between atoms: C_12  and  C_14
REMARK   12  A    between atoms: C_14  and  N_15
REMARK   13  A    between atoms: C_17  and  C_18
REMARK   14  A    between atoms: C_18  and  C_19
REMARK                            x       y       z     vdW  Elec       q    Type
REMARK                         _______ _______ _______ _____ _____    ______ ____
ROOT
ATOM      1  N   UNL     1       4.316   5.589  17.326  0.00  0.00    +0.000 N 
ATOM      2  N   UNL     1       3.944   6.392  18.372  0.00  0.00    +0.000 NA
ATOM      3  C   UNL     1       3.011   5.992  19.184  0.00  0.00    +0.000 A 
ATOM      4  C   UNL     1       2.351   4.675  19.067  0.00  0.00    +0.000 A 
ATOM      5  C   UNL     1       1.314   4.245  19.914  0.00  0.00    +0.000 A 
ATOM      6  C   UNL     1       0.753   2.980  19.744  0.00  0.00    +0.000 A 
ATOM      7  C   UNL     1       1.213   2.129  18.745  0.00  0.00    +0.000 A 
ATOM      8  C   UNL     1       2.236   2.557  17.891  0.00  0.00    +0.000 A 
ATOM      9  C   UNL     1       2.793   3.831  18.052  0.00  0.00    +0.000 A 
ATOM     10  C   UNL     1       3.820   4.311  17.108  0.00  0.00    +0.000 A 
ATOM     11  O   UNL     1       4.177   3.589  16.180  0.00  0.00    +0.000 OA
ENDROOT
BRANCH   1  12
ATOM     12  C   UNL     1       5.177   6.192  16.317  0.00  0.00    +0.000 C 
BRANCH  12  14
ATOM     13  N   UNL     1       6.795   7.604  17.491  0.00  0.00    +0.000 N 
ATOM     14  C   UNL     1       6.603   6.391  16.854  0.00  0.00    +0.000 C 
ATOM     15  O   UNL     1       7.517   5.585  16.692  0.00  0.00    +0.000 OA
ATOM     16  H   UNL     1       6.034   8.267  17.564  0.00  0.00    +0.000 HD
BRANCH  13  17
ATOM     17  C   UNL     1       8.073   7.989  18.060  0.00  0.00    +0.000 C 
BRANCH  17  18
ATOM     18  C   UNL     1       8.313   9.496  17.996  0.00  0.00    +0.000 C 
BRANCH  18  19
ATOM     19  C   UNL     1       9.369  10.004  18.991  0.00  0.00    +0.000 C 
BRANCH  19  20
ATOM     20  N   UNL     1       9.875  11.365  18.728  0.00  0.00    +0.000 NA
BRANCH  20  21
ATOM     21  C   UNL     1      11.339  11.430  18.906  0.00  0.00    +0.000 C 
ATOM     22  C   UNL     1      12.052  12.627  18.280  0.00  0.00    +0.000 C 
ENDBRANCH  20  21
BRANCH  20  23
ATOM     23  C   UNL     1       9.138  12.388  19.497  0.00  0.00    +0.000 C 
BRANCH  23  24
ATOM     24  C   UNL     1       9.452  12.374  20.999  0.00  0.00    +0.000 C 
BRANCH  24  26
ATOM     25  C   UNL     1       9.726  14.795  20.440  0.00  0.00    +0.000 C 
ATOM     26  C   UNL     1       9.974  13.723  21.492  0.00  0.00    +0.000 C 
ENDBRANCH  24  26
ENDBRANCH  23  24
ENDBRANCH  20  23
ENDBRANCH  19  20
ENDBRANCH  18  19
ENDBRANCH  17  18
ENDBRANCH  13  17
ENDBRANCH  12  14
ENDBRANCH   1  12
BRANCH   3  27
ATOM     27  C   UNL     1       2.552   6.989  20.242  0.00  0.00    +0.000 C 
BRANCH  27  28
ATOM     28  C   UNL     1       1.776   8.144  19.654  0.00  0.00    +0.000 A 
ATOM     29  C   UNL     1       0.915   8.900  20.457  0.00  0.00    +0.000 A 
ATOM     30  C   UNL     1       0.199   9.937  19.874  0.00  0.00    +0.000 A 
ATOM     31  N   UNL     1       0.291  10.282  18.574  0.00  0.00    +0.000 NA
ATOM     32  C   UNL     1       1.159   9.575  17.822  0.00  0.00    +0.000 A 
ATOM     33  C   UNL     1       1.920   8.526  18.314  0.00  0.00    +0.000 A 
ENDBRANCH  27  28
ENDBRANCH   3  27
TORSDOF 12
ENDMDL
MODEL 2
REMARK VINA RESULT:      -7.4      1.776      2.224
REMARK  Name = 
REMARK  14 active torsions:
REMARK  status: ('A' for Active; 'I' for Inactive)
REMARK    1  A    between atoms: C_1  and  C_2
REMARK    2  A    between atoms: C_2  and  C_3
REMARK    3  A    between atoms: C_3  and  C_4
REMARK    4  A    between atoms: C_4  and  N_5
REMARK    5  A    between atoms: N_5  and  C_6
REMARK    6  A    between atoms: N_5  and  C_8
REMARK    7  A    between atoms: C_6  and  C_7
REMARK    8  A    between atoms: C_8  and  C_9
REMARK    9  A    between atoms: C_9  and  C_10
REMARK   10  A    between atoms: C_10  and  N_11
REMARK   11  A    between atoms: C_12  and  C_14
REMARK   12  A    between atoms: C_14  and  N_15
REMARK   13  A    between atoms: C_17  and  C_18
REMARK   14  A    between atoms: C_18  and  C_19
REMARK                            x       y       z     vdW  Elec       q    Type
REMARK                         _______ _______ _______ _____ _____    ______ ____
ROOT
ATOM      1  N   UNL     1       5.339   4.885  19.022  0.00  0.00    +0.000 N 
ATOM      2  N   UNL     1       4.697   5.975  18.497  0.00  0.00    +0.000 NA
ATOM      3  C   UNL     1       3.447   5.876  18.152  0.00  0.00    +0.000 A 
ATOM      4  C   UNL     1       2.654   4.645  18.343  0.00  0.00    +0.000 A 
ATOM      5  C   UNL     1       1.313   4.511  17.939  0.00  0.00    +0.000 A 
ATOM      6  C   UNL     1       0.631   3.317  18.167  0.00  0.00    +0.000 A 
ATOM      7  C   UNL     1       1.262   2.250  18.799  0.00  0.00    +0.000 A 
ATOM      8  C   UNL     1       2.599   2.373  19.191  0.00  0.00    +0.000 A 
ATOM      9  C   UNL     1       3.290   3.567  18.952  0.00  0.00    +0.000 A 
ATOM     10  C   UNL     1       4.721   3.673  19.299  0.00  0.00    +0.000 A 
ATOM     11  O   UNL     1       5.300   2.708  19.792  0.00  0.00    +0.000 OA
ENDROOT
BRANCH   1  12
ATOM     12  C   UNL     1       6.787   4.982  19.153  0.00  0.00    +0.000 C 
BRANCH  12  14
ATOM     13  N   UNL     1       7.476   7.246  18.529  0.00  0.00    +0.000 N 
ATOM     14  C   UNL     1       7.374   5.935  18.100  0.00  0.00    +0.000 C 
ATOM     15  O   UNL     1       7.677   5.594  16.957  0.00  0.00    +0.000 OA
ATOM     16  H   UNL     1       7.172   7.502  19.460  0.00  0.00    +0.000 HD
BRANCH  13  17
ATOM     17  C   UNL     1       7.998   8.302  17.682  0.00  0.00    +0.000 C 
BRANCH  17  18
ATOM     18  C   UNL     1       8.911   9.263  18.440  0.00  0.00    +0.000 C 
BRANCH  18  19
ATOM     19  C   UNL     1       8.501  10.740  18.322  0.00  0.00    +0.000 C 
BRANCH  19  20
ATOM     20  N   UNL     1       9.613  11.684  18.095  0.00  0.00    +0.000 NA
BRANCH  20  21
ATOM     21  C   UNL     1      10.771  11.353  18.949  0.00  0.00    +0.000 C 
ATOM     22  C   UNL     1      10.797  11.983  20.340  0.00  0.00    +0.000 C 
ENDBRANCH  20  21
BRANCH  20  23
ATOM     23  C   UNL     1       9.177  13.090  18.204  0.00  0.00    +0.000 C 
BRANCH  23  24
ATOM     24  C   UNL     1       7.829  13.371  17.528  0.00  0.00    +0.000 C 
BRANCH  24  26
ATOM     25  C   UNL     1       5.638  14.548  17.774  0.00  0.00    +0.000 C 
ATOM     26  C   UNL     1       7.113  14.572  18.144  0.00  0.00    +0.000 C 
ENDBRANCH  24  26
ENDBRANCH  23  24
ENDBRANCH  20  23
ENDBRANCH  19  20
ENDBRANCH  18  19
ENDBRANCH  17  18
ENDBRANCH  13  17
ENDBRANCH  12  14
ENDBRANCH   1  12
BRANCH   3  27
ATOM     27  C   UNL     1       2.835   7.083  17.451  0.00  0.00    +0.000 C 
BRANCH  27  28
ATOM     28  C   UNL     1       2.153   8.029  18.411  0.00  0.00    +0.000 A 
ATOM     29  C   UNL     1       1.616   9.237  17.952  0.00  0.00    +0.000 A 
ATOM     30  C   UNL     1       1.021  10.093  18.870  0.00  0.00    +0.000 A 
ATOM     31  N   UNL     1       0.908   9.828  20.186  0.00  0.00    +0.000 NA
ATOM     32  C   UNL     1       1.388   8.640  20.607  0.00  0.00    +0.000 A 
ATOM     33  C   UNL     1       1.995   7.719  19.768  0.00  0.00    +0.000 A 
ENDBRANCH  27  28
ENDBRANCH   3  27
TORSDOF 12
ENDMDL
MODEL 3
REMARK VINA RESULT:      -7.4      1.617      2.205
REMARK  Name = 
REMARK  14 active torsions:
REMARK  status: ('A' for Active; 'I' for Inactive)
REMARK    1  A    between atoms: C_1  and  C_2
REMARK    2  A    between atoms: C_2  and  C_3
REMARK    3  A    between atoms: C_3  and  C_4
REMARK    4  A    between atoms: C_4  and  N_5
REMARK    5  A    between atoms: N_5  and  C_6
REMARK    6  A    between atoms: N_5  and  C_8
REMARK    7  A    between atoms: C_6  and  C_7
REMARK    8  A    between atoms: C_8  and  C_9
REMARK    9  A    between atoms: C_9  and  C_10
REMARK   10  A    between atoms: C_10  and  N_11
REMARK   11  A    between atoms: C_12  and  C_14
REMARK   12  A    between atoms: C_14  and  N_15
REMARK   13  A    between atoms: C_17  and  C_18
REMARK   14  A    between atoms: C_18  and  C_19
REMARK                            x       y       z     vdW  Elec       q    Type
REMARK                         _______ _______ _______ _____ _____    ______ ____
ROOT
ATOM      1  N   UNL     1       5.523   5.028  18.638  0.00  0.00    +0.000 N 
ATOM      2  N   UNL     1       4.828   6.113  18.172  0.00  0.00    +0.000 NA
ATOM      3  C   UNL     1       3.554   6.003  17.936  0.00  0.00    +0.000 A 
ATOM      4  C   UNL     1       2.791   4.764  18.194  0.00  0.00    +0.000 A 
ATOM      5  C   UNL     1       1.422   4.619  17.908  0.00  0.00    +0.000 A 
ATOM      6  C   UNL     1       0.773   3.418  18.193  0.00  0.00    +0.000 A 
ATOM      7  C   UNL     1       1.465   2.357  18.766  0.00  0.00    +0.000 A 
ATOM      8  C   UNL     1       2.830   2.492  19.041  0.00  0.00    +0.000 A 
ATOM      9  C   UNL     1       3.487   3.692  18.744  0.00  0.00    +0.000 A 
ATOM     10  C   UNL     1       4.942   3.811  18.966  0.00  0.00    +0.000 A 
ATOM     11  O   UNL     1       5.570   2.850  19.405  0.00  0.00    +0.000 OA
ENDROOT
BRANCH   1  12
ATOM     12  C   UNL     1       6.975   5.138  18.642  0.00  0.00    +0.000 C 
BRANCH  12  14
ATOM     13  N   UNL     1       7.841   7.423  18.492  0.00  0.00    +0.000 N 
ATOM     14  C   UNL     1       7.444   6.312  17.768  0.00  0.00    +0.000 C 
ATOM     15  O   UNL     1       7.420   6.306  16.538  0.00  0.00    +0.000 OA
ATOM     16  H   UNL     1       7.801   7.412  19.503  0.00  0.00    +0.000 HD
BRANCH  13  17
ATOM     17  C   UNL     1       8.309   8.638  17.854  0.00  0.00    +0.000 C 
BRANCH  17  18
ATOM     18  C   UNL     1       8.915   9.625  18.849  0.00  0.00    +0.000 C 
BRANCH  18  19
ATOM     19  C   UNL     1       9.192  11.018  18.259  0.00  0.00    +0.000 C 
BRANCH  19  20
ATOM     20  N   UNL     1       9.852  11.968  19.176  0.00  0.00    +0.000 NA
BRANCH  20  21
ATOM     21  C   UNL     1       9.871  11.445  20.556  0.00  0.00    +0.000 C 
ATOM     22  C   UNL     1       9.095  12.243  21.602  0.00  0.00    +0.000 C 
ENDBRANCH  20  21
BRANCH  20  23
ATOM     23  C   UNL     1       9.288  13.328  19.065  0.00  0.00    +0.000 C 
BRANCH  23  24
ATOM     24  C   UNL     1       9.740  14.081  17.807  0.00  0.00    +0.000 C 
BRANCH  24  26
ATOM     25  C   UNL     1      10.992  16.047  16.903  0.00  0.00    +0.000 C 
ATOM     26  C   UNL     1      10.328  15.453  18.136  0.00  0.00    +0.000 C 
ENDBRANCH  24  26
ENDBRANCH  23  24
ENDBRANCH  20  23
ENDBRANCH  19  20
ENDBRANCH  18  19
ENDBRANCH  17  18
ENDBRANCH  13  17
ENDBRANCH  12  14
ENDBRANCH   1  12
BRANCH   3  27
ATOM     27  C   UNL     1       2.872   7.205  17.293  0.00  0.00    +0.000 C 
BRANCH  27  28
ATOM     28  C   UNL     1       2.202   8.104  18.304  0.00  0.00    +0.000 A 
ATOM     29  C   UNL     1       1.709   9.356  17.921  0.00  0.00    +0.000 A 
ATOM     30  C   UNL     1       1.123  10.166  18.886  0.00  0.00    +0.000 A 
ATOM     31  N   UNL     1       0.980   9.816  20.179  0.00  0.00    +0.000 NA
ATOM     32  C   UNL     1       1.418   8.588  20.526  0.00  0.00    +0.000 A 
ATOM     33  C   UNL     1       2.012   7.708  19.635  0.00  0.00    +0.000 A 
ENDBRANCH  27  28
ENDBRANCH   3  27
TORSDOF 12
ENDMDL
MODEL 4
REMARK VINA RESULT:      -7.3      0.681      1.164
REMARK  Name = 
REMARK  14 active torsions:
REMARK  status: ('A' for Active; 'I' for Inactive)
REMARK    1  A    between atoms: C_1  and  C_2
REMARK    2  A    between atoms: C_2  and  C_3
REMARK    3  A    between atoms: C_3  and  C_4
REMARK    4  A    between atoms: C_4  and  N_5
REMARK    5  A    between atoms: N_5  and  C_6
REMARK    6  A    between atoms: N_5  and  C_8
REMARK    7  A    between atoms: C_6  and  C_7
REMARK    8  A    between atoms: C_8  and  C_9
REMARK    9  A    between atoms: C_9  and  C_10
REMARK   10  A    between atoms: C_10  and  N_11
REMARK   11  A    between atoms: C_12  and  C_14
REMARK   12  A    between atoms: C_14  and  N_15
REMARK   13  A    between atoms: C_17  and  C_18
REMARK   14  A    between atoms: C_18  and  C_19
REMARK                            x       y       z     vdW  Elec       q    Type
REMARK                         _______ _______ _______ _____ _____    ______ ____
ROOT
ATOM      1  N   UNL     1       4.345   5.643  17.583  0.00  0.00    +0.000 N 
ATOM      2  N   UNL     1       3.874   6.406  18.618  0.00  0.00    +0.000 NA
ATOM      3  C   UNL     1       2.888   5.963  19.342  0.00  0.00    +0.000 A 
ATOM      4  C   UNL     1       2.270   4.637  19.134  0.00  0.00    +0.000 A 
ATOM      5  C   UNL     1       1.178   4.161  19.883  0.00  0.00    +0.000 A 
ATOM      6  C   UNL     1       0.660   2.891  19.632  0.00  0.00    +0.000 A 
ATOM      7  C   UNL     1       1.216   2.081  18.649  0.00  0.00    +0.000 A 
ATOM      8  C   UNL     1       2.294   2.554  17.892  0.00  0.00    +0.000 A 
ATOM      9  C   UNL     1       2.808   3.834  18.134  0.00  0.00    +0.000 A 
ATOM     10  C   UNL     1       3.896   4.363  17.288  0.00  0.00    +0.000 A 
ATOM     11  O   UNL     1       4.341   3.677  16.371  0.00  0.00    +0.000 OA
ENDROOT
BRANCH   1  12
ATOM     12  C   UNL     1       5.269   6.293  16.663  0.00  0.00    +0.000 C 
BRANCH  12  14
ATOM     13  N   UNL     1       7.008   7.894  17.300  0.00  0.00    +0.000 N 
ATOM     14  C   UNL     1       6.622   6.566  17.339  0.00  0.00    +0.000 C 
ATOM     15  O   UNL     1       7.337   5.691  17.825  0.00  0.00    +0.000 OA
ATOM     16  H   UNL     1       6.418   8.582  16.849  0.00  0.00    +0.000 HD
BRANCH  13  17
ATOM     17  C   UNL     1       8.256   8.358  17.875  0.00  0.00    +0.000 C 
BRANCH  17  18
ATOM     18  C   UNL     1       8.235   9.852  18.192  0.00  0.00    +0.000 C 
BRANCH  18  19
ATOM     19  C   UNL     1       9.501  10.358  18.903  0.00  0.00    +0.000 C 
BRANCH  19  20
ATOM     20  N   UNL     1       9.412  11.731  19.439  0.00  0.00    +0.000 NA
BRANCH  20  21
ATOM     21  C   UNL     1       9.926  12.714  18.465  0.00  0.00    +0.000 C 
ATOM     22  C   UNL     1      11.006  12.224  17.503  0.00  0.00    +0.000 C 
ENDBRANCH  20  21
BRANCH  20  23
ATOM     23  C   UNL     1      10.027  11.844  20.777  0.00  0.00    +0.000 C 
BRANCH  23  24
ATOM     24  C   UNL     1       9.140  12.562  21.803  0.00  0.00    +0.000 C 
BRANCH  24  26
ATOM     25  C   UNL     1       8.604  14.707  22.968  0.00  0.00    +0.000 C 
ATOM     26  C   UNL     1       9.583  14.005  22.038  0.00  0.00    +0.000 C 
ENDBRANCH  24  26
ENDBRANCH  23  24
ENDBRANCH  20  23
ENDBRANCH  19  20
ENDBRANCH  18  19
ENDBRANCH  17  18
ENDBRANCH  13  17
ENDBRANCH  12  14
ENDBRANCH   1  12
BRANCH   3  27
ATOM     27  C   UNL     1       2.325   6.918  20.388  0.00  0.00    +0.000 C 
BRANCH  27  28
ATOM     28  C   UNL     1       1.714   8.156  19.775  0.00  0.00    +0.000 A 
ATOM     29  C   UNL     1       1.870   8.421  18.410  0.00  0.00    +0.000 A 
ATOM     30  C   UNL     1       1.316   9.583  17.889  0.00  0.00    +0.000 A 
ATOM     31  N   UNL     1       0.614  10.476  18.615  0.00  0.00    +0.000 NA
ATOM     32  C   UNL     1       0.432  10.186  19.919  0.00  0.00    +0.000 A 
ATOM     33  C   UNL     1       0.942   9.050  20.529  0.00  0.00    +0.000 A 
ENDBRANCH  27  28
ENDBRANCH   3  27
TORSDOF 12
ENDMDL
MODEL 5
REMARK VINA RESULT:      -7.3      4.531      7.853
REMARK  Name = 
REMARK  14 active torsions:
REMARK  status: ('A' for Active; 'I' for Inactive)
REMARK    1  A    between atoms: C_1  and  C_2
REMARK    2  A    between atoms: C_2  and  C_3
REMARK    3  A    between atoms: C_3  and  C_4
REMARK    4  A    between atoms: C_4  and  N_5
REMARK    5  A    between atoms: N_5  and  C_6
REMARK    6  A    between atoms: N_5  and  C_8
REMARK    7  A    between atoms: C_6  and  C_7
REMARK    8  A    between atoms: C_8  and  C_9
REMARK    9  A    between atoms: C_9  and  C_10
REMARK   10  A    between atoms: C_10  and  N_11
REMARK   11  A    between atoms: C_12  and  C_14
REMARK   12  A    between atoms: C_14  and  N_15
REMARK   13  A    between atoms: C_17  and  C_18
REMARK   14  A    between atoms: C_18  and  C_19
REMARK                            x       y       z     vdW  Elec       q    Type
REMARK                         _______ _______ _______ _____ _____    ______ ____
ROOT
ATOM      1  N   UNL     1       2.850   7.690  17.995  0.00  0.00    +0.000 N 
ATOM      2  N   UNL     1       2.788   6.607  18.832  0.00  0.00    +0.000 NA
ATOM      3  C   UNL     1       2.133   6.701  19.951  0.00  0.00    +0.000 A 
ATOM      4  C   UNL     1       1.398   7.917  20.354  0.00  0.00    +0.000 A 
ATOM      5  C   UNL     1       0.717   8.046  21.579  0.00  0.00    +0.000 A 
ATOM      6  C   UNL     1       0.036   9.225  21.878  0.00  0.00    +0.000 A 
ATOM      7  C   UNL     1       0.015  10.281  20.972  0.00  0.00    +0.000 A 
ATOM      8  C   UNL     1       0.701  10.163  19.759  0.00  0.00    +0.000 A 
ATOM      9  C   UNL     1       1.395   8.984  19.461  0.00  0.00    +0.000 A 
ATOM     10  C   UNL     1       2.179   8.885  18.214  0.00  0.00    +0.000 A 
ATOM     11  O   UNL     1       2.222   9.843  17.446  0.00  0.00    +0.000 OA
ENDROOT
BRANCH   1  12
ATOM     12  C   UNL     1       3.796   7.606  16.891  0.00  0.00    +0.000 C 
BRANCH  12  14
ATOM     13  N   UNL     1       5.703   6.298  16.088  0.00  0.00    +0.000 N 
ATOM     14  C   UNL     1       4.880   6.554  17.170  0.00  0.00    +0.000 C 
ATOM     15  O   UNL     1       4.987   5.942  18.232  0.00  0.00    +0.000 OA
ATOM     16  H   UNL     1       5.557   6.784  15.212  0.00  0.00    +0.000 HD
BRANCH  13  17
ATOM     17  C   UNL     1       6.783   5.332  16.144  0.00  0.00    +0.000 C 
BRANCH  17  18
ATOM     18  C   UNL     1       6.477   4.065  15.348  0.00  0.00    +0.000 C 
BRANCH  18  19
ATOM     19  C   UNL     1       5.823   4.328  13.981  0.00  0.00    +0.000 C 
BRANCH  19  20
ATOM     20  N   UNL     1       6.243   3.415  12.899  0.00  0.00    +0.000 NA
BRANCH  20  21
ATOM     21  C   UNL     1       7.239   4.058  12.020  0.00  0.00    +0.000 C 
ATOM     22  C   UNL     1       7.752   5.429  12.454  0.00  0.00    +0.000 C 
ENDBRANCH  20  21
BRANCH  20  23
ATOM     23  C   UNL     1       5.088   2.850  12.173  0.00  0.00    +0.000 C 
BRANCH  23  24
ATOM     24  C   UNL     1       4.243   3.904  11.444  0.00  0.00    +0.000 C 
BRANCH  24  26
ATOM     25  C   UNL     1       2.792   4.385   9.468  0.00  0.00    +0.000 C 
ATOM     26  C   UNL     1       3.374   3.289  10.348  0.00  0.00    +0.000 C 
ENDBRANCH  24  26
ENDBRANCH  23  24
ENDBRANCH  20  23
ENDBRANCH  19  20
ENDBRANCH  18  19
ENDBRANCH  17  18
ENDBRANCH  13  17
ENDBRANCH  12  14
ENDBRANCH   1  12
BRANCH   3  27
ATOM     27  C   UNL     1       2.220   5.507  20.896  0.00  0.00    +0.000 C 
BRANCH  27  28
ATOM     28  C   UNL     1       2.147   4.185  20.169  0.00  0.00    +0.000 A 
ATOM     29  C   UNL     1       0.929   3.725  19.657  0.00  0.00    +0.000 A 
ATOM     30  C   UNL     1       0.896   2.492  19.019  0.00  0.00    +0.000 A 
ATOM     31  N   UNL     1       1.976   1.705  18.842  0.00  0.00    +0.000 NA
ATOM     32  C   UNL     1       3.152   2.181  19.299  0.00  0.00    +0.000 A 
ATOM     33  C   UNL     1       3.286   3.400  19.945  0.00  0.00    +0.000 A 
ENDBRANCH  27  28
ENDBRANCH   3  27
TORSDOF 12
ENDMDL
MODEL 6
REMARK VINA RESULT:      -7.2      1.493      1.912
REMARK  Name = 
REMARK  14 active torsions:
REMARK  status: ('A' for Active; 'I' for Inactive)
REMARK    1  A    between atoms: C_1  and  C_2
REMARK    2  A    between atoms: C_2  and  C_3
REMARK    3  A    between atoms: C_3  and  C_4
REMARK    4  A    between atoms: C_4  and  N_5
REMARK    5  A    between atoms: N_5  and  C_6
REMARK    6  A    between atoms: N_5  and  C_8
REMARK    7  A    between atoms: C_6  and  C_7
REMARK    8  A    between atoms: C_8  and  C_9
REMARK    9  A    between atoms: C_9  and  C_10
REMARK   10  A    between atoms: C_10  and  N_11
REMARK   11  A    between atoms: C_12  and  C_14
REMARK   12  A    between atoms: C_14  and  N_15
REMARK   13  A    between atoms: C_17  and  C_18
REMARK   14  A    between atoms: C_18  and  C_19
REMARK                            x       y       z     vdW  Elec       q    Type
REMARK                         _______ _______ _______ _____ _____    ______ ____
ROOT
ATOM      1  N   UNL     1       5.621   5.361  18.709  0.00  0.00    +0.000 N 
ATOM      2  N   UNL     1       4.889   6.429  18.263  0.00  0.00    +0.000 NA
ATOM      3  C   UNL     1       3.628   6.269  17.988  0.00  0.00    +0.000 A 
ATOM      4  C   UNL     1       2.918   4.987  18.180  0.00  0.00    +0.000 A 
ATOM      5  C   UNL     1       1.565   4.789  17.851  0.00  0.00    +0.000 A 
ATOM      6  C   UNL     1       0.966   3.550  18.075  0.00  0.00    +0.000 A 
ATOM      7  C   UNL     1       1.693   2.502  18.629  0.00  0.00    +0.000 A 
ATOM      8  C   UNL     1       3.043   2.689  18.946  0.00  0.00    +0.000 A 
ATOM      9  C   UNL     1       3.649   3.929  18.711  0.00  0.00    +0.000 A 
ATOM     10  C   UNL     1       5.090   4.107  18.978  0.00  0.00    +0.000 A 
ATOM     11  O   UNL     1       5.751   3.161  19.400  0.00  0.00    +0.000 OA
ENDROOT
BRANCH   1  12
ATOM     12  C   UNL     1       7.067   5.538  18.758  0.00  0.00    +0.000 C 
BRANCH  12  14
ATOM     13  N   UNL     1       7.833   7.826  18.347  0.00  0.00    +0.000 N 
ATOM     14  C   UNL     1       7.526   6.611  17.760  0.00  0.00    +0.000 C 
ATOM     15  O   UNL     1       7.569   6.444  16.542  0.00  0.00    +0.000 OA
ATOM     16  H   UNL     1       7.741   7.944  19.348  0.00  0.00    +0.000 HD
BRANCH  13  17
ATOM     17  C   UNL     1       8.279   8.971  17.576  0.00  0.00    +0.000 C 
BRANCH  17  18
ATOM     18  C   UNL     1       8.670  10.154  18.459  0.00  0.00    +0.000 C 
BRANCH  18  19
ATOM     19  C   UNL     1      10.031  10.776  18.104  0.00  0.00    +0.000 C 
BRANCH  19  20
ATOM     20  N   UNL     1       9.991  12.208  17.744  0.00  0.00    +0.000 NA
BRANCH  20  21
ATOM     21  C   UNL     1      11.093  12.947  18.391  0.00  0.00    +0.000 C 
ATOM     22  C   UNL     1      12.004  12.145  19.317  0.00  0.00    +0.000 C 
ENDBRANCH  20  21
BRANCH  20  23
ATOM     23  C   UNL     1       8.659  12.800  17.981  0.00  0.00    +0.000 C 
BRANCH  23  24
ATOM     24  C   UNL     1       8.707  14.281  18.382  0.00  0.00    +0.000 C 
BRANCH  24  26
ATOM     25  C   UNL     1       8.677  15.477  20.576  0.00  0.00    +0.000 C 
ATOM     26  C   UNL     1       7.894  14.564  19.644  0.00  0.00    +0.000 C 
ENDBRANCH  24  26
ENDBRANCH  23  24
ENDBRANCH  20  23
ENDBRANCH  19  20
ENDBRANCH  18  19
ENDBRANCH  17  18
ENDBRANCH  13  17
ENDBRANCH  12  14
ENDBRANCH   1  12
BRANCH   3  27
ATOM     27  C   UNL     1       2.907   7.460  17.368  0.00  0.00    +0.000 C 
BRANCH  27  28
ATOM     28  C   UNL     1       2.117   8.254  18.382  0.00  0.00    +0.000 A 
ATOM     29  C   UNL     1       1.466   9.433  18.006  0.00  0.00    +0.000 A 
ATOM     30  C   UNL     1       0.772  10.149  18.972  0.00  0.00    +0.000 A 
ATOM     31  N   UNL     1       0.667   9.771  20.262  0.00  0.00    +0.000 NA
ATOM     32  C   UNL     1       1.261   8.609  20.601  0.00  0.00    +0.000 A 
ATOM     33  C   UNL     1       1.972   7.823  19.708  0.00  0.00    +0.000 A 
ENDBRANCH  27  28
ENDBRANCH   3  27
TORSDOF 12
ENDMDL
MODEL 7
REMARK VINA RESULT:      -7.2      3.399      8.853
REMARK  Name = 
REMARK  14 active torsions:
REMARK  status: ('A' for Active; 'I' for Inactive)
REMARK    1  A    between atoms: C_1  and  C_2
REMARK    2  A    between atoms: C_2  and  C_3
REMARK    3  A    between atoms: C_3  and  C_4
REMARK    4  A    between atoms: C_4  and  N_5
REMARK    5  A    between atoms: N_5  and  C_6
REMARK    6  A    between atoms: N_5  and  C_8
REMARK    7  A    between atoms: C_6  and  C_7
REMARK    8  A    between atoms: C_8  and  C_9
REMARK    9  A    between atoms: C_9  and  C_10
REMARK   10  A    between atoms: C_10  and  N_11
REMARK   11  A    between atoms: C_12  and  C_14
REMARK   12  A    between atoms: C_14  and  N_15
REMARK   13  A    between atoms: C_17  and  C_18
REMARK   14  A    between atoms: C_18  and  C_19
REMARK                            x       y       z     vdW  Elec       q    Type
REMARK                         _______ _______ _______ _____ _____    ______ ____
ROOT
ATOM      1  N   UNL     1       2.316   6.657  19.294  0.00  0.00    +0.000 N 
ATOM      2  N   UNL     1       3.269   6.746  18.314  0.00  0.00    +0.000 NA
ATOM      3  C   UNL     1       3.738   5.658  17.777  0.00  0.00    +0.000 A 
ATOM      4  C   UNL     1       3.256   4.309  18.139  0.00  0.00    +0.000 A 
ATOM      5  C   UNL     1       3.780   3.123  17.596  0.00  0.00    +0.000 A 
ATOM      6  C   UNL     1       3.261   1.888  17.982  0.00  0.00    +0.000 A 
ATOM      7  C   UNL     1       2.219   1.814  18.901  0.00  0.00    +0.000 A 
ATOM      8  C   UNL     1       1.702   2.990  19.454  0.00  0.00    +0.000 A 
ATOM      9  C   UNL     1       2.230   4.231  19.077  0.00  0.00    +0.000 A 
ATOM     10  C   UNL     1       1.736   5.467  19.714  0.00  0.00    +0.000 A 
ATOM     11  O   UNL     1       0.865   5.399  20.578  0.00  0.00    +0.000 OA
ENDROOT
BRANCH   1  12
ATOM     12  C   UNL     1       2.018   7.881  20.025  0.00  0.00    +0.000 C 
BRANCH  12  14
ATOM     13  N   UNL     1       0.865  10.024  19.760  0.00  0.00    +0.000 N 
ATOM     14  C   UNL     1       1.430   8.952  19.093  0.00  0.00    +0.000 C 
ATOM     15  O   UNL     1       1.403   8.856  17.867  0.00  0.00    +0.000 OA
ATOM     16  H   UNL     1       0.861  10.048  20.772  0.00  0.00    +0.000 HD
BRANCH  13  17
ATOM     17  C   UNL     1       0.250  11.137  19.063  0.00  0.00    +0.000 C 
BRANCH  17  18
ATOM     18  C   UNL     1      -1.272  11.025  19.011  0.00  0.00    +0.000 C 
BRANCH  18  19
ATOM     19  C   UNL     1      -1.895  11.559  17.710  0.00  0.00    +0.000 C 
BRANCH  19  20
ATOM     20  N   UNL     1      -3.124  10.868  17.273  0.00  0.00    +0.000 NA
BRANCH  20  21
ATOM     21  C   UNL     1      -3.412  11.147  15.852  0.00  0.00    +0.000 C 
ATOM     22  C   UNL     1      -3.081  10.037  14.857  0.00  0.00    +0.000 C 
ENDBRANCH  20  21
BRANCH  20  23
ATOM     23  C   UNL     1      -4.262  11.142  18.174  0.00  0.00    +0.000 C 
BRANCH  23  24
ATOM     24  C   UNL     1      -5.575  11.432  17.435  0.00  0.00    +0.000 C 
BRANCH  24  26
ATOM     25  C   UNL     1      -6.497  11.465  19.758  0.00  0.00    +0.000 C 
ATOM     26  C   UNL     1      -6.800  11.144  18.303  0.00  0.00    +0.000 C 
ENDBRANCH  24  26
ENDBRANCH  23  24
ENDBRANCH  20  23
ENDBRANCH  19  20
ENDBRANCH  18  19
ENDBRANCH  17  18
ENDBRANCH  13  17
ENDBRANCH  12  14
ENDBRANCH   1  12
BRANCH   3  27
ATOM     27  C   UNL     1       4.889   5.824  16.792  0.00  0.00    +0.000 C 
BRANCH  27  28
ATOM     28  C   UNL     1       6.145   6.345  17.449  0.00  0.00    +0.000 A 
ATOM     29  C   UNL     1       6.800   5.587  18.426  0.00  0.00    +0.000 A 
ATOM     30  C   UNL     1       7.937   6.112  19.026  0.00  0.00    +0.000 A 
ATOM     31  N   UNL     1       8.470   7.311  18.716  0.00  0.00    +0.000 NA
ATOM     32  C   UNL     1       7.855   8.011  17.741  0.00  0.00    +0.000 A 
ATOM     33  C   UNL     1       6.719   7.570  17.081  0.00  0.00    +0.000 A 
ENDBRANCH  27  28
ENDBRANCH   3  27
TORSDOF 12
ENDMDL
MODEL 8
REMARK VINA RESULT:      -7.2      4.744      7.951
REMARK  Name = 
REMARK  14 active torsions:
REMARK  status: ('A' for Active; 'I' for Inactive)
REMARK    1  A    between atoms: C_1  and  C_2
REMARK    2  A    between atoms: C_2  and  C_3
REMARK    3  A    between atoms: C_3  and  C_4
REMARK    4  A    between atoms: C_4  and  N_5
REMARK    5  A    between atoms: N_5  and  C_6
REMARK    6  A    between atoms: N_5  and  C_8
REMARK    7  A    between atoms: C_6  and  C_7
REMARK    8  A    between atoms: C_8  and  C_9
REMARK    9  A    between atoms: C_9  and  C_10
REMARK   10  A    between atoms: C_10  and  N_11
REMARK   11  A    between atoms: C_12  and  C_14
REMARK   12  A    between atoms: C_14  and  N_15
REMARK   13  A    between atoms: C_17  and  C_18
REMARK   14  A    between atoms: C_18  and  C_19
REMARK                            x       y       z     vdW  Elec       q    Type
REMARK                         _______ _______ _______ _____ _____    ______ ____
ROOT
ATOM      1  N   UNL     1       2.858   6.895  18.309  0.00  0.00    +0.000 N 
ATOM      2  N   UNL     1       3.268   5.956  17.399  0.00  0.00    +0.000 NA
ATOM      3  C   UNL     1       3.330   4.706  17.754  0.00  0.00    +0.000 A 
ATOM      4  C   UNL     1       2.929   4.229  19.094  0.00  0.00    +0.000 A 
ATOM      5  C   UNL     1       3.027   2.888  19.505  0.00  0.00    +0.000 A 
ATOM      6  C   UNL     1       2.615   2.517  20.784  0.00  0.00    +0.000 A 
ATOM      7  C   UNL     1       2.100   3.463  21.664  0.00  0.00    +0.000 A 
ATOM      8  C   UNL     1       2.012   4.801  21.266  0.00  0.00    +0.000 A 
ATOM      9  C   UNL     1       2.436   5.177  19.986  0.00  0.00    +0.000 A 
ATOM     10  C   UNL     1       2.412   6.599  19.589  0.00  0.00    +0.000 A 
ATOM     11  O   UNL     1       2.024   7.446  20.391  0.00  0.00    +0.000 OA
ENDROOT
BRANCH   1  12
ATOM     12  C   UNL     1       3.048   8.290  17.935  0.00  0.00    +0.000 C 
BRANCH  12  14
ATOM     13  N   UNL     1       1.676  10.189  18.643  0.00  0.00    +0.000 N 
ATOM     14  C   UNL     1       1.706   9.036  17.880  0.00  0.00    +0.000 C 
ATOM     15  O   UNL     1       0.719   8.631  17.267  0.00  0.00    +0.000 OA
ATOM     16  H   UNL     1       2.491  10.468  19.175  0.00  0.00    +0.000 HD
BRANCH  13  17
ATOM     17  C   UNL     1       0.499  11.032  18.732  0.00  0.00    +0.000 C 
BRANCH  17  18
ATOM     18  C   UNL     1       0.520  11.940  19.960  0.00  0.00    +0.000 C 
BRANCH  18  19
ATOM     19  C   UNL     1      -0.686  11.755  20.895  0.00  0.00    +0.000 C 
BRANCH  19  20
ATOM     20  N   UNL     1      -0.357  11.300  22.260  0.00  0.00    +0.000 NA
BRANCH  20  21
ATOM     21  C   UNL     1       0.361  10.011  22.230  0.00  0.00    +0.000 C 
ATOM     22  C   UNL     1      -0.491   8.749  22.351  0.00  0.00    +0.000 C 
ENDBRANCH  20  21
BRANCH  20  23
ATOM     23  C   UNL     1      -1.541  11.299  23.144  0.00  0.00    +0.000 C 
BRANCH  23  24
ATOM     24  C   UNL     1      -2.021  12.704  23.530  0.00  0.00    +0.000 C 
BRANCH  24  26
ATOM     25  C   UNL     1      -4.276  12.504  24.590  0.00  0.00    +0.000 C 
ATOM     26  C   UNL     1      -3.525  12.877  23.321  0.00  0.00    +0.000 C 
ENDBRANCH  24  26
ENDBRANCH  23  24
ENDBRANCH  20  23
ENDBRANCH  19  20
ENDBRANCH  18  19
ENDBRANCH  17  18
ENDBRANCH  13  17
ENDBRANCH  12  14
ENDBRANCH   1  12
BRANCH   3  27
ATOM     27  C   UNL     1       3.922   3.736  16.739  0.00  0.00    +0.000 C 
BRANCH  27  28
ATOM     28  C   UNL     1       5.228   4.226  16.161  0.00  0.00    +0.000 A 
ATOM     29  C   UNL     1       5.367   4.408  14.780  0.00  0.00    +0.000 A 
ATOM     30  C   UNL     1       6.592   4.834  14.284  0.00  0.00    +0.000 A 
ATOM     31  N   UNL     1       7.666   5.103  15.052  0.00  0.00    +0.000 NA
ATOM     32  C   UNL     1       7.505   4.967  16.384  0.00  0.00    +0.000 A 
ATOM     33  C   UNL     1       6.322   4.552  16.974  0.00  0.00    +0.000 A 
ENDBRANCH  27  28
ENDBRANCH   3  27
TORSDOF 12
ENDMDL
MODEL 9
REMARK VINA RESULT:      -7.1      4.267      7.367
REMARK  Name = 
REMARK  14 active torsions:
REMARK  status: ('A' for Active; 'I' for Inactive)
REMARK    1  A    between atoms: C_1  and  C_2
REMARK    2  A    between atoms: C_2  and  C_3
REMARK    3  A    between atoms: C_3  and  C_4
REMARK    4  A    between atoms: C_4  and  N_5
REMARK    5  A    between atoms: N_5  and  C_6
REMARK    6  A    between atoms: N_5  and  C_8
REMARK    7  A    between atoms: C_6  and  C_7
REMARK    8  A    between atoms: C_8  and  C_9
REMARK    9  A    between atoms: C_9  and  C_10
REMARK   10  A    between atoms: C_10  and  N_11
REMARK   11  A    between atoms: C_12  and  C_14
REMARK   12  A    between atoms: C_14  and  N_15
REMARK   13  A    between atoms: C_17  and  C_18
REMARK   14  A    between atoms: C_18  and  C_19
REMARK                            x       y       z     vdW  Elec       q    Type
REMARK                         _______ _______ _______ _____ _____    ______ ____
ROOT
ATOM      1  N   UNL     1       2.845   7.629  17.970  0.00  0.00    +0.000 N 
ATOM      2  N   UNL     1       2.764   6.598  18.868  0.00  0.00    +0.000 NA
ATOM      3  C   UNL     1       2.153   6.784  20.001  0.00  0.00    +0.000 A 
ATOM      4  C   UNL     1       1.487   8.053  20.358  0.00  0.00    +0.000 A 
ATOM      5  C   UNL     1       0.856   8.281  21.594  0.00  0.00    +0.000 A 
ATOM      6  C   UNL     1       0.239   9.505  21.848  0.00  0.00    +0.000 A 
ATOM      7  C   UNL     1       0.235  10.509  20.886  0.00  0.00    +0.000 A 
ATOM      8  C   UNL     1       0.872  10.293  19.660  0.00  0.00    +0.000 A 
ATOM      9  C   UNL     1       1.502   9.069  19.407  0.00  0.00    +0.000 A 
ATOM     10  C   UNL     1       2.238   8.865  18.143  0.00  0.00    +0.000 A 
ATOM     11  O   UNL     1       2.296   9.777  17.321  0.00  0.00    +0.000 OA
ENDROOT
BRANCH   1  12
ATOM     12  C   UNL     1       3.748   7.441  16.842  0.00  0.00    +0.000 C 
BRANCH  12  14
ATOM     13  N   UNL     1       5.330   6.100  18.142  0.00  0.00    +0.000 N 
ATOM     14  C   UNL     1       5.189   7.205  17.321  0.00  0.00    +0.000 C 
ATOM     15  O   UNL     1       6.132   7.950  17.059  0.00  0.00    +0.000 OA
ATOM     16  H   UNL     1       4.524   5.535  18.378  0.00  0.00    +0.000 HD
BRANCH  13  17
ATOM     17  C   UNL     1       6.608   5.709  18.706  0.00  0.00    +0.000 C 
BRANCH  17  18
ATOM     18  C   UNL     1       7.236   4.527  17.972  0.00  0.00    +0.000 C 
BRANCH  18  19
ATOM     19  C   UNL     1       7.356   4.727  16.451  0.00  0.00    +0.000 C 
BRANCH  19  20
ATOM     20  N   UNL     1       6.165   4.336  15.671  0.00  0.00    +0.000 NA
BRANCH  20  21
ATOM     21  C   UNL     1       5.361   3.334  16.399  0.00  0.00    +0.000 C 
ATOM     22  C   UNL     1       3.878   3.648  16.580  0.00  0.00    +0.000 C 
ENDBRANCH  20  21
BRANCH  20  23
ATOM     23  C   UNL     1       6.514   3.932  14.295  0.00  0.00    +0.000 C 
BRANCH  23  24
ATOM     24  C   UNL     1       5.373   4.130  13.287  0.00  0.00    +0.000 C 
BRANCH  24  26
ATOM     25  C   UNL     1       4.262   2.969  11.374  0.00  0.00    +0.000 C 
ATOM     26  C   UNL     1       5.599   3.341  11.998  0.00  0.00    +0.000 C 
ENDBRANCH  24  26
ENDBRANCH  23  24
ENDBRANCH  20  23
ENDBRANCH  19  20
ENDBRANCH  18  19
ENDBRANCH  17  18
ENDBRANCH  13  17
ENDBRANCH  12  14
ENDBRANCH   1  12
BRANCH   3  27
ATOM     27  C   UNL     1       2.218   5.641  21.007  0.00  0.00    +0.000 C 
BRANCH  27  28
ATOM     28  C   UNL     1       2.092   4.284  20.355  0.00  0.00    +0.000 A 
ATOM     29  C   UNL     1       0.866   3.866  19.825  0.00  0.00    +0.000 A 
ATOM     30  C   UNL     1       0.783   2.601  19.258  0.00  0.00    +0.000 A 
ATOM     31  N   UNL     1       1.819   1.744  19.166  0.00  0.00    +0.000 NA
ATOM     32  C   UNL     1       3.005   2.178  19.639  0.00  0.00    +0.000 A 
ATOM     33  C   UNL     1       3.189   3.423  20.219  0.00  0.00    +0.000 A 
ENDBRANCH  27  28
ENDBRANCH   3  27
TORSDOF 12
ENDMDL
