MODEL 1
REMARK VINA RESULT:      -8.0      0.000      0.000
REMARK  Name = 
REMARK  13 active torsions:
REMARK  status: ('A' for Active; 'I' for Inactive)
REMARK    1  A    between atoms: C_1  and  C_2
REMARK    2  A    between atoms: C_2  and  C_3
REMARK    3  A    between atoms: C_2  and  C_4
REMARK    4  A    between atoms: C_2  and  C_5
REMARK    5  A    between atoms: C_5  and  C_6
REMARK    6  A    between atoms: C_6  and  N_7
REMARK    7  A    between atoms: C_6  and  C_16
REMARK    8  A    between atoms: N_18  and  C_19
REMARK    9  A    between atoms: C_19  and  C_20
REMARK   10  A    between atoms: C_20  and  N_21
REMARK   11  A    between atoms: N_21  and  C_22
REMARK   12  A    between atoms: C_25  and  O_26
REMARK   13  A    between atoms: O_26  and  C_27
REMARK                            x       y       z     vdW  Elec       q    Type
REMARK                         _______ _______ _______ _____ _____    ______ ____
ROOT
ATOM      1  C   UNL     1       1.883   7.047  19.827  0.00  0.00    +0.000 C 
ATOM      2  O   UNL     1       1.451   7.307  20.948  0.00  0.00    +0.000 OA
ATOM      3  N   UNL     1       2.137   8.006  18.867  0.00  0.00    +0.000 N 
ATOM      4  H   UNL     1       2.781   7.742  18.122  0.00  0.00    +0.000 HD
ENDROOT
BRANCH   1   5
ATOM      5  C   UNL     1       2.292   5.620  19.421  0.00  0.00    +0.000 C 
BRANCH   5   6
ATOM      6  N   UNL     1       3.570   5.762  18.710  0.00  0.00    +0.000 N 
ATOM      7  C   UNL     1       3.853   5.077  17.561  0.00  0.00    +0.000 C 
ATOM      8  O   UNL     1       3.076   4.255  17.085  0.00  0.00    +0.000 OA
ATOM      9  N   UNL     1       5.080   5.398  17.008  0.00  0.00    +0.000 N 
ATOM     10  C   UNL     1       5.513   4.698  15.799  0.00  0.00    +0.000 C 
ATOM     11  C   UNL     1       7.041   4.603  15.762  0.00  0.00    +0.000 C 
ATOM     12  O   UNL     1       7.644   5.905  15.858  0.00  0.00    +0.000 OA
ATOM     13  C   UNL     1       7.265   6.553  17.081  0.00  0.00    +0.000 C 
ATOM     14  C   UNL     1       5.746   6.699  17.190  0.00  0.00    +0.000 C 
ATOM     15  H   UNL     1       4.384   5.886  19.296  0.00  0.00    +0.000 HD
ENDBRANCH   5   6
BRANCH   5  16
ATOM     16  C   UNL     1       2.509   4.726  20.664  0.00  0.00    +0.000 C 
BRANCH  16  18
ATOM     17  C   UNL     1       1.687   2.684  21.964  0.00  0.00    +0.000 C 
ATOM     18  C   UNL     1       2.113   3.221  20.590  0.00  0.00    +0.000 C 
ATOM     19  C   UNL     1       3.235   2.328  20.037  0.00  0.00    +0.000 C 
ATOM     20  C   UNL     1       0.913   3.106  19.625  0.00  0.00    +0.000 C 
ENDBRANCH  16  18
ENDBRANCH   5  16
ENDBRANCH   1   5
BRANCH   3  21
ATOM     21  C   UNL     1       1.769   9.410  18.987  0.00  0.00    +0.000 C 
BRANCH  21  22
ATOM     22  C   UNL     1       0.493   9.831  18.240  0.00  0.00    +0.000 C 
BRANCH  22  23
ATOM     23  N   UNL     1      -0.260  10.845  18.984  0.00  0.00    +0.000 N 
ATOM     24  H   UNL     1      -0.124  10.785  19.990  0.00  0.00    +0.000 HD
BRANCH  23  25
ATOM     25  C   UNL     1      -1.618  11.002  18.653  0.00  0.00    +0.000 A 
ATOM     26  C   UNL     1      -2.224  10.027  17.855  0.00  0.00    +0.000 A 
ATOM     27  C   UNL     1      -3.591  10.088  17.558  0.00  0.00    +0.000 A 
ATOM     28  C   UNL     1      -4.397  11.091  18.099  0.00  0.00    +0.000 A 
ATOM     29  C   UNL     1      -3.806  12.075  18.882  0.00  0.00    +0.000 A 
ATOM     30  C   UNL     1      -2.437  12.008  19.180  0.00  0.00    +0.000 A 
BRANCH  28  31
ATOM     31  O   UNL     1      -5.705  11.039  17.735  0.00  0.00    +0.000 OA
BRANCH  31  32
ATOM     32  C   UNL     1      -6.703  10.875  18.736  0.00  0.00    +0.000 C 
ATOM     33  F   UNL     1      -7.689  11.795  18.707  0.00  0.00    +0.000 F 
ATOM     34  F   UNL     1      -7.253   9.649  18.613  0.00  0.00    +0.000 F 
ATOM     35  F   UNL     1      -6.107  10.945  19.951  0.00  0.00    +0.000 F 
ENDBRANCH  31  32
ENDBRANCH  28  31
ENDBRANCH  23  25
ENDBRANCH  22  23
ENDBRANCH  21  22
ENDBRANCH   3  21
TORSDOF 10
ENDMDL
MODEL 2
REMARK VINA RESULT:      -8.0      1.432      1.889
REMARK  Name = 
REMARK  13 active torsions:
REMARK  status: ('A' for Active; 'I' for Inactive)
REMARK    1  A    between atoms: C_1  and  C_2
REMARK    2  A    between atoms: C_2  and  C_3
REMARK    3  A    between atoms: C_2  and  C_4
REMARK    4  A    between atoms: C_2  and  C_5
REMARK    5  A    between atoms: C_5  and  C_6
REMARK    6  A    between atoms: C_6  and  N_7
REMARK    7  A    between atoms: C_6  and  C_16
REMARK    8  A    between atoms: N_18  and  C_19
REMARK    9  A    between atoms: C_19  and  C_20
REMARK   10  A    between atoms: C_20  and  N_21
REMARK   11  A    between atoms: N_21  and  C_22
REMARK   12  A    between atoms: C_25  and  O_26
REMARK   13  A    between atoms: O_26  and  C_27
REMARK                            x       y       z     vdW  Elec       q    Type
REMARK                         _______ _______ _______ _____ _____    ______ ____
ROOT
ATOM      1  C   UNL     1       2.095   7.169  19.915  0.00  0.00    +0.000 C 
ATOM      2  O   UNL     1       2.341   8.091  19.139  0.00  0.00    +0.000 OA
ATOM      3  N   UNL     1       1.543   7.353  21.166  0.00  0.00    +0.000 N 
ATOM      4  H   UNL     1       1.085   6.543  21.583  0.00  0.00    +0.000 HD
ENDROOT
BRANCH   1   5
ATOM      5  C   UNL     1       2.282   5.694  19.515  0.00  0.00    +0.000 C 
BRANCH   5   6
ATOM      6  N   UNL     1       3.556   5.642  18.784  0.00  0.00    +0.000 N 
ATOM      7  C   UNL     1       3.701   4.965  17.606  0.00  0.00    +0.000 C 
ATOM      8  O   UNL     1       2.786   4.309  17.115  0.00  0.00    +0.000 OA
ATOM      9  N   UNL     1       4.957   5.090  17.040  0.00  0.00    +0.000 N 
ATOM     10  C   UNL     1       5.246   4.374  15.798  0.00  0.00    +0.000 C 
ATOM     11  C   UNL     1       6.734   4.018  15.727  0.00  0.00    +0.000 C 
ATOM     12  O   UNL     1       7.554   5.191  15.859  0.00  0.00    +0.000 OA
ATOM     13  C   UNL     1       7.311   5.846  17.112  0.00  0.00    +0.000 C 
ATOM     14  C   UNL     1       5.841   6.248  17.257  0.00  0.00    +0.000 C 
ATOM     15  H   UNL     1       4.387   5.600  19.358  0.00  0.00    +0.000 HD
ENDBRANCH   5   6
BRANCH   5  16
ATOM     16  C   UNL     1       2.384   4.787  20.762  0.00  0.00    +0.000 C 
BRANCH  16  18
ATOM     17  C   UNL     1       0.846   3.094  19.619  0.00  0.00    +0.000 C 
ATOM     18  C   UNL     1       1.975   3.288  20.641  0.00  0.00    +0.000 C 
ATOM     19  C   UNL     1       1.542   2.670  21.979  0.00  0.00    +0.000 C 
ATOM     20  C   UNL     1       3.216   2.509  20.152  0.00  0.00    +0.000 C 
ENDBRANCH  16  18
ENDBRANCH   5  16
ENDBRANCH   1   5
BRANCH   3  21
ATOM     21  C   UNL     1       1.342   8.651  21.796  0.00  0.00    +0.000 C 
BRANCH  21  22
ATOM     22  C   UNL     1       0.181   9.490  21.237  0.00  0.00    +0.000 C 
BRANCH  22  23
ATOM     23  N   UNL     1       0.598  10.290  20.081  0.00  0.00    +0.000 N 
ATOM     24  H   UNL     1       1.223  11.053  20.328  0.00  0.00    +0.000 HD
BRANCH  23  25
ATOM     25  C   UNL     1      -0.413  10.711  19.200  0.00  0.00    +0.000 A 
ATOM     26  C   UNL     1      -1.340   9.766  18.749  0.00  0.00    +0.000 A 
ATOM     27  C   UNL     1      -2.414  10.142  17.934  0.00  0.00    +0.000 A 
ATOM     28  C   UNL     1      -2.622  11.481  17.597  0.00  0.00    +0.000 A 
ATOM     29  C   UNL     1      -1.702  12.430  18.026  0.00  0.00    +0.000 A 
ATOM     30  C   UNL     1      -0.629  12.049  18.845  0.00  0.00    +0.000 A 
BRANCH  28  31
ATOM     31  O   UNL     1      -3.700  11.716  16.803  0.00  0.00    +0.000 OA
BRANCH  31  32
ATOM     32  C   UNL     1      -4.985  11.864  17.394  0.00  0.00    +0.000 C 
ATOM     33  F   UNL     1      -5.729  10.739  17.419  0.00  0.00    +0.000 F 
ATOM     34  F   UNL     1      -4.839  12.312  18.658  0.00  0.00    +0.000 F 
ATOM     35  F   UNL     1      -5.673  12.799  16.696  0.00  0.00    +0.000 F 
ENDBRANCH  31  32
ENDBRANCH  28  31
ENDBRANCH  23  25
ENDBRANCH  22  23
ENDBRANCH  21  22
ENDBRANCH   3  21
TORSDOF 10
ENDMDL
MODEL 3
REMARK VINA RESULT:      -7.9      2.677      3.216
REMARK  Name = 
REMARK  13 active torsions:
REMARK  status: ('A' for Active; 'I' for Inactive)
REMARK    1  A    between atoms: C_1  and  C_2
REMARK    2  A    between atoms: C_2  and  C_3
REMARK    3  A    between atoms: C_2  and  C_4
REMARK    4  A    between atoms: C_2  and  C_5
REMARK    5  A    between atoms: C_5  and  C_6
REMARK    6  A    between atoms: C_6  and  N_7
REMARK    7  A    between atoms: C_6  and  C_16
REMARK    8  A    between atoms: N_18  and  C_19
REMARK    9  A    between atoms: C_19  and  C_20
REMARK   10  A    between atoms: C_20  and  N_21
REMARK   11  A    between atoms: N_21  and  C_22
REMARK   12  A    between atoms: C_25  and  O_26
REMARK   13  A    between atoms: O_26  and  C_27
REMARK                            x       y       z     vdW  Elec       q    Type
REMARK                         _______ _______ _______ _____ _____    ______ ____
ROOT
ATOM      1  C   UNL     1       2.009   7.303  19.856  0.00  0.00    +0.000 C 
ATOM      2  O   UNL     1       2.047   8.248  19.071  0.00  0.00    +0.000 OA
ATOM      3  N   UNL     1       1.604   7.420  21.171  0.00  0.00    +0.000 N 
ATOM      4  H   UNL     1       1.298   6.562  21.628  0.00  0.00    +0.000 HD
ENDROOT
BRANCH   1   5
ATOM      5  C   UNL     1       2.310   5.860  19.412  0.00  0.00    +0.000 C 
BRANCH   5   6
ATOM      6  N   UNL     1       3.585   5.930  18.683  0.00  0.00    +0.000 N 
ATOM      7  C   UNL     1       3.815   5.225  17.535  0.00  0.00    +0.000 C 
ATOM      8  O   UNL     1       2.988   4.444  17.073  0.00  0.00    +0.000 OA
ATOM      9  N   UNL     1       5.050   5.476  16.964  0.00  0.00    +0.000 N 
ATOM     10  C   UNL     1       5.428   4.747  15.753  0.00  0.00    +0.000 C 
ATOM     11  C   UNL     1       6.948   4.569  15.697  0.00  0.00    +0.000 C 
ATOM     12  O   UNL     1       7.622   5.836  15.778  0.00  0.00    +0.000 OA
ATOM     13  C   UNL     1       7.296   6.510  17.002  0.00  0.00    +0.000 C 
ATOM     14  C   UNL     1       5.788   6.739  17.131  0.00  0.00    +0.000 C 
ATOM     15  H   UNL     1       4.412   6.012  19.258  0.00  0.00    +0.000 HD
ENDBRANCH   5   6
BRANCH   5  16
ATOM     16  C   UNL     1       2.482   4.925  20.631  0.00  0.00    +0.000 C 
BRANCH  16  18
ATOM     17  C   UNL     1       3.279   2.571  20.027  0.00  0.00    +0.000 C 
ATOM     18  C   UNL     1       2.089   3.423  20.492  0.00  0.00    +0.000 C 
ATOM     19  C   UNL     1       0.912   3.193  19.532  0.00  0.00    +0.000 C 
ATOM     20  C   UNL     1       1.650   2.930  21.888  0.00  0.00    +0.000 C 
ENDBRANCH  16  18
ENDBRANCH   5  16
ENDBRANCH   1   5
BRANCH   3  21
ATOM     21  C   UNL     1       1.338   8.685  21.842  0.00  0.00    +0.000 C 
BRANCH  21  22
ATOM     22  C   UNL     1      -0.107   9.200  21.745  0.00  0.00    +0.000 C 
BRANCH  22  23
ATOM     23  N   UNL     1      -0.160  10.565  21.212  0.00  0.00    +0.000 N 
ATOM     24  H   UNL     1       0.734  11.046  21.256  0.00  0.00    +0.000 HD
BRANCH  23  25
ATOM     25  C   UNL     1      -1.212  11.383  21.660  0.00  0.00    +0.000 A 
ATOM     26  C   UNL     1      -1.604  11.290  22.999  0.00  0.00    +0.000 A 
ATOM     27  C   UNL     1      -2.591  12.134  23.521  0.00  0.00    +0.000 A 
ATOM     28  C   UNL     1      -3.169  13.132  22.734  0.00  0.00    +0.000 A 
ATOM     29  C   UNL     1      -2.800  13.228  21.399  0.00  0.00    +0.000 A 
ATOM     30  C   UNL     1      -1.809  12.382  20.880  0.00  0.00    +0.000 A 
BRANCH  28  31
ATOM     31  O   UNL     1      -4.112  13.885  23.359  0.00  0.00    +0.000 OA
BRANCH  31  32
ATOM     32  C   UNL     1      -5.423  13.362  23.532  0.00  0.00    +0.000 C 
ATOM     33  F   UNL     1      -6.387  14.292  23.690  0.00  0.00    +0.000 F 
ATOM     34  F   UNL     1      -5.735  12.595  22.467  0.00  0.00    +0.000 F 
ATOM     35  F   UNL     1      -5.428  12.571  24.632  0.00  0.00    +0.000 F 
ENDBRANCH  31  32
ENDBRANCH  28  31
ENDBRANCH  23  25
ENDBRANCH  22  23
ENDBRANCH  21  22
ENDBRANCH   3  21
TORSDOF 10
ENDMDL
MODEL 4
REMARK VINA RESULT:      -7.9      1.437      1.969
REMARK  Name = 
REMARK  13 active torsions:
REMARK  status: ('A' for Active; 'I' for Inactive)
REMARK    1  A    between atoms: C_1  and  C_2
REMARK    2  A    between atoms: C_2  and  C_3
REMARK    3  A    between atoms: C_2  and  C_4
REMARK    4  A    between atoms: C_2  and  C_5
REMARK    5  A    between atoms: C_5  and  C_6
REMARK    6  A    between atoms: C_6  and  N_7
REMARK    7  A    between atoms: C_6  and  C_16
REMARK    8  A    between atoms: N_18  and  C_19
REMARK    9  A    between atoms: C_19  and  C_20
REMARK   10  A    between atoms: C_20  and  N_21
REMARK   11  A    between atoms: N_21  and  C_22
REMARK   12  A    between atoms: C_25  and  O_26
REMARK   13  A    between atoms: O_26  and  C_27
REMARK                            x       y       z     vdW  Elec       q    Type
REMARK                         _______ _______ _______ _____ _____    ______ ____
ROOT
ATOM      1  C   UNL     1       2.108   7.212  19.855  0.00  0.00    +0.000 C 
ATOM      2  O   UNL     1       2.216   8.151  19.068  0.00  0.00    +0.000 OA
ATOM      3  N   UNL     1       1.672   7.356  21.157  0.00  0.00    +0.000 N 
ATOM      4  H   UNL     1       1.310   6.517  21.608  0.00  0.00    +0.000 HD
ENDROOT
BRANCH   1   5
ATOM      5  C   UNL     1       2.347   5.754  19.424  0.00  0.00    +0.000 C 
BRANCH   5   6
ATOM      6  N   UNL     1       3.603   5.770  18.660  0.00  0.00    +0.000 N 
ATOM      7  C   UNL     1       3.757   5.090  17.484  0.00  0.00    +0.000 C 
ATOM      8  O   UNL     1       2.871   4.376  17.024  0.00  0.00    +0.000 OA
ATOM      9  N   UNL     1       4.988   5.284  16.884  0.00  0.00    +0.000 N 
ATOM     10  C   UNL     1       5.287   4.574  15.641  0.00  0.00    +0.000 C 
ATOM     11  C   UNL     1       6.791   4.306  15.533  0.00  0.00    +0.000 C 
ATOM     12  O   UNL     1       7.543   5.526  15.633  0.00  0.00    +0.000 OA
ATOM     13  C   UNL     1       7.294   6.179  16.887  0.00  0.00    +0.000 C 
ATOM     14  C   UNL     1       5.807   6.494  17.068  0.00  0.00    +0.000 C 
ATOM     15  H   UNL     1       4.450   5.783  19.212  0.00  0.00    +0.000 HD
ENDBRANCH   5   6
BRANCH   5  16
ATOM     16  C   UNL     1       2.522   4.831  20.652  0.00  0.00    +0.000 C 
BRANCH  16  18
ATOM     17  C   UNL     1       0.849   3.213  19.593  0.00  0.00    +0.000 C 
ATOM     18  C   UNL     1       2.031   3.354  20.562  0.00  0.00    +0.000 C 
ATOM     19  C   UNL     1       1.626   2.769  21.924  0.00  0.00    +0.000 C 
ATOM     20  C   UNL     1       3.207   2.509  20.027  0.00  0.00    +0.000 C 
ENDBRANCH  16  18
ENDBRANCH   5  16
ENDBRANCH   1   5
BRANCH   3  21
ATOM     21  C   UNL     1       1.452   8.636  21.816  0.00  0.00    +0.000 C 
BRANCH  21  22
ATOM     22  C   UNL     1       0.148   9.361  21.445  0.00  0.00    +0.000 C 
BRANCH  22  23
ATOM     23  N   UNL     1       0.204   9.919  20.091  0.00  0.00    +0.000 N 
ATOM     24  H   UNL     1       0.976  10.567  19.958  0.00  0.00    +0.000 HD
BRANCH  23  25
ATOM     25  C   UNL     1      -0.996  10.423  19.559  0.00  0.00    +0.000 A 
ATOM     26  C   UNL     1      -1.603  11.508  20.199  0.00  0.00    +0.000 A 
ATOM     27  C   UNL     1      -2.755  12.102  19.671  0.00  0.00    +0.000 A 
ATOM     28  C   UNL     1      -3.295  11.666  18.460  0.00  0.00    +0.000 A 
ATOM     29  C   UNL     1      -2.710  10.581  17.818  0.00  0.00    +0.000 A 
ATOM     30  C   UNL     1      -1.554   9.990  18.349  0.00  0.00    +0.000 A 
BRANCH  28  31
ATOM     31  O   UNL     1      -4.412  12.326  18.054  0.00  0.00    +0.000 OA
BRANCH  31  32
ATOM     32  C   UNL     1      -5.307  11.693  17.148  0.00  0.00    +0.000 C 
ATOM     33  F   UNL     1      -4.723  11.162  16.055  0.00  0.00    +0.000 F 
ATOM     34  F   UNL     1      -5.975  10.718  17.798  0.00  0.00    +0.000 F 
ATOM     35  F   UNL     1      -6.212  12.610  16.729  0.00  0.00    +0.000 F 
ENDBRANCH  31  32
ENDBRANCH  28  31
ENDBRANCH  23  25
ENDBRANCH  22  23
ENDBRANCH  21  22
ENDBRANCH   3  21
TORSDOF 10
ENDMDL
MODEL 5
REMARK VINA RESULT:      -7.8      2.103      2.605
REMARK  Name = 
REMARK  13 active torsions:
REMARK  status: ('A' for Active; 'I' for Inactive)
REMARK    1  A    between atoms: C_1  and  C_2
REMARK    2  A    between atoms: C_2  and  C_3
REMARK    3  A    between atoms: C_2  and  C_4
REMARK    4  A    between atoms: C_2  and  C_5
REMARK    5  A    between atoms: C_5  and  C_6
REMARK    6  A    between atoms: C_6  and  N_7
REMARK    7  A    between atoms: C_6  and  C_16
REMARK    8  A    between atoms: N_18  and  C_19
REMARK    9  A    between atoms: C_19  and  C_20
REMARK   10  A    between atoms: C_20  and  N_21
REMARK   11  A    between atoms: N_21  and  C_22
REMARK   12  A    between atoms: C_25  and  O_26
REMARK   13  A    between atoms: O_26  and  C_27
REMARK                            x       y       z     vdW  Elec       q    Type
REMARK                         _______ _______ _______ _____ _____    ______ ____
ROOT
ATOM      1  C   UNL     1       1.992   7.415  19.964  0.00  0.00    +0.000 C 
ATOM      2  O   UNL     1       2.050   8.364  19.185  0.00  0.00    +0.000 OA
ATOM      3  N   UNL     1       1.595   7.533  21.281  0.00  0.00    +0.000 N 
ATOM      4  H   UNL     1       1.271   6.679  21.734  0.00  0.00    +0.000 HD
ENDROOT
BRANCH   1   5
ATOM      5  C   UNL     1       2.256   5.968  19.508  0.00  0.00    +0.000 C 
BRANCH   5   6
ATOM      6  N   UNL     1       3.533   6.011  18.782  0.00  0.00    +0.000 N 
ATOM      7  C   UNL     1       3.754   5.291  17.641  0.00  0.00    +0.000 C 
ATOM      8  O   UNL     1       2.915   4.519  17.184  0.00  0.00    +0.000 OA
ATOM      9  N   UNL     1       4.994   5.517  17.070  0.00  0.00    +0.000 N 
ATOM     10  C   UNL     1       5.363   4.771  15.867  0.00  0.00    +0.000 C 
ATOM     11  C   UNL     1       6.880   4.568  15.815  0.00  0.00    +0.000 C 
ATOM     12  O   UNL     1       7.574   5.825  15.886  0.00  0.00    +0.000 OA
ATOM     13  C   UNL     1       7.256   6.516  17.103  0.00  0.00    +0.000 C 
ATOM     14  C   UNL     1       5.752   6.770  17.226  0.00  0.00    +0.000 C 
ATOM     15  H   UNL     1       4.361   6.085  19.358  0.00  0.00    +0.000 HD
ENDBRANCH   5   6
BRANCH   5  16
ATOM     16  C   UNL     1       2.402   5.020  20.720  0.00  0.00    +0.000 C 
BRANCH  16  18
ATOM     17  C   UNL     1       3.285   2.704  20.087  0.00  0.00    +0.000 C 
ATOM     18  C   UNL     1       2.060   3.510  20.543  0.00  0.00    +0.000 C 
ATOM     19  C   UNL     1       0.910   3.264  19.553  0.00  0.00    +0.000 C 
ATOM     20  C   UNL     1       1.606   2.975  21.919  0.00  0.00    +0.000 C 
ENDBRANCH  16  18
ENDBRANCH   5  16
ENDBRANCH   1   5
BRANCH   3  21
ATOM     21  C   UNL     1       1.363   8.799  21.961  0.00  0.00    +0.000 C 
BRANCH  21  22
ATOM     22  C   UNL     1       0.013   9.474  21.670  0.00  0.00    +0.000 C 
BRANCH  22  23
ATOM     23  N   UNL     1       0.054  10.912  21.955  0.00  0.00    +0.000 N 
ATOM     24  H   UNL     1       0.583  11.138  22.793  0.00  0.00    +0.000 HD
BRANCH  23  25
ATOM     25  C   UNL     1      -1.169  11.606  21.911  0.00  0.00    +0.000 A 
ATOM     26  C   UNL     1      -1.641  12.042  20.670  0.00  0.00    +0.000 A 
ATOM     27  C   UNL     1      -2.888  12.668  20.554  0.00  0.00    +0.000 A 
ATOM     28  C   UNL     1      -3.719  12.820  21.666  0.00  0.00    +0.000 A 
ATOM     29  C   UNL     1      -3.258  12.403  22.908  0.00  0.00    +0.000 A 
ATOM     30  C   UNL     1      -2.009  11.774  23.019  0.00  0.00    +0.000 A 
BRANCH  28  31
ATOM     31  O   UNL     1      -4.903  13.441  21.421  0.00  0.00    +0.000 OA
BRANCH  31  32
ATOM     32  C   UNL     1      -6.110  12.691  21.476  0.00  0.00    +0.000 C 
ATOM     33  F   UNL     1      -6.514  12.361  22.720  0.00  0.00    +0.000 F 
ATOM     34  F   UNL     1      -7.093  13.395  20.876  0.00  0.00    +0.000 F 
ATOM     35  F   UNL     1      -5.935  11.542  20.780  0.00  0.00    +0.000 F 
ENDBRANCH  31  32
ENDBRANCH  28  31
ENDBRANCH  23  25
ENDBRANCH  22  23
ENDBRANCH  21  22
ENDBRANCH   3  21
TORSDOF 10
ENDMDL
MODEL 6
REMARK VINA RESULT:      -7.8      4.195      4.640
REMARK  Name = 
REMARK  13 active torsions:
REMARK  status: ('A' for Active; 'I' for Inactive)
REMARK    1  A    between atoms: C_1  and  C_2
REMARK    2  A    between atoms: C_2  and  C_3
REMARK    3  A    between atoms: C_2  and  C_4
REMARK    4  A    between atoms: C_2  and  C_5
REMARK    5  A    between atoms: C_5  and  C_6
REMARK    6  A    between atoms: C_6  and  N_7
REMARK    7  A    between atoms: C_6  and  C_16
REMARK    8  A    between atoms: N_18  and  C_19
REMARK    9  A    between atoms: C_19  and  C_20
REMARK   10  A    between atoms: C_20  and  N_21
REMARK   11  A    between atoms: N_21  and  C_22
REMARK   12  A    between atoms: C_25  and  O_26
REMARK   13  A    between atoms: O_26  and  C_27
REMARK                            x       y       z     vdW  Elec       q    Type
REMARK                         _______ _______ _______ _____ _____    ______ ____
ROOT
ATOM      1  C   UNL     1       1.993   7.322  19.927  0.00  0.00    +0.000 C 
ATOM      2  O   UNL     1       1.974   8.253  19.125  0.00  0.00    +0.000 OA
ATOM      3  N   UNL     1       1.650   7.456  21.257  0.00  0.00    +0.000 N 
ATOM      4  H   UNL     1       1.384   6.600  21.745  0.00  0.00    +0.000 HD
ENDROOT
BRANCH   1   5
ATOM      5  C   UNL     1       2.301   5.878  19.494  0.00  0.00    +0.000 C 
BRANCH   5   6
ATOM      6  N   UNL     1       3.575   5.948  18.764  0.00  0.00    +0.000 N 
ATOM      7  C   UNL     1       3.800   5.253  17.609  0.00  0.00    +0.000 C 
ATOM      8  O   UNL     1       2.968   4.480  17.141  0.00  0.00    +0.000 OA
ATOM      9  N   UNL     1       5.035   5.504  17.037  0.00  0.00    +0.000 N 
ATOM     10  C   UNL     1       5.408   4.785  15.819  0.00  0.00    +0.000 C 
ATOM     11  C   UNL     1       6.927   4.601  15.758  0.00  0.00    +0.000 C 
ATOM     12  O   UNL     1       7.606   5.864  15.850  0.00  0.00    +0.000 OA
ATOM     13  C   UNL     1       7.286   6.528  17.081  0.00  0.00    +0.000 C 
ATOM     14  C   UNL     1       5.779   6.762  17.215  0.00  0.00    +0.000 C 
ATOM     15  H   UNL     1       4.404   6.021  19.338  0.00  0.00    +0.000 HD
ENDBRANCH   5   6
BRANCH   5  16
ATOM     16  C   UNL     1       2.480   4.953  20.720  0.00  0.00    +0.000 C 
BRANCH  16  18
ATOM     17  C   UNL     1       1.627   2.877  21.946  0.00  0.00    +0.000 C 
ATOM     18  C   UNL     1       2.084   3.451  20.597  0.00  0.00    +0.000 C 
ATOM     19  C   UNL     1       3.216   2.571  20.044  0.00  0.00    +0.000 C 
ATOM     20  C   UNL     1       0.904   3.364  19.604  0.00  0.00    +0.000 C 
ENDBRANCH  16  18
ENDBRANCH   5  16
ENDBRANCH   1   5
BRANCH   3  21
ATOM     21  C   UNL     1       1.391   8.727  21.919  0.00  0.00    +0.000 C 
BRANCH  21  22
ATOM     22  C   UNL     1      -0.080   9.173  21.955  0.00  0.00    +0.000 C 
BRANCH  22  23
ATOM     23  N   UNL     1      -0.509   9.728  20.667  0.00  0.00    +0.000 N 
ATOM     24  H   UNL     1      -0.433   9.065  19.901  0.00  0.00    +0.000 HD
BRANCH  23  25
ATOM     25  C   UNL     1       0.005  10.989  20.315  0.00  0.00    +0.000 A 
ATOM     26  C   UNL     1       0.182  11.280  18.959  0.00  0.00    +0.000 A 
ATOM     27  C   UNL     1       0.616  12.545  18.545  0.00  0.00    +0.000 A 
ATOM     28  C   UNL     1       0.825  13.568  19.471  0.00  0.00    +0.000 A 
ATOM     29  C   UNL     1       0.666  13.291  20.822  0.00  0.00    +0.000 A 
ATOM     30  C   UNL     1       0.229  12.023  21.233  0.00  0.00    +0.000 A 
BRANCH  28  31
ATOM     31  O   UNL     1       1.242  14.749  18.941  0.00  0.00    +0.000 OA
BRANCH  31  32
ATOM     32  C   UNL     1       2.636  15.015  18.838  0.00  0.00    +0.000 C 
ATOM     33  F   UNL     1       3.110  15.903  19.736  0.00  0.00    +0.000 F 
ATOM     34  F   UNL     1       3.316  13.858  18.976  0.00  0.00    +0.000 F 
ATOM     35  F   UNL     1       2.889  15.503  17.601  0.00  0.00    +0.000 F 
ENDBRANCH  31  32
ENDBRANCH  28  31
ENDBRANCH  23  25
ENDBRANCH  22  23
ENDBRANCH  21  22
ENDBRANCH   3  21
TORSDOF 10
ENDMDL
MODEL 7
REMARK VINA RESULT:      -7.7      3.426      4.037
REMARK  Name = 
REMARK  13 active torsions:
REMARK  status: ('A' for Active; 'I' for Inactive)
REMARK    1  A    between atoms: C_1  and  C_2
REMARK    2  A    between atoms: C_2  and  C_3
REMARK    3  A    between atoms: C_2  and  C_4
REMARK    4  A    between atoms: C_2  and  C_5
REMARK    5  A    between atoms: C_5  and  C_6
REMARK    6  A    between atoms: C_6  and  N_7
REMARK    7  A    between atoms: C_6  and  C_16
REMARK    8  A    between atoms: N_18  and  C_19
REMARK    9  A    between atoms: C_19  and  C_20
REMARK   10  A    between atoms: C_20  and  N_21
REMARK   11  A    between atoms: N_21  and  C_22
REMARK   12  A    between atoms: C_25  and  O_26
REMARK   13  A    between atoms: O_26  and  C_27
REMARK                            x       y       z     vdW  Elec       q    Type
REMARK                         _______ _______ _______ _____ _____    ______ ____
ROOT
ATOM      1  C   UNL     1       2.024   7.318  19.854  0.00  0.00    +0.000 C 
ATOM      2  O   UNL     1       2.145   8.262  19.076  0.00  0.00    +0.000 OA
ATOM      3  N   UNL     1       1.525   7.446  21.135  0.00  0.00    +0.000 N 
ATOM      4  H   UNL     1       1.164   6.596  21.567  0.00  0.00    +0.000 HD
ENDROOT
BRANCH   1   5
ATOM      5  C   UNL     1       2.319   5.868  19.430  0.00  0.00    +0.000 C 
BRANCH   5   6
ATOM      6  N   UNL     1       3.590   5.923  18.694  0.00  0.00    +0.000 N 
ATOM      7  C   UNL     1       3.814   5.195  17.560  0.00  0.00    +0.000 C 
ATOM      8  O   UNL     1       2.986   4.403  17.119  0.00  0.00    +0.000 OA
ATOM      9  N   UNL     1       5.046   5.434  16.977  0.00  0.00    +0.000 N 
ATOM     10  C   UNL     1       5.419   4.681  15.781  0.00  0.00    +0.000 C 
ATOM     11  C   UNL     1       6.939   4.502  15.720  0.00  0.00    +0.000 C 
ATOM     12  O   UNL     1       7.612   5.771  15.771  0.00  0.00    +0.000 OA
ATOM     13  C   UNL     1       7.292   6.471  16.982  0.00  0.00    +0.000 C 
ATOM     14  C   UNL     1       5.784   6.701  17.114  0.00  0.00    +0.000 C 
ATOM     15  H   UNL     1       4.420   6.018  19.263  0.00  0.00    +0.000 HD
ENDBRANCH   5   6
BRANCH   5  16
ATOM     16  C   UNL     1       2.495   4.951  20.663  0.00  0.00    +0.000 C 
BRANCH  16  18
ATOM     17  C   UNL     1       3.272   2.592  20.057  0.00  0.00    +0.000 C 
ATOM     18  C   UNL     1       2.097   3.449  20.549  0.00  0.00    +0.000 C 
ATOM     19  C   UNL     1       0.892   3.211  19.627  0.00  0.00    +0.000 C 
ATOM     20  C   UNL     1       1.700   2.969  21.962  0.00  0.00    +0.000 C 
ENDBRANCH  16  18
ENDBRANCH   5  16
ENDBRANCH   1   5
BRANCH   3  21
ATOM     21  C   UNL     1       1.244   8.718  21.787  0.00  0.00    +0.000 C 
BRANCH  21  22
ATOM     22  C   UNL     1      -0.163   9.291  21.551  0.00  0.00    +0.000 C 
BRANCH  22  23
ATOM     23  N   UNL     1      -0.360   9.682  20.151  0.00  0.00    +0.000 N 
ATOM     24  H   UNL     1       0.234   9.167  19.506  0.00  0.00    +0.000 HD
BRANCH  23  25
ATOM     25  C   UNL     1      -0.362  11.059  19.869  0.00  0.00    +0.000 A 
ATOM     26  C   UNL     1       0.595  11.558  18.981  0.00  0.00    +0.000 A 
ATOM     27  C   UNL     1       0.592  12.906  18.601  0.00  0.00    +0.000 A 
ATOM     28  C   UNL     1      -0.403  13.774  19.054  0.00  0.00    +0.000 A 
ATOM     29  C   UNL     1      -1.353  13.297  19.947  0.00  0.00    +0.000 A 
ATOM     30  C   UNL     1      -1.348  11.945  20.323  0.00  0.00    +0.000 A 
BRANCH  28  31
ATOM     31  O   UNL     1      -0.295  15.055  18.612  0.00  0.00    +0.000 OA
BRANCH  31  32
ATOM     32  C   UNL     1       0.158  16.067  19.503  0.00  0.00    +0.000 C 
ATOM     33  F   UNL     1       1.004  15.637  20.462  0.00  0.00    +0.000 F 
ATOM     34  F   UNL     1       0.770  17.037  18.792  0.00  0.00    +0.000 F 
ATOM     35  F   UNL     1      -0.919  16.613  20.116  0.00  0.00    +0.000 F 
ENDBRANCH  31  32
ENDBRANCH  28  31
ENDBRANCH  23  25
ENDBRANCH  22  23
ENDBRANCH  21  22
ENDBRANCH   3  21
TORSDOF 10
ENDMDL
MODEL 8
REMARK VINA RESULT:      -7.7      4.166      5.089
REMARK  Name = 
REMARK  13 active torsions:
REMARK  status: ('A' for Active; 'I' for Inactive)
REMARK    1  A    between atoms: C_1  and  C_2
REMARK    2  A    between atoms: C_2  and  C_3
REMARK    3  A    between atoms: C_2  and  C_4
REMARK    4  A    between atoms: C_2  and  C_5
REMARK    5  A    between atoms: C_5  and  C_6
REMARK    6  A    between atoms: C_6  and  N_7
REMARK    7  A    between atoms: C_6  and  C_16
REMARK    8  A    between atoms: N_18  and  C_19
REMARK    9  A    between atoms: C_19  and  C_20
REMARK   10  A    between atoms: C_20  and  N_21
REMARK   11  A    between atoms: N_21  and  C_22
REMARK   12  A    between atoms: C_25  and  O_26
REMARK   13  A    between atoms: O_26  and  C_27
REMARK                            x       y       z     vdW  Elec       q    Type
REMARK                         _______ _______ _______ _____ _____    ______ ____
ROOT
ATOM      1  C   UNL     1       2.032   7.324  19.794  0.00  0.00    +0.000 C 
ATOM      2  O   UNL     1       2.178   8.249  18.997  0.00  0.00    +0.000 OA
ATOM      3  N   UNL     1       1.491   7.482  21.054  0.00  0.00    +0.000 N 
ATOM      4  H   UNL     1       1.117   6.643  21.495  0.00  0.00    +0.000 HD
ENDROOT
BRANCH   1   5
ATOM      5  C   UNL     1       2.341   5.864  19.415  0.00  0.00    +0.000 C 
BRANCH   5   6
ATOM      6  N   UNL     1       3.608   5.910  18.671  0.00  0.00    +0.000 N 
ATOM      7  C   UNL     1       3.822   5.176  17.538  0.00  0.00    +0.000 C 
ATOM      8  O   UNL     1       2.987   4.387  17.106  0.00  0.00    +0.000 OA
ATOM      9  N   UNL     1       5.051   5.407  16.947  0.00  0.00    +0.000 N 
ATOM     10  C   UNL     1       5.413   4.647  15.751  0.00  0.00    +0.000 C 
ATOM     11  C   UNL     1       6.932   4.461  15.682  0.00  0.00    +0.000 C 
ATOM     12  O   UNL     1       7.611   5.727  15.724  0.00  0.00    +0.000 OA
ATOM     13  C   UNL     1       7.302   6.433  16.934  0.00  0.00    +0.000 C 
ATOM     14  C   UNL     1       5.796   6.671  17.074  0.00  0.00    +0.000 C 
ATOM     15  H   UNL     1       4.442   6.003  19.234  0.00  0.00    +0.000 HD
ENDBRANCH   5   6
BRANCH   5  16
ATOM     16  C   UNL     1       2.534   4.990  20.676  0.00  0.00    +0.000 C 
BRANCH  16  18
ATOM     17  C   UNL     1       0.925   3.279  19.665  0.00  0.00    +0.000 C 
ATOM     18  C   UNL     1       2.099   3.494  20.631  0.00  0.00    +0.000 C 
ATOM     19  C   UNL     1       1.712   2.937  22.010  0.00  0.00    +0.000 C 
ATOM     20  C   UNL     1       3.307   2.677  20.125  0.00  0.00    +0.000 C 
ENDBRANCH  16  18
ENDBRANCH   5  16
ENDBRANCH   1   5
BRANCH   3  21
ATOM     21  C   UNL     1       1.188   8.769  21.666  0.00  0.00    +0.000 C 
BRANCH  21  22
ATOM     22  C   UNL     1      -0.136   9.418  21.229  0.00  0.00    +0.000 C 
BRANCH  22  23
ATOM     23  N   UNL     1      -0.116  10.871  21.426  0.00  0.00    +0.000 N 
ATOM     24  H   UNL     1      -1.045  11.274  21.519  0.00  0.00    +0.000 HD
BRANCH  23  25
ATOM     25  C   UNL     1       0.691  11.622  20.553  0.00  0.00    +0.000 A 
ATOM     26  C   UNL     1       1.505  12.622  21.094  0.00  0.00    +0.000 A 
ATOM     27  C   UNL     1       2.386  13.348  20.285  0.00  0.00    +0.000 A 
ATOM     28  C   UNL     1       2.519  13.053  18.927  0.00  0.00    +0.000 A 
ATOM     29  C   UNL     1       1.708  12.072  18.372  0.00  0.00    +0.000 A 
ATOM     30  C   UNL     1       0.828  11.345  19.187  0.00  0.00    +0.000 A 
BRANCH  28  31
ATOM     31  O   UNL     1       3.409  13.828  18.252  0.00  0.00    +0.000 OA
BRANCH  31  32
ATOM     32  C   UNL     1       3.100  15.194  18.004  0.00  0.00    +0.000 C 
ATOM     33  F   UNL     1       3.449  15.640  16.780  0.00  0.00    +0.000 F 
ATOM     34  F   UNL     1       1.774  15.382  18.169  0.00  0.00    +0.000 F 
ATOM     35  F   UNL     1       3.746  15.954  18.921  0.00  0.00    +0.000 F 
ENDBRANCH  31  32
ENDBRANCH  28  31
ENDBRANCH  23  25
ENDBRANCH  22  23
ENDBRANCH  21  22
ENDBRANCH   3  21
TORSDOF 10
ENDMDL
MODEL 9
REMARK VINA RESULT:      -7.7      3.473      4.020
REMARK  Name = 
REMARK  13 active torsions:
REMARK  status: ('A' for Active; 'I' for Inactive)
REMARK    1  A    between atoms: C_1  and  C_2
REMARK    2  A    between atoms: C_2  and  C_3
REMARK    3  A    between atoms: C_2  and  C_4
REMARK    4  A    between atoms: C_2  and  C_5
REMARK    5  A    between atoms: C_5  and  C_6
REMARK    6  A    between atoms: C_6  and  N_7
REMARK    7  A    between atoms: C_6  and  C_16
REMARK    8  A    between atoms: N_18  and  C_19
REMARK    9  A    between atoms: C_19  and  C_20
REMARK   10  A    between atoms: C_20  and  N_21
REMARK   11  A    between atoms: N_21  and  C_22
REMARK   12  A    between atoms: C_25  and  O_26
REMARK   13  A    between atoms: O_26  and  C_27
REMARK                            x       y       z     vdW  Elec       q    Type
REMARK                         _______ _______ _______ _____ _____    ______ ____
ROOT
ATOM      1  C   UNL     1       2.031   7.265  19.871  0.00  0.00    +0.000 C 
ATOM      2  O   UNL     1       2.106   8.215  19.093  0.00  0.00    +0.000 OA
ATOM      3  N   UNL     1       1.590   7.381  21.173  0.00  0.00    +0.000 N 
ATOM      4  H   UNL     1       1.258   6.525  21.617  0.00  0.00    +0.000 HD
ENDROOT
BRANCH   1   5
ATOM      5  C   UNL     1       2.323   5.821  19.426  0.00  0.00    +0.000 C 
BRANCH   5   6
ATOM      6  N   UNL     1       3.590   5.886  18.684  0.00  0.00    +0.000 N 
ATOM      7  C   UNL     1       3.811   5.167  17.542  0.00  0.00    +0.000 C 
ATOM      8  O   UNL     1       2.982   4.378  17.098  0.00  0.00    +0.000 OA
ATOM      9  N   UNL     1       5.039   5.415  16.955  0.00  0.00    +0.000 N 
ATOM     10  C   UNL     1       5.407   4.673  15.749  0.00  0.00    +0.000 C 
ATOM     11  C   UNL     1       6.927   4.499  15.679  0.00  0.00    +0.000 C 
ATOM     12  O   UNL     1       7.597   5.769  15.738  0.00  0.00    +0.000 OA
ATOM     13  C   UNL     1       7.282   6.457  16.956  0.00  0.00    +0.000 C 
ATOM     14  C   UNL     1       5.774   6.683  17.098  0.00  0.00    +0.000 C 
ATOM     15  H   UNL     1       4.424   5.978  19.249  0.00  0.00    +0.000 HD
ENDBRANCH   5   6
BRANCH   5  16
ATOM     16  C   UNL     1       2.507   4.888  20.645  0.00  0.00    +0.000 C 
BRANCH  16  18
ATOM     17  C   UNL     1       3.264   2.522  20.037  0.00  0.00    +0.000 C 
ATOM     18  C   UNL     1       2.093   3.391  20.519  0.00  0.00    +0.000 C 
ATOM     19  C   UNL     1       0.896   3.172  19.580  0.00  0.00    +0.000 C 
ATOM     20  C   UNL     1       1.672   2.909  21.925  0.00  0.00    +0.000 C 
ENDBRANCH  16  18
ENDBRANCH   5  16
ENDBRANCH   1   5
BRANCH   3  21
ATOM     21  C   UNL     1       1.323   8.646  21.845  0.00  0.00    +0.000 C 
BRANCH  21  22
ATOM     22  C   UNL     1      -0.138   9.124  21.810  0.00  0.00    +0.000 C 
BRANCH  22  23
ATOM     23  N   UNL     1      -0.259  10.525  22.224  0.00  0.00    +0.000 N 
ATOM     24  H   UNL     1      -1.040  10.689  22.854  0.00  0.00    +0.000 HD
BRANCH  23  25
ATOM     25  C   UNL     1      -0.197  11.497  21.210  0.00  0.00    +0.000 A 
ATOM     26  C   UNL     1      -1.392  11.925  20.625  0.00  0.00    +0.000 A 
ATOM     27  C   UNL     1      -1.400  12.945  19.666  0.00  0.00    +0.000 A 
ATOM     28  C   UNL     1      -0.220  13.603  19.313  0.00  0.00    +0.000 A 
ATOM     29  C   UNL     1       0.977  13.181  19.876  0.00  0.00    +0.000 A 
ATOM     30  C   UNL     1       0.980  12.160  20.838  0.00  0.00    +0.000 A 
BRANCH  28  31
ATOM     31  O   UNL     1      -0.362  14.576  18.374  0.00  0.00    +0.000 OA
BRANCH  31  32
ATOM     32  C   UNL     1      -0.200  15.939  18.748  0.00  0.00    +0.000 C 
ATOM     33  F   UNL     1      -0.853  16.821  17.965  0.00  0.00    +0.000 F 
ATOM     34  F   UNL     1      -0.619  16.098  20.020  0.00  0.00    +0.000 F 
ATOM     35  F   UNL     1       1.120  16.242  18.702  0.00  0.00    +0.000 F 
ENDBRANCH  31  32
ENDBRANCH  28  31
ENDBRANCH  23  25
ENDBRANCH  22  23
ENDBRANCH  21  22
ENDBRANCH   3  21
TORSDOF 10
ENDMDL
