MODEL 1
REMARK VINA RESULT:      -9.3      0.000      0.000
REMARK  Name = 
REMARK  10 active torsions:
REMARK  status: ('A' for Active; 'I' for Inactive)
REMARK    1  A    between atoms: C_1  and  O_2
REMARK    2  A    between atoms: O_2  and  C_3
REMARK    3  A    between atoms: C_6  and  N_7
REMARK    4  A    between atoms: N_7  and  C_8
REMARK    5  A    between atoms: C_8  and  C_9
REMARK    6  A    between atoms: C_9  and  N_10
REMARK    7  A    between atoms: C_11  and  C_13
REMARK    8  A    between atoms: C_13  and  N_14
REMARK    9  A    between atoms: N_14  and  C_15
REMARK   10  A    between atoms: C_18  and  C_19
REMARK                            x       y       z     vdW  Elec       q    Type
REMARK                         _______ _______ _______ _____ _____    ______ ____
ROOT
ATOM      1  C   UNL     1       3.267   4.863  19.265  0.00  0.00    +0.000 C 
ATOM      2  C   UNL     1       2.367   4.714  18.006  0.00  0.00    +0.000 C 
ATOM      3  C   UNL     1       2.789   3.576  17.090  0.00  0.00    +0.000 C 
ATOM      4  C   UNL     1       2.961   2.269  17.853  0.00  0.00    +0.000 C 
ATOM      5  C   UNL     1       3.963   2.403  18.994  0.00  0.00    +0.000 C 
ATOM      6  C   UNL     1       3.566   3.505  19.973  0.00  0.00    +0.000 C 
ENDROOT
BRANCH   1   8
ATOM      7  N   UNL     1       4.777   6.068  17.631  0.00  0.00    +0.000 N 
ATOM      8  C   UNL     1       4.690   5.448  18.860  0.00  0.00    +0.000 C 
ATOM      9  O   UNL     1       5.668   5.404  19.613  0.00  0.00    +0.000 OA
ATOM     10  H   UNL     1       3.931   6.372  17.171  0.00  0.00    +0.000 HD
BRANCH   7  11
ATOM     11  C   UNL     1       6.037   6.594  17.138  0.00  0.00    +0.000 C 
BRANCH  11  12
ATOM     12  C   UNL     1       7.040   5.481  16.792  0.00  0.00    +0.000 C 
BRANCH  12  13
ATOM     13  N   UNL     1       7.574   5.687  15.446  0.00  0.00    +0.000 N 
ATOM     14  H   UNL     1       7.624   6.671  15.192  0.00  0.00    +0.000 HD
BRANCH  13  18
ATOM     15  C   UNL     1       5.878   3.457  12.277  0.00  0.00    +0.000 A 
ATOM     16  C   UNL     1       5.341   3.411  13.561  0.00  0.00    +0.000 A 
ATOM     17  C   UNL     1       5.919   4.152  14.598  0.00  0.00    +0.000 A 
ATOM     18  C   UNL     1       7.079   4.911  14.392  0.00  0.00    +0.000 A 
ATOM     19  C   UNL     1       7.605   4.949  13.096  0.00  0.00    +0.000 A 
ATOM     20  C   UNL     1       7.018   4.225  12.048  0.00  0.00    +0.000 A 
BRANCH  15  22
ATOM     21  C   UNL     1       3.855   3.010  11.147  0.00  0.00    +0.000 C 
ATOM     22  O   UNL     1       5.232   2.702  11.338  0.00  0.00    +0.000 OA
ENDBRANCH  15  22
ENDBRANCH  13  18
ENDBRANCH  12  13
ENDBRANCH  11  12
ENDBRANCH   7  11
ENDBRANCH   1   8
BRANCH   1  23
ATOM     23  N   UNL     1       2.623   5.805  20.220  0.00  0.00    +0.000 N 
ATOM     24  H   UNL     1       2.912   5.693  21.190  0.00  0.00    +0.000 HD
BRANCH  23  25
ATOM     25  C   UNL     1       2.191   7.089  19.910  0.00  0.00    +0.000 A 
ATOM     26  C   UNL     1       2.292   7.658  18.638  0.00  0.00    +0.000 A 
ATOM     27  C   UNL     1       1.804   8.922  18.333  0.00  0.00    +0.000 A 
ATOM     28  C   UNL     1       1.116   9.675  19.279  0.00  0.00    +0.000 A 
ATOM     29  C   UNL     1       0.971   9.103  20.557  0.00  0.00    +0.000 A 
ATOM     30  C   UNL     1       1.499   7.837  20.867  0.00  0.00    +0.000 A 
BRANCH  28  31
ATOM     31  C   UNL     1       0.567  10.998  18.920  0.00  0.00    +0.000 A 
ATOM     32  C   UNL     1      -0.770  11.147  18.486  0.00  0.00    +0.000 A 
ATOM     33  C   UNL     1      -1.290  12.392  18.125  0.00  0.00    +0.000 A 
ATOM     34  C   UNL     1      -0.486  13.521  18.199  0.00  0.00    +0.000 A 
ATOM     35  C   UNL     1       0.838  13.406  18.624  0.00  0.00    +0.000 A 
ATOM     36  C   UNL     1       1.355  12.155  18.967  0.00  0.00    +0.000 A 
ENDBRANCH  28  31
ENDBRANCH  23  25
ENDBRANCH   1  23
TORSDOF 9
ENDMDL
MODEL 2
REMARK VINA RESULT:      -9.3      0.891      1.454
REMARK  Name = 
REMARK  10 active torsions:
REMARK  status: ('A' for Active; 'I' for Inactive)
REMARK    1  A    between atoms: C_1  and  O_2
REMARK    2  A    between atoms: O_2  and  C_3
REMARK    3  A    between atoms: C_6  and  N_7
REMARK    4  A    between atoms: N_7  and  C_8
REMARK    5  A    between atoms: C_8  and  C_9
REMARK    6  A    between atoms: C_9  and  N_10
REMARK    7  A    between atoms: C_11  and  C_13
REMARK    8  A    between atoms: C_13  and  N_14
REMARK    9  A    between atoms: N_14  and  C_15
REMARK   10  A    between atoms: C_18  and  C_19
REMARK                            x       y       z     vdW  Elec       q    Type
REMARK                         _______ _______ _______ _____ _____    ______ ____
ROOT
ATOM      1  C   UNL     1       3.153   4.877  19.236  0.00  0.00    +0.000 C 
ATOM      2  C   UNL     1       2.118   4.772  18.080  0.00  0.00    +0.000 C 
ATOM      3  C   UNL     1       2.412   3.644  17.103  0.00  0.00    +0.000 C 
ATOM      4  C   UNL     1       2.637   2.319  17.820  0.00  0.00    +0.000 C 
ATOM      5  C   UNL     1       3.760   2.410  18.846  0.00  0.00    +0.000 C 
ATOM      6  C   UNL     1       3.497   3.499  19.882  0.00  0.00    +0.000 C 
ENDROOT
BRANCH   1   8
ATOM      7  N   UNL     1       5.680   4.986  19.310  0.00  0.00    +0.000 N 
ATOM      8  C   UNL     1       4.536   5.441  18.687  0.00  0.00    +0.000 C 
ATOM      9  O   UNL     1       4.608   6.210  17.723  0.00  0.00    +0.000 OA
ATOM     10  H   UNL     1       5.637   4.146  19.868  0.00  0.00    +0.000 HD
BRANCH   7  11
ATOM     11  C   UNL     1       6.992   5.472  18.925  0.00  0.00    +0.000 C 
BRANCH  11  12
ATOM     12  C   UNL     1       7.557   4.725  17.705  0.00  0.00    +0.000 C 
BRANCH  12  13
ATOM     13  N   UNL     1       7.414   5.548  16.503  0.00  0.00    +0.000 N 
ATOM     14  H   UNL     1       6.992   6.452  16.697  0.00  0.00    +0.000 HD
BRANCH  13  18
ATOM     15  C   UNL     1       5.997   3.682  12.981  0.00  0.00    +0.000 A 
ATOM     16  C   UNL     1       7.145   4.470  12.969  0.00  0.00    +0.000 A 
ATOM     17  C   UNL     1       7.595   5.084  14.144  0.00  0.00    +0.000 A 
ATOM     18  C   UNL     1       6.880   4.972  15.345  0.00  0.00    +0.000 A 
ATOM     19  C   UNL     1       5.731   4.176  15.341  0.00  0.00    +0.000 A 
ATOM     20  C   UNL     1       5.286   3.542  14.171  0.00  0.00    +0.000 A 
BRANCH  15  22
ATOM     21  C   UNL     1       4.268   3.197  11.450  0.00  0.00    +0.000 C 
ATOM     22  O   UNL     1       5.650   3.125  11.782  0.00  0.00    +0.000 OA
ENDBRANCH  15  22
ENDBRANCH  13  18
ENDBRANCH  12  13
ENDBRANCH  11  12
ENDBRANCH   7  11
ENDBRANCH   1   8
BRANCH   1  23
ATOM     23  N   UNL     1       2.638   5.813  20.271  0.00  0.00    +0.000 N 
ATOM     24  H   UNL     1       3.050   5.694  21.195  0.00  0.00    +0.000 HD
BRANCH  23  25
ATOM     25  C   UNL     1       2.170   7.099  20.028  0.00  0.00    +0.000 A 
ATOM     26  C   UNL     1       2.271   7.743  18.793  0.00  0.00    +0.000 A 
ATOM     27  C   UNL     1       1.749   9.007  18.553  0.00  0.00    +0.000 A 
ATOM     28  C   UNL     1       1.023   9.682  19.529  0.00  0.00    +0.000 A 
ATOM     29  C   UNL     1       0.878   9.034  20.769  0.00  0.00    +0.000 A 
ATOM     30  C   UNL     1       1.441   7.769  21.015  0.00  0.00    +0.000 A 
BRANCH  28  31
ATOM     31  C   UNL     1       0.439  11.006  19.237  0.00  0.00    +0.000 A 
ATOM     32  C   UNL     1       1.219  12.052  18.693  0.00  0.00    +0.000 A 
ATOM     33  C   UNL     1       0.678  13.314  18.435  0.00  0.00    +0.000 A 
ATOM     34  C   UNL     1      -0.662  13.556  18.705  0.00  0.00    +0.000 A 
ATOM     35  C   UNL     1      -1.457  12.544  19.242  0.00  0.00    +0.000 A 
ATOM     36  C   UNL     1      -0.905  11.291  19.514  0.00  0.00    +0.000 A 
ENDBRANCH  28  31
ENDBRANCH  23  25
ENDBRANCH   1  23
TORSDOF 9
ENDMDL
MODEL 3
REMARK VINA RESULT:      -9.2      1.030      1.355
REMARK  Name = 
REMARK  10 active torsions:
REMARK  status: ('A' for Active; 'I' for Inactive)
REMARK    1  A    between atoms: C_1  and  O_2
REMARK    2  A    between atoms: O_2  and  C_3
REMARK    3  A    between atoms: C_6  and  N_7
REMARK    4  A    between atoms: N_7  and  C_8
REMARK    5  A    between atoms: C_8  and  C_9
REMARK    6  A    between atoms: C_9  and  N_10
REMARK    7  A    between atoms: C_11  and  C_13
REMARK    8  A    between atoms: C_13  and  N_14
REMARK    9  A    between atoms: N_14  and  C_15
REMARK   10  A    between atoms: C_18  and  C_19
REMARK                            x       y       z     vdW  Elec       q    Type
REMARK                         _______ _______ _______ _____ _____    ______ ____
ROOT
ATOM      1  C   UNL     1       3.086   4.455  19.207  0.00  0.00    +0.000 C 
ATOM      2  C   UNL     1       1.647   4.408  18.621  0.00  0.00    +0.000 C 
ATOM      3  C   UNL     1       1.215   3.016  18.185  0.00  0.00    +0.000 C 
ATOM      4  C   UNL     1       1.442   1.984  19.281  0.00  0.00    +0.000 C 
ATOM      5  C   UNL     1       2.896   1.946  19.736  0.00  0.00    +0.000 C 
ATOM      6  C   UNL     1       3.374   3.310  20.228  0.00  0.00    +0.000 C 
ENDROOT
BRANCH   1   8
ATOM      7  N   UNL     1       5.441   4.702  18.315  0.00  0.00    +0.000 N 
ATOM      8  C   UNL     1       4.160   4.264  18.049  0.00  0.00    +0.000 C 
ATOM      9  O   UNL     1       3.895   3.711  16.977  0.00  0.00    +0.000 OA
ATOM     10  H   UNL     1       5.720   4.859  19.272  0.00  0.00    +0.000 HD
BRANCH   7  11
ATOM     11  C   UNL     1       6.489   4.623  17.313  0.00  0.00    +0.000 C 
BRANCH  11  12
ATOM     12  C   UNL     1       6.693   5.956  16.574  0.00  0.00    +0.000 C 
BRANCH  12  13
ATOM     13  N   UNL     1       7.460   5.737  15.348  0.00  0.00    +0.000 N 
ATOM     14  H   UNL     1       7.828   6.600  14.957  0.00  0.00    +0.000 HD
BRANCH  13  18
ATOM     15  C   UNL     1       5.681   3.400  12.303  0.00  0.00    +0.000 A 
ATOM     16  C   UNL     1       4.995   3.700  13.477  0.00  0.00    +0.000 A 
ATOM     17  C   UNL     1       5.602   4.469  14.476  0.00  0.00    +0.000 A 
ATOM     18  C   UNL     1       6.927   4.912  14.351  0.00  0.00    +0.000 A 
ATOM     19  C   UNL     1       7.601   4.605  13.165  0.00  0.00    +0.000 A 
ATOM     20  C   UNL     1       6.990   3.850  12.152  0.00  0.00    +0.000 A 
BRANCH  15  22
ATOM     21  C   UNL     1       3.721   3.163  11.010  0.00  0.00    +0.000 C 
ATOM     22  O   UNL     1       4.992   2.648  11.392  0.00  0.00    +0.000 OA
ENDBRANCH  15  22
ENDBRANCH  13  18
ENDBRANCH  12  13
ENDBRANCH  11  12
ENDBRANCH   7  11
ENDBRANCH   1   8
BRANCH   1  23
ATOM     23  N   UNL     1       3.312   5.778  19.847  0.00  0.00    +0.000 N 
ATOM     24  H   UNL     1       4.272   5.952  20.142  0.00  0.00    +0.000 HD
BRANCH  23  25
ATOM     25  C   UNL     1       2.594   6.936  19.569  0.00  0.00    +0.000 A 
ATOM     26  C   UNL     1       1.791   7.596  20.502  0.00  0.00    +0.000 A 
ATOM     27  C   UNL     1       1.125   8.783  20.223  0.00  0.00    +0.000 A 
ATOM     28  C   UNL     1       1.280   9.423  18.998  0.00  0.00    +0.000 A 
ATOM     29  C   UNL     1       2.115   8.792  18.057  0.00  0.00    +0.000 A 
ATOM     30  C   UNL     1       2.758   7.573  18.335  0.00  0.00    +0.000 A 
BRANCH  28  31
ATOM     31  C   UNL     1       0.598  10.706  18.738  0.00  0.00    +0.000 A 
ATOM     32  C   UNL     1      -0.766  10.753  18.369  0.00  0.00    +0.000 A 
ATOM     33  C   UNL     1      -1.414  11.962  18.101  0.00  0.00    +0.000 A 
ATOM     34  C   UNL     1      -0.712  13.155  18.207  0.00  0.00    +0.000 A 
ATOM     35  C   UNL     1       0.635  13.141  18.569  0.00  0.00    +0.000 A 
ATOM     36  C   UNL     1       1.279  11.928  18.818  0.00  0.00    +0.000 A 
ENDBRANCH  28  31
ENDBRANCH  23  25
ENDBRANCH   1  23
TORSDOF 9
ENDMDL
MODEL 4
REMARK VINA RESULT:      -9.2      2.569      4.116
REMARK  Name = 
REMARK  10 active torsions:
REMARK  status: ('A' for Active; 'I' for Inactive)
REMARK    1  A    between atoms: C_1  and  O_2
REMARK    2  A    between atoms: O_2  and  C_3
REMARK    3  A    between atoms: C_6  and  N_7
REMARK    4  A    between atoms: N_7  and  C_8
REMARK    5  A    between atoms: C_8  and  C_9
REMARK    6  A    between atoms: C_9  and  N_10
REMARK    7  A    between atoms: C_11  and  C_13
REMARK    8  A    between atoms: C_13  and  N_14
REMARK    9  A    between atoms: N_14  and  C_15
REMARK   10  A    between atoms: C_18  and  C_19
REMARK                            x       y       z     vdW  Elec       q    Type
REMARK                         _______ _______ _______ _____ _____    ______ ____
ROOT
ATOM      1  C   UNL     1       2.778   4.705  19.921  0.00  0.00    +0.000 C 
ATOM      2  C   UNL     1       1.346   4.474  19.362  0.00  0.00    +0.000 C 
ATOM      3  C   UNL     1       0.802   3.082  19.645  0.00  0.00    +0.000 C 
ATOM      4  C   UNL     1       0.929   2.713  21.117  0.00  0.00    +0.000 C 
ATOM      5  C   UNL     1       2.370   2.805  21.604  0.00  0.00    +0.000 C 
ATOM      6  C   UNL     1       2.957   4.197  21.386  0.00  0.00    +0.000 C 
ENDROOT
BRANCH   1   8
ATOM      7  N   UNL     1       3.566   3.735  17.720  0.00  0.00    +0.000 N 
ATOM      8  C   UNL     1       3.844   3.893  19.062  0.00  0.00    +0.000 C 
ATOM      9  O   UNL     1       4.896   3.459  19.542  0.00  0.00    +0.000 OA
ATOM     10  H   UNL     1       2.887   4.341  17.283  0.00  0.00    +0.000 HD
BRANCH   7  11
ATOM     11  C   UNL     1       4.443   2.970  16.853  0.00  0.00    +0.000 C 
BRANCH  11  12
ATOM     12  C   UNL     1       5.289   3.870  15.936  0.00  0.00    +0.000 C 
BRANCH  12  13
ATOM     13  N   UNL     1       6.652   3.975  16.456  0.00  0.00    +0.000 N 
ATOM     14  H   UNL     1       6.923   3.166  17.009  0.00  0.00    +0.000 HD
BRANCH  13  18
ATOM     15  C   UNL     1       8.097   7.498  18.297  0.00  0.00    +0.000 A 
ATOM     16  C   UNL     1       8.167   6.265  18.942  0.00  0.00    +0.000 A 
ATOM     17  C   UNL     1       7.678   5.112  18.319  0.00  0.00    +0.000 A 
ATOM     18  C   UNL     1       7.059   5.169  17.062  0.00  0.00    +0.000 A 
ATOM     19  C   UNL     1       6.999   6.413  16.427  0.00  0.00    +0.000 A 
ATOM     20  C   UNL     1       7.506   7.570  17.038  0.00  0.00    +0.000 A 
BRANCH  15  22
ATOM     21  C   UNL     1       8.639   9.795  18.288  0.00  0.00    +0.000 C 
ATOM     22  O   UNL     1       8.610   8.558  18.993  0.00  0.00    +0.000 OA
ENDBRANCH  15  22
ENDBRANCH  13  18
ENDBRANCH  12  13
ENDBRANCH  11  12
ENDBRANCH   7  11
ENDBRANCH   1   8
BRANCH   1  23
ATOM     23  N   UNL     1       3.110   6.152  19.839  0.00  0.00    +0.000 N 
ATOM     24  H   UNL     1       3.928   6.371  19.272  0.00  0.00    +0.000 HD
BRANCH  23  25
ATOM     25  C   UNL     1       2.189   7.191  19.917  0.00  0.00    +0.000 A 
ATOM     26  C   UNL     1       1.455   7.494  21.066  0.00  0.00    +0.000 A 
ATOM     27  C   UNL     1       0.580   8.570  21.143  0.00  0.00    +0.000 A 
ATOM     28  C   UNL     1       0.438   9.459  20.083  0.00  0.00    +0.000 A 
ATOM     29  C   UNL     1       1.197   9.191  18.929  0.00  0.00    +0.000 A 
ATOM     30  C   UNL     1       2.055   8.080  18.846  0.00  0.00    +0.000 A 
BRANCH  28  31
ATOM     31  C   UNL     1      -0.464  10.621  20.203  0.00  0.00    +0.000 A 
ATOM     32  C   UNL     1      -0.706  11.240  21.451  0.00  0.00    +0.000 A 
ATOM     33  C   UNL     1      -1.575  12.327  21.576  0.00  0.00    +0.000 A 
ATOM     34  C   UNL     1      -2.216  12.828  20.451  0.00  0.00    +0.000 A 
ATOM     35  C   UNL     1      -1.998  12.238  19.205  0.00  0.00    +0.000 A 
ATOM     36  C   UNL     1      -1.142  11.141  19.092  0.00  0.00    +0.000 A 
ENDBRANCH  28  31
ENDBRANCH  23  25
ENDBRANCH   1  23
TORSDOF 9
ENDMDL
MODEL 5
REMARK VINA RESULT:      -9.2      1.276      1.316
REMARK  Name = 
REMARK  10 active torsions:
REMARK  status: ('A' for Active; 'I' for Inactive)
REMARK    1  A    between atoms: C_1  and  O_2
REMARK    2  A    between atoms: O_2  and  C_3
REMARK    3  A    between atoms: C_6  and  N_7
REMARK    4  A    between atoms: N_7  and  C_8
REMARK    5  A    between atoms: C_8  and  C_9
REMARK    6  A    between atoms: C_9  and  N_10
REMARK    7  A    between atoms: C_11  and  C_13
REMARK    8  A    between atoms: C_13  and  N_14
REMARK    9  A    between atoms: N_14  and  C_15
REMARK   10  A    between atoms: C_18  and  C_19
REMARK                            x       y       z     vdW  Elec       q    Type
REMARK                         _______ _______ _______ _____ _____    ______ ____
ROOT
ATOM      1  C   UNL     1       3.197   5.349  19.139  0.00  0.00    +0.000 C 
ATOM      2  C   UNL     1       1.914   5.255  18.266  0.00  0.00    +0.000 C 
ATOM      3  C   UNL     1       1.932   4.093  17.285  0.00  0.00    +0.000 C 
ATOM      4  C   UNL     1       2.278   2.779  17.971  0.00  0.00    +0.000 C 
ATOM      5  C   UNL     1       3.616   2.851  18.698  0.00  0.00    +0.000 C 
ATOM      6  C   UNL     1       3.641   3.975  19.731  0.00  0.00    +0.000 C 
ENDROOT
BRANCH   1   8
ATOM      7  N   UNL     1       5.687   5.619  18.776  0.00  0.00    +0.000 N 
ATOM      8  C   UNL     1       4.428   5.845  18.260  0.00  0.00    +0.000 C 
ATOM      9  O   UNL     1       4.287   6.364  17.148  0.00  0.00    +0.000 OA
ATOM     10  H   UNL     1       5.804   4.936  19.509  0.00  0.00    +0.000 HD
BRANCH   7  11
ATOM     11  C   UNL     1       6.879   6.074  18.083  0.00  0.00    +0.000 C 
BRANCH  11  12
ATOM     12  C   UNL     1       7.354   5.072  17.018  0.00  0.00    +0.000 C 
BRANCH  12  13
ATOM     13  N   UNL     1       7.275   5.679  15.689  0.00  0.00    +0.000 N 
ATOM     14  H   UNL     1       6.816   6.586  15.700  0.00  0.00    +0.000 HD
BRANCH  13  18
ATOM     15  C   UNL     1       5.781   3.460  12.413  0.00  0.00    +0.000 A 
ATOM     16  C   UNL     1       5.081   3.534  13.614  0.00  0.00    +0.000 A 
ATOM     17  C   UNL     1       5.595   4.269  14.689  0.00  0.00    +0.000 A 
ATOM     18  C   UNL     1       6.844   4.900  14.610  0.00  0.00    +0.000 A 
ATOM     19  C   UNL     1       7.533   4.818  13.395  0.00  0.00    +0.000 A 
ATOM     20  C   UNL     1       7.014   4.100  12.308  0.00  0.00    +0.000 A 
BRANCH  15  22
ATOM     21  C   UNL     1       3.883   3.149  11.045  0.00  0.00    +0.000 C 
ATOM     22  O   UNL     1       5.187   2.722  11.427  0.00  0.00    +0.000 OA
ENDBRANCH  15  22
ENDBRANCH  13  18
ENDBRANCH  12  13
ENDBRANCH  11  12
ENDBRANCH   7  11
ENDBRANCH   1   8
BRANCH   1  23
ATOM     23  N   UNL     1       2.974   6.329  20.235  0.00  0.00    +0.000 N 
ATOM     24  H   UNL     1       3.774   6.470  20.850  0.00  0.00    +0.000 HD
BRANCH  23  25
ATOM     25  C   UNL     1       2.118   7.422  20.171  0.00  0.00    +0.000 A 
ATOM     26  C   UNL     1       2.045   8.290  19.080  0.00  0.00    +0.000 A 
ATOM     27  C   UNL     1       1.145   9.345  19.009  0.00  0.00    +0.000 A 
ATOM     28  C   UNL     1       0.203   9.554  20.011  0.00  0.00    +0.000 A 
ATOM     29  C   UNL     1       0.235   8.667  21.103  0.00  0.00    +0.000 A 
ATOM     30  C   UNL     1       1.174   7.623  21.183  0.00  0.00    +0.000 A 
BRANCH  28  31
ATOM     31  C   UNL     1      -0.774  10.655  19.895  0.00  0.00    +0.000 A 
ATOM     32  C   UNL     1      -1.629  10.765  18.774  0.00  0.00    +0.000 A 
ATOM     33  C   UNL     1      -2.542  11.815  18.647  0.00  0.00    +0.000 A 
ATOM     34  C   UNL     1      -2.627  12.776  19.645  0.00  0.00    +0.000 A 
ATOM     35  C   UNL     1      -1.797  12.694  20.763  0.00  0.00    +0.000 A 
ATOM     36  C   UNL     1      -0.876  11.651  20.875  0.00  0.00    +0.000 A 
ENDBRANCH  28  31
ENDBRANCH  23  25
ENDBRANCH   1  23
TORSDOF 9
ENDMDL
MODEL 6
REMARK VINA RESULT:      -9.2      0.740      1.115
REMARK  Name = 
REMARK  10 active torsions:
REMARK  status: ('A' for Active; 'I' for Inactive)
REMARK    1  A    between atoms: C_1  and  O_2
REMARK    2  A    between atoms: O_2  and  C_3
REMARK    3  A    between atoms: C_6  and  N_7
REMARK    4  A    between atoms: N_7  and  C_8
REMARK    5  A    between atoms: C_8  and  C_9
REMARK    6  A    between atoms: C_9  and  N_10
REMARK    7  A    between atoms: C_11  and  C_13
REMARK    8  A    between atoms: C_13  and  N_14
REMARK    9  A    between atoms: N_14  and  C_15
REMARK   10  A    between atoms: C_18  and  C_19
REMARK                            x       y       z     vdW  Elec       q    Type
REMARK                         _______ _______ _______ _____ _____    ______ ____
ROOT
ATOM      1  C   UNL     1       3.075   4.686  19.325  0.00  0.00    +0.000 C 
ATOM      2  C   UNL     1       1.779   4.222  18.603  0.00  0.00    +0.000 C 
ATOM      3  C   UNL     1       1.962   2.951  17.788  0.00  0.00    +0.000 C 
ATOM      4  C   UNL     1       2.614   1.844  18.603  0.00  0.00    +0.000 C 
ATOM      5  C   UNL     1       3.958   2.276  19.179  0.00  0.00    +0.000 C 
ATOM      6  C   UNL     1       3.829   3.526  20.047  0.00  0.00    +0.000 C 
ENDROOT
BRANCH   1   8
ATOM      7  N   UNL     1       5.376   5.567  18.746  0.00  0.00    +0.000 N 
ATOM      8  C   UNL     1       4.114   5.271  18.272  0.00  0.00    +0.000 C 
ATOM      9  O   UNL     1       3.843   5.414  17.076  0.00  0.00    +0.000 OA
ATOM     10  H   UNL     1       5.680   5.166  19.621  0.00  0.00    +0.000 HD
BRANCH   7  11
ATOM     11  C   UNL     1       6.388   6.151  17.885  0.00  0.00    +0.000 C 
BRANCH  11  12
ATOM     12  C   UNL     1       7.199   5.086  17.130  0.00  0.00    +0.000 C 
BRANCH  12  13
ATOM     13  N   UNL     1       7.541   5.571  15.793  0.00  0.00    +0.000 N 
ATOM     14  H   UNL     1       7.395   6.571  15.690  0.00  0.00    +0.000 HD
BRANCH  13  18
ATOM     15  C   UNL     1       5.939   3.573  12.426  0.00  0.00    +0.000 A 
ATOM     16  C   UNL     1       5.327   3.488  13.675  0.00  0.00    +0.000 A 
ATOM     17  C   UNL     1       5.876   4.152  14.778  0.00  0.00    +0.000 A 
ATOM     18  C   UNL     1       7.076   4.869  14.675  0.00  0.00    +0.000 A 
ATOM     19  C   UNL     1       7.676   4.946  13.414  0.00  0.00    +0.000 A 
ATOM     20  C   UNL     1       7.120   4.300  12.300  0.00  0.00    +0.000 A 
BRANCH  15  22
ATOM     21  C   UNL     1       3.946   3.221  11.212  0.00  0.00    +0.000 C 
ATOM     22  O   UNL     1       5.316   2.892  11.417  0.00  0.00    +0.000 OA
ENDBRANCH  15  22
ENDBRANCH  13  18
ENDBRANCH  12  13
ENDBRANCH  11  12
ENDBRANCH   7  11
ENDBRANCH   1   8
BRANCH   1  23
ATOM     23  N   UNL     1       2.737   5.758  20.300  0.00  0.00    +0.000 N 
ATOM     24  H   UNL     1       3.278   5.737  21.162  0.00  0.00    +0.000 HD
BRANCH  23  25
ATOM     25  C   UNL     1       2.262   7.022  19.968  0.00  0.00    +0.000 A 
ATOM     26  C   UNL     1       2.407   7.600  18.705  0.00  0.00    +0.000 A 
ATOM     27  C   UNL     1       1.878   8.841  18.375  0.00  0.00    +0.000 A 
ATOM     28  C   UNL     1       1.102   9.556  19.282  0.00  0.00    +0.000 A 
ATOM     29  C   UNL     1       0.914   8.973  20.549  0.00  0.00    +0.000 A 
ATOM     30  C   UNL     1       1.483   7.732  20.886  0.00  0.00    +0.000 A 
BRANCH  28  31
ATOM     31  C   UNL     1       0.512  10.853  18.895  0.00  0.00    +0.000 A 
ATOM     32  C   UNL     1       1.300  12.025  18.812  0.00  0.00    +0.000 A 
ATOM     33  C   UNL     1       0.745  13.260  18.467  0.00  0.00    +0.000 A 
ATOM     34  C   UNL     1      -0.612  13.350  18.188  0.00  0.00    +0.000 A 
ATOM     35  C   UNL     1      -1.415  12.211  18.262  0.00  0.00    +0.000 A 
ATOM     36  C   UNL     1      -0.856  10.984  18.623  0.00  0.00    +0.000 A 
ENDBRANCH  28  31
ENDBRANCH  23  25
ENDBRANCH   1  23
TORSDOF 9
ENDMDL
MODEL 7
REMARK VINA RESULT:      -9.1      1.510      1.885
REMARK  Name = 
REMARK  10 active torsions:
REMARK  status: ('A' for Active; 'I' for Inactive)
REMARK    1  A    between atoms: C_1  and  O_2
REMARK    2  A    between atoms: O_2  and  C_3
REMARK    3  A    between atoms: C_6  and  N_7
REMARK    4  A    between atoms: N_7  and  C_8
REMARK    5  A    between atoms: C_8  and  C_9
REMARK    6  A    between atoms: C_9  and  N_10
REMARK    7  A    between atoms: C_11  and  C_13
REMARK    8  A    between atoms: C_13  and  N_14
REMARK    9  A    between atoms: N_14  and  C_15
REMARK   10  A    between atoms: C_18  and  C_19
REMARK                            x       y       z     vdW  Elec       q    Type
REMARK                         _______ _______ _______ _____ _____    ______ ____
ROOT
ATOM      1  C   UNL     1       3.410   5.341  19.134  0.00  0.00    +0.000 C 
ATOM      2  C   UNL     1       2.787   5.089  17.733  0.00  0.00    +0.000 C 
ATOM      3  C   UNL     1       2.427   3.632  17.483  0.00  0.00    +0.000 C 
ATOM      4  C   UNL     1       1.591   3.053  18.616  0.00  0.00    +0.000 C 
ATOM      5  C   UNL     1       2.292   3.180  19.963  0.00  0.00    +0.000 C 
ATOM      6  C   UNL     1       2.639   4.631  20.290  0.00  0.00    +0.000 C 
ENDROOT
BRANCH   1   8
ATOM      7  N   UNL     1       5.916   5.644  18.953  0.00  0.00    +0.000 N 
ATOM      8  C   UNL     1       4.889   4.756  19.194  0.00  0.00    +0.000 C 
ATOM      9  O   UNL     1       5.129   3.580  19.488  0.00  0.00    +0.000 OA
ATOM     10  H   UNL     1       5.738   6.635  19.024  0.00  0.00    +0.000 HD
BRANCH   7  11
ATOM     11  C   UNL     1       7.301   5.209  18.933  0.00  0.00    +0.000 C 
BRANCH  11  12
ATOM     12  C   UNL     1       7.685   4.539  17.603  0.00  0.00    +0.000 C 
BRANCH  12  13
ATOM     13  N   UNL     1       7.336   5.413  16.483  0.00  0.00    +0.000 N 
ATOM     14  H   UNL     1       6.718   6.172  16.757  0.00  0.00    +0.000 HD
BRANCH  13  18
ATOM     15  C   UNL     1       5.916   3.787  12.845  0.00  0.00    +0.000 A 
ATOM     16  C   UNL     1       5.281   3.514  14.054  0.00  0.00    +0.000 A 
ATOM     17  C   UNL     1       5.770   4.057  15.248  0.00  0.00    +0.000 A 
ATOM     18  C   UNL     1       6.933   4.838  15.272  0.00  0.00    +0.000 A 
ATOM     19  C   UNL     1       7.557   5.105  14.049  0.00  0.00    +0.000 A 
ATOM     20  C   UNL     1       7.061   4.580  12.846  0.00  0.00    +0.000 A 
BRANCH  15  22
ATOM     21  C   UNL     1       5.718   1.857  11.502  0.00  0.00    +0.000 C 
ATOM     22  O   UNL     1       5.353   3.212  11.739  0.00  0.00    +0.000 OA
ENDBRANCH  15  22
ENDBRANCH  13  18
ENDBRANCH  12  13
ENDBRANCH  11  12
ENDBRANCH   7  11
ENDBRANCH   1   8
BRANCH   1  23
ATOM     23  N   UNL     1       3.472   6.806  19.387  0.00  0.00    +0.000 N 
ATOM     24  H   UNL     1       4.337   7.254  19.090  0.00  0.00    +0.000 HD
BRANCH  23  25
ATOM     25  C   UNL     1       2.377   7.662  19.409  0.00  0.00    +0.000 A 
ATOM     26  C   UNL     1       1.633   7.943  20.557  0.00  0.00    +0.000 A 
ATOM     27  C   UNL     1       0.575   8.844  20.573  0.00  0.00    +0.000 A 
ATOM     28  C   UNL     1       0.240   9.578  19.440  0.00  0.00    +0.000 A 
ATOM     29  C   UNL     1       1.002   9.336  18.282  0.00  0.00    +0.000 A 
ATOM     30  C   UNL     1       2.049   8.397  18.266  0.00  0.00    +0.000 A 
BRANCH  28  31
ATOM     31  C   UNL     1      -0.859  10.563  19.491  0.00  0.00    +0.000 A 
ATOM     32  C   UNL     1      -1.010  11.441  20.589  0.00  0.00    +0.000 A 
ATOM     33  C   UNL     1      -2.060  12.360  20.654  0.00  0.00    +0.000 A 
ATOM     34  C   UNL     1      -2.978  12.431  19.615  0.00  0.00    +0.000 A 
ATOM     35  C   UNL     1      -2.855  11.578  18.519  0.00  0.00    +0.000 A 
ATOM     36  C   UNL     1      -1.813  10.649  18.469  0.00  0.00    +0.000 A 
ENDBRANCH  28  31
ENDBRANCH  23  25
ENDBRANCH   1  23
TORSDOF 9
ENDMDL
MODEL 8
REMARK VINA RESULT:      -9.0      1.367      1.984
REMARK  Name = 
REMARK  10 active torsions:
REMARK  status: ('A' for Active; 'I' for Inactive)
REMARK    1  A    between atoms: C_1  and  O_2
REMARK    2  A    between atoms: O_2  and  C_3
REMARK    3  A    between atoms: C_6  and  N_7
REMARK    4  A    between atoms: N_7  and  C_8
REMARK    5  A    between atoms: C_8  and  C_9
REMARK    6  A    between atoms: C_9  and  N_10
REMARK    7  A    between atoms: C_11  and  C_13
REMARK    8  A    between atoms: C_13  and  N_14
REMARK    9  A    between atoms: N_14  and  C_15
REMARK   10  A    between atoms: C_18  and  C_19
REMARK                            x       y       z     vdW  Elec       q    Type
REMARK                         _______ _______ _______ _____ _____    ______ ____
ROOT
ATOM      1  C   UNL     1       2.926   4.987  19.367  0.00  0.00    +0.000 C 
ATOM      2  C   UNL     1       1.746   4.998  18.355  0.00  0.00    +0.000 C 
ATOM      3  C   UNL     1       1.286   3.608  17.944  0.00  0.00    +0.000 C 
ATOM      4  C   UNL     1       1.023   2.719  19.152  0.00  0.00    +0.000 C 
ATOM      5  C   UNL     1       2.247   2.604  20.053  0.00  0.00    +0.000 C 
ATOM      6  C   UNL     1       2.728   3.971  20.535  0.00  0.00    +0.000 C 
ENDROOT
BRANCH   1   8
ATOM      7  N   UNL     1       5.349   5.388  18.756  0.00  0.00    +0.000 N 
ATOM      8  C   UNL     1       4.270   4.537  18.642  0.00  0.00    +0.000 C 
ATOM      9  O   UNL     1       4.377   3.461  18.045  0.00  0.00    +0.000 OA
ATOM     10  H   UNL     1       5.351   6.087  19.484  0.00  0.00    +0.000 HD
BRANCH   7  11
ATOM     11  C   UNL     1       6.609   5.102  18.094  0.00  0.00    +0.000 C 
BRANCH  11  12
ATOM     12  C   UNL     1       6.833   5.985  16.856  0.00  0.00    +0.000 C 
BRANCH  12  13
ATOM     13  N   UNL     1       7.567   5.239  15.834  0.00  0.00    +0.000 N 
ATOM     14  H   UNL     1       8.443   5.686  15.576  0.00  0.00    +0.000 HD
BRANCH  13  18
ATOM     15  C   UNL     1       5.653   3.666  12.405  0.00  0.00    +0.000 A 
ATOM     16  C   UNL     1       6.946   4.180  12.339  0.00  0.00    +0.000 A 
ATOM     17  C   UNL     1       7.560   4.702  13.483  0.00  0.00    +0.000 A 
ATOM     18  C   UNL     1       6.880   4.774  14.707  0.00  0.00    +0.000 A 
ATOM     19  C   UNL     1       5.584   4.251  14.758  0.00  0.00    +0.000 A 
ATOM     20  C   UNL     1       4.970   3.709  13.619  0.00  0.00    +0.000 A 
BRANCH  15  22
ATOM     21  C   UNL     1       3.731   3.105  11.156  0.00  0.00    +0.000 C 
ATOM     22  O   UNL     1       5.151   3.176  11.232  0.00  0.00    +0.000 OA
ENDBRANCH  15  22
ENDBRANCH  13  18
ENDBRANCH  12  13
ENDBRANCH  11  12
ENDBRANCH   7  11
ENDBRANCH   1   8
BRANCH   1  23
ATOM     23  N   UNL     1       3.120   6.358  19.911  0.00  0.00    +0.000 N 
ATOM     24  H   UNL     1       4.073   6.711  19.847  0.00  0.00    +0.000 HD
BRANCH  23  25
ATOM     25  C   UNL     1       2.153   7.356  19.929  0.00  0.00    +0.000 A 
ATOM     26  C   UNL     1       1.302   7.595  21.010  0.00  0.00    +0.000 A 
ATOM     27  C   UNL     1       0.379   8.632  21.033  0.00  0.00    +0.000 A 
ATOM     28  C   UNL     1       0.299   9.547  19.988  0.00  0.00    +0.000 A 
ATOM     29  C   UNL     1       1.174   9.345  18.905  0.00  0.00    +0.000 A 
ATOM     30  C   UNL     1       2.082   8.271  18.874  0.00  0.00    +0.000 A 
BRANCH  28  31
ATOM     31  C   UNL     1      -0.659  10.669  20.053  0.00  0.00    +0.000 A 
ATOM     32  C   UNL     1      -0.813  11.438  21.229  0.00  0.00    +0.000 A 
ATOM     33  C   UNL     1      -1.733  12.487  21.305  0.00  0.00    +0.000 A 
ATOM     34  C   UNL     1      -2.513  12.798  20.200  0.00  0.00    +0.000 A 
ATOM     35  C   UNL     1      -2.384  12.057  19.026  0.00  0.00    +0.000 A 
ATOM     36  C   UNL     1      -1.475  10.999  18.963  0.00  0.00    +0.000 A 
ENDBRANCH  28  31
ENDBRANCH  23  25
ENDBRANCH   1  23
TORSDOF 9
ENDMDL
MODEL 9
REMARK VINA RESULT:      -8.9      2.472      4.182
REMARK  Name = 
REMARK  10 active torsions:
REMARK  status: ('A' for Active; 'I' for Inactive)
REMARK    1  A    between atoms: C_1  and  O_2
REMARK    2  A    between atoms: O_2  and  C_3
REMARK    3  A    between atoms: C_6  and  N_7
REMARK    4  A    between atoms: N_7  and  C_8
REMARK    5  A    between atoms: C_8  and  C_9
REMARK    6  A    between atoms: C_9  and  N_10
REMARK    7  A    between atoms: C_11  and  C_13
REMARK    8  A    between atoms: C_13  and  N_14
REMARK    9  A    between atoms: N_14  and  C_15
REMARK   10  A    between atoms: C_18  and  C_19
REMARK                            x       y       z     vdW  Elec       q    Type
REMARK                         _______ _______ _______ _____ _____    ______ ____
ROOT
ATOM      1  C   UNL     1       2.671   4.727  19.856  0.00  0.00    +0.000 C 
ATOM      2  C   UNL     1       1.174   4.673  20.273  0.00  0.00    +0.000 C 
ATOM      3  C   UNL     1       0.652   3.259  20.476  0.00  0.00    +0.000 C 
ATOM      4  C   UNL     1       1.554   2.450  21.399  0.00  0.00    +0.000 C 
ATOM      5  C   UNL     1       2.989   2.394  20.888  0.00  0.00    +0.000 C 
ATOM      6  C   UNL     1       3.583   3.789  20.707  0.00  0.00    +0.000 C 
ENDROOT
BRANCH   1   8
ATOM      7  N   UNL     1       4.099   3.792  17.988  0.00  0.00    +0.000 N 
ATOM      8  C   UNL     1       2.844   4.231  18.354  0.00  0.00    +0.000 C 
ATOM      9  O   UNL     1       1.904   4.187  17.554  0.00  0.00    +0.000 OA
ATOM     10  H   UNL     1       4.762   3.541  18.707  0.00  0.00    +0.000 HD
BRANCH   7  11
ATOM     11  C   UNL     1       4.383   3.364  16.631  0.00  0.00    +0.000 C 
BRANCH  11  12
ATOM     12  C   UNL     1       5.801   3.750  16.180  0.00  0.00    +0.000 C 
BRANCH  12  13
ATOM     13  N   UNL     1       6.639   4.032  17.346  0.00  0.00    +0.000 N 
ATOM     14  H   UNL     1       6.259   3.640  18.204  0.00  0.00    +0.000 HD
BRANCH  13  18
ATOM     15  C   UNL     1       7.853   8.037  17.959  0.00  0.00    +0.000 A 
ATOM     16  C   UNL     1       7.099   7.673  16.845  0.00  0.00    +0.000 A 
ATOM     17  C   UNL     1       6.712   6.341  16.657  0.00  0.00    +0.000 A 
ATOM     18  C   UNL     1       7.113   5.333  17.544  0.00  0.00    +0.000 A 
ATOM     19  C   UNL     1       7.867   5.715  18.658  0.00  0.00    +0.000 A 
ATOM     20  C   UNL     1       8.242   7.052  18.863  0.00  0.00    +0.000 A 
BRANCH  15  22
ATOM     21  C   UNL     1       9.107   9.701  19.067  0.00  0.00    +0.000 C 
ATOM     22  O   UNL     1       8.171   9.364  18.048  0.00  0.00    +0.000 OA
ENDBRANCH  15  22
ENDBRANCH  13  18
ENDBRANCH  12  13
ENDBRANCH  11  12
ENDBRANCH   7  11
ENDBRANCH   1   8
BRANCH   1  23
ATOM     23  N   UNL     1       3.155   6.130  19.949  0.00  0.00    +0.000 N 
ATOM     24  H   UNL     1       4.142   6.256  19.731  0.00  0.00    +0.000 HD
BRANCH  23  25
ATOM     25  C   UNL     1       2.382   7.262  19.716  0.00  0.00    +0.000 A 
ATOM     26  C   UNL     1       1.701   7.959  20.717  0.00  0.00    +0.000 A 
ATOM     27  C   UNL     1       0.978   9.119  20.474  0.00  0.00    +0.000 A 
ATOM     28  C   UNL     1       0.951   9.698  19.209  0.00  0.00    +0.000 A 
ATOM     29  C   UNL     1       1.662   9.031  18.195  0.00  0.00    +0.000 A 
ATOM     30  C   UNL     1       2.362   7.837  18.441  0.00  0.00    +0.000 A 
BRANCH  28  31
ATOM     31  C   UNL     1       0.213  10.957  18.984  0.00  0.00    +0.000 A 
ATOM     32  C   UNL     1       0.699  12.193  19.468  0.00  0.00    +0.000 A 
ATOM     33  C   UNL     1      -0.004  13.385  19.277  0.00  0.00    +0.000 A 
ATOM     34  C   UNL     1      -1.208  13.369  18.586  0.00  0.00    +0.000 A 
ATOM     35  C   UNL     1      -1.714  12.164  18.096  0.00  0.00    +0.000 A 
ATOM     36  C   UNL     1      -1.014  10.975  18.307  0.00  0.00    +0.000 A 
ENDBRANCH  28  31
ENDBRANCH  23  25
ENDBRANCH   1  23
TORSDOF 9
ENDMDL
