MODEL 1
REMARK VINA RESULT:      -7.4      0.000      0.000
REMARK  Name = 
REMARK  3 active torsions:
REMARK  status: ('A' for Active; 'I' for Inactive)
REMARK    1  A    between atoms: N_3  and  C_4
REMARK    2  A    between atoms: C_4  and  C_5
REMARK    3  A    between atoms: N_11  and  C_12
REMARK                            x       y       z     vdW  Elec       q    Type
REMARK                         _______ _______ _______ _____ _____    ______ ____
ROOT
ATOM      1  O   UNL     1       1.432   9.020  19.802  0.00  0.00    +0.000 OA
ATOM      2  C   UNL     1       1.443   9.053  18.578  0.00  0.00    +0.000 C 
ATOM      3  N   UNL     1       0.698   9.975  17.873  0.00  0.00    +0.000 N 
ATOM      4  N   UNL     1       2.178   8.243  17.741  0.00  0.00    +0.000 N 
ATOM      5  H   UNL     1       0.405   9.710  16.945  0.00  0.00    +0.000 HD
ATOM      6  H   UNL     1       2.170   8.498  16.763  0.00  0.00    +0.000 HD
ENDROOT
BRANCH   4   7
ATOM      7  C   UNL     1       3.062   7.204  18.120  0.00  0.00    +0.000 A 
ATOM      8  C   UNL     1       2.798   6.324  19.171  0.00  0.00    +0.000 A 
ATOM      9  C   UNL     1       3.722   5.342  19.555  0.00  0.00    +0.000 A 
ATOM     10  C   UNL     1       4.941   5.227  18.866  0.00  0.00    +0.000 A 
ATOM     11  N   UNL     1       5.966   4.328  19.138  0.00  0.00    +0.000 NA
ATOM     12  N   UNL     1       6.982   4.473  18.306  0.00  0.00    +0.000 NA
ATOM     13  S   UNL     1       6.731   5.675  17.174  0.00  0.00    +0.000 S 
ATOM     14  C   UNL     1       5.179   6.092  17.796  0.00  0.00    +0.000 A 
ATOM     15  C   UNL     1       4.259   7.080  17.398  0.00  0.00    +0.000 A 
ENDBRANCH   4   7
BRANCH   3  16
ATOM     16  C   UNL     1      -0.200  10.854  18.597  0.00  0.00    +0.000 C 
BRANCH  16  17
ATOM     17  C   UNL     1      -1.597  10.798  18.056  0.00  0.00    +0.000 A 
ATOM     18  C   UNL     1      -1.937   9.941  17.003  0.00  0.00    +0.000 A 
ATOM     19  C   UNL     1      -3.235   9.942  16.503  0.00  0.00    +0.000 A 
ATOM     20  C   UNL     1      -4.156  10.805  17.072  0.00  0.00    +0.000 A 
ATOM     21  N   UNL     1      -3.865  11.652  18.084  0.00  0.00    +0.000 NA
ATOM     22  C   UNL     1      -2.594  11.634  18.544  0.00  0.00    +0.000 A 
ENDBRANCH  16  17
ENDBRANCH   3  16
TORSDOF 3
ENDMDL
MODEL 2
REMARK VINA RESULT:      -7.3      6.024      8.501
REMARK  Name = 
REMARK  3 active torsions:
REMARK  status: ('A' for Active; 'I' for Inactive)
REMARK    1  A    between atoms: N_3  and  C_4
REMARK    2  A    between atoms: C_4  and  C_5
REMARK    3  A    between atoms: N_11  and  C_12
REMARK                            x       y       z     vdW  Elec       q    Type
REMARK                         _______ _______ _______ _____ _____    ______ ____
ROOT
ATOM      1  O   UNL     1       8.317   7.382  18.762  0.00  0.00    +0.000 OA
ATOM      2  C   UNL     1       7.801   8.132  17.943  0.00  0.00    +0.000 C 
ATOM      3  N   UNL     1       8.246   9.425  17.765  0.00  0.00    +0.000 N 
ATOM      4  N   UNL     1       6.765   7.826  17.088  0.00  0.00    +0.000 N 
ATOM      5  H   UNL     1       7.572  10.097  17.434  0.00  0.00    +0.000 HD
ATOM      6  H   UNL     1       6.554   8.522  16.386  0.00  0.00    +0.000 HD
ENDROOT
BRANCH   4   7
ATOM      7  C   UNL     1       6.080   6.591  16.986  0.00  0.00    +0.000 A 
ATOM      8  C   UNL     1       6.607   5.479  16.326  0.00  0.00    +0.000 A 
ATOM      9  C   UNL     1       5.877   4.290  16.195  0.00  0.00    +0.000 A 
ATOM     10  C   UNL     1       4.587   4.202  16.746  0.00  0.00    +0.000 A 
ATOM     11  N   UNL     1       3.731   3.109  16.682  0.00  0.00    +0.000 NA
ATOM     12  N   UNL     1       2.588   3.341  17.302  0.00  0.00    +0.000 NA
ATOM     13  S   UNL     1       2.515   4.863  17.986  0.00  0.00    +0.000 S 
ATOM     14  C   UNL     1       4.085   5.309  17.432  0.00  0.00    +0.000 A 
ATOM     15  C   UNL     1       4.809   6.508  17.574  0.00  0.00    +0.000 A 
ENDBRANCH   4   7
BRANCH   3  16
ATOM     16  C   UNL     1       9.280   9.939  18.643  0.00  0.00    +0.000 C 
BRANCH  16  17
ATOM     17  C   UNL     1       9.779  11.280  18.195  0.00  0.00    +0.000 A 
ATOM     18  C   UNL     1      11.139  11.512  17.965  0.00  0.00    +0.000 A 
ATOM     19  C   UNL     1      11.570  12.779  17.585  0.00  0.00    +0.000 A 
ATOM     20  C   UNL     1      10.623  13.779  17.450  0.00  0.00    +0.000 A 
ATOM     21  N   UNL     1       9.303  13.597  17.671  0.00  0.00    +0.000 NA
ATOM     22  C   UNL     1       8.915  12.357  18.046  0.00  0.00    +0.000 A 
ENDBRANCH  16  17
ENDBRANCH   3  16
TORSDOF 3
ENDMDL
MODEL 3
REMARK VINA RESULT:      -7.2      1.254      1.723
REMARK  Name = 
REMARK  3 active torsions:
REMARK  status: ('A' for Active; 'I' for Inactive)
REMARK    1  A    between atoms: N_3  and  C_4
REMARK    2  A    between atoms: C_4  and  C_5
REMARK    3  A    between atoms: N_11  and  C_12
REMARK                            x       y       z     vdW  Elec       q    Type
REMARK                         _______ _______ _______ _____ _____    ______ ____
ROOT
ATOM      1  O   UNL     1       1.603   8.988  19.758  0.00  0.00    +0.000 OA
ATOM      2  C   UNL     1       1.532   8.988  18.535  0.00  0.00    +0.000 C 
ATOM      3  N   UNL     1       0.757   9.905  17.856  0.00  0.00    +0.000 N 
ATOM      4  N   UNL     1       2.195   8.142  17.674  0.00  0.00    +0.000 N 
ATOM      5  H   UNL     1       0.398   9.621  16.958  0.00  0.00    +0.000 HD
ATOM      6  H   UNL     1       2.124   8.370  16.692  0.00  0.00    +0.000 HD
ENDROOT
BRANCH   4   7
ATOM      7  C   UNL     1       3.084   7.096  18.022  0.00  0.00    +0.000 A 
ATOM      8  C   UNL     1       4.421   7.067  17.621  0.00  0.00    +0.000 A 
ATOM      9  C   UNL     1       5.257   5.987  17.937  0.00  0.00    +0.000 A 
ATOM     10  C   UNL     1       4.750   4.909  18.682  0.00  0.00    +0.000 A 
ATOM     11  N   UNL     1       5.440   3.761  19.053  0.00  0.00    +0.000 NA
ATOM     12  N   UNL     1       4.681   2.936  19.753  0.00  0.00    +0.000 NA
ATOM     13  S   UNL     1       3.135   3.518  19.994  0.00  0.00    +0.000 S 
ATOM     14  C   UNL     1       3.421   4.966  19.105  0.00  0.00    +0.000 A 
ATOM     15  C   UNL     1       2.571   6.046  18.798  0.00  0.00    +0.000 A 
ENDBRANCH   4   7
BRANCH   3  16
ATOM     16  C   UNL     1      -0.074  10.820  18.614  0.00  0.00    +0.000 C 
BRANCH  16  17
ATOM     17  C   UNL     1      -1.500  10.794  18.155  0.00  0.00    +0.000 A 
ATOM     18  C   UNL     1      -1.914   9.961  17.109  0.00  0.00    +0.000 A 
ATOM     19  C   UNL     1      -3.239   9.989  16.686  0.00  0.00    +0.000 A 
ATOM     20  C   UNL     1      -4.111  10.855  17.322  0.00  0.00    +0.000 A 
ATOM     21  N   UNL     1      -3.750  11.679  18.329  0.00  0.00    +0.000 NA
ATOM     22  C   UNL     1      -2.454  11.635  18.714  0.00  0.00    +0.000 A 
ENDBRANCH  16  17
ENDBRANCH   3  16
TORSDOF 3
ENDMDL
MODEL 4
REMARK VINA RESULT:      -7.1      0.624      1.077
REMARK  Name = 
REMARK  3 active torsions:
REMARK  status: ('A' for Active; 'I' for Inactive)
REMARK    1  A    between atoms: N_3  and  C_4
REMARK    2  A    between atoms: C_4  and  C_5
REMARK    3  A    between atoms: N_11  and  C_12
REMARK                            x       y       z     vdW  Elec       q    Type
REMARK                         _______ _______ _______ _____ _____    ______ ____
ROOT
ATOM      1  O   UNL     1       1.502   8.985  19.798  0.00  0.00    +0.000 OA
ATOM      2  C   UNL     1       1.464   8.995  18.573  0.00  0.00    +0.000 C 
ATOM      3  N   UNL     1       0.702   9.912  17.881  0.00  0.00    +0.000 N 
ATOM      4  N   UNL     1       2.156   8.161  17.723  0.00  0.00    +0.000 N 
ATOM      5  H   UNL     1       0.369   9.634  16.972  0.00  0.00    +0.000 HD
ATOM      6  H   UNL     1       2.111   8.397  16.742  0.00  0.00    +0.000 HD
ENDROOT
BRANCH   4   7
ATOM      7  C   UNL     1       3.042   7.118  18.087  0.00  0.00    +0.000 A 
ATOM      8  C   UNL     1       2.732   6.154  19.047  0.00  0.00    +0.000 A 
ATOM      9  C   UNL     1       3.656   5.169  19.422  0.00  0.00    +0.000 A 
ATOM     10  C   UNL     1       4.924   5.138  18.817  0.00  0.00    +0.000 A 
ATOM     11  N   UNL     1       5.954   4.247  19.094  0.00  0.00    +0.000 NA
ATOM     12  N   UNL     1       7.021   4.480  18.350  0.00  0.00    +0.000 NA
ATOM     13  S   UNL     1       6.813   5.758  17.295  0.00  0.00    +0.000 S 
ATOM     14  C   UNL     1       5.210   6.088  17.834  0.00  0.00    +0.000 A 
ATOM     15  C   UNL     1       4.290   7.080  17.445  0.00  0.00    +0.000 A 
ENDBRANCH   4   7
BRANCH   3  16
ATOM     16  C   UNL     1      -0.156  10.816  18.624  0.00  0.00    +0.000 C 
BRANCH  16  17
ATOM     17  C   UNL     1      -1.553  10.836  18.080  0.00  0.00    +0.000 A 
ATOM     18  C   UNL     1      -2.522  11.706  18.592  0.00  0.00    +0.000 A 
ATOM     19  C   UNL     1      -3.818  11.671  18.086  0.00  0.00    +0.000 A 
ATOM     20  C   UNL     1      -4.105  10.762  17.084  0.00  0.00    +0.000 A 
ATOM     21  N   UNL     1      -3.200   9.901  16.569  0.00  0.00    +0.000 NA
ATOM     22  C   UNL     1      -1.951   9.953  17.085  0.00  0.00    +0.000 A 
ENDBRANCH  16  17
ENDBRANCH   3  16
TORSDOF 3
ENDMDL
MODEL 5
REMARK VINA RESULT:      -7.1      5.948      8.394
REMARK  Name = 
REMARK  3 active torsions:
REMARK  status: ('A' for Active; 'I' for Inactive)
REMARK    1  A    between atoms: N_3  and  C_4
REMARK    2  A    between atoms: C_4  and  C_5
REMARK    3  A    between atoms: N_11  and  C_12
REMARK                            x       y       z     vdW  Elec       q    Type
REMARK                         _______ _______ _______ _____ _____    ______ ____
ROOT
ATOM      1  O   UNL     1       8.121   7.008  18.804  0.00  0.00    +0.000 OA
ATOM      2  C   UNL     1       7.647   7.798  17.997  0.00  0.00    +0.000 C 
ATOM      3  N   UNL     1       8.164   9.066  17.838  0.00  0.00    +0.000 N 
ATOM      4  N   UNL     1       6.597   7.563  17.137  0.00  0.00    +0.000 N 
ATOM      5  H   UNL     1       7.529   9.780  17.518  0.00  0.00    +0.000 HD
ATOM      6  H   UNL     1       6.426   8.280  16.446  0.00  0.00    +0.000 HD
ENDROOT
BRANCH   4   7
ATOM      7  C   UNL     1       5.845   6.369  17.016  0.00  0.00    +0.000 A 
ATOM      8  C   UNL     1       6.297   5.251  16.314  0.00  0.00    +0.000 A 
ATOM      9  C   UNL     1       5.502   4.106  16.166  0.00  0.00    +0.000 A 
ATOM     10  C   UNL     1       4.221   4.071  16.743  0.00  0.00    +0.000 A 
ATOM     11  N   UNL     1       3.306   3.027  16.668  0.00  0.00    +0.000 NA
ATOM     12  N   UNL     1       2.190   3.302  17.319  0.00  0.00    +0.000 NA
ATOM     13  S   UNL     1       2.214   4.806  18.047  0.00  0.00    +0.000 S 
ATOM     14  C   UNL     1       3.793   5.184  17.471  0.00  0.00    +0.000 A 
ATOM     15  C   UNL     1       4.583   6.338  17.629  0.00  0.00    +0.000 A 
ENDBRANCH   4   7
BRANCH   3  16
ATOM     16  C   UNL     1       9.224   9.508  18.725  0.00  0.00    +0.000 C 
BRANCH  16  17
ATOM     17  C   UNL     1       9.576  10.949  18.502  0.00  0.00    +0.000 A 
ATOM     18  C   UNL     1       8.689  11.826  17.868  0.00  0.00    +0.000 A 
ATOM     19  C   UNL     1       9.065  13.147  17.647  0.00  0.00    +0.000 A 
ATOM     20  C   UNL     1      10.321  13.550  18.065  0.00  0.00    +0.000 A 
ATOM     21  N   UNL     1      11.208  12.732  18.673  0.00  0.00    +0.000 NA
ATOM     22  C   UNL     1      10.818  11.452  18.868  0.00  0.00    +0.000 A 
ENDBRANCH  16  17
ENDBRANCH   3  16
TORSDOF 3
ENDMDL
MODEL 6
REMARK VINA RESULT:      -7.1      3.698      8.352
REMARK  Name = 
REMARK  3 active torsions:
REMARK  status: ('A' for Active; 'I' for Inactive)
REMARK    1  A    between atoms: N_3  and  C_4
REMARK    2  A    between atoms: C_4  and  C_5
REMARK    3  A    between atoms: N_11  and  C_12
REMARK                            x       y       z     vdW  Elec       q    Type
REMARK                         _______ _______ _______ _____ _____    ______ ____
ROOT
ATOM      1  O   UNL     1       2.254   6.486  20.087  0.00  0.00    +0.000 OA
ATOM      2  C   UNL     1       2.308   7.336  19.207  0.00  0.00    +0.000 C 
ATOM      3  N   UNL     1       2.909   7.082  17.993  0.00  0.00    +0.000 N 
ATOM      4  N   UNL     1       1.784   8.609  19.262  0.00  0.00    +0.000 N 
ATOM      5  H   UNL     1       3.299   7.873  17.504  0.00  0.00    +0.000 HD
ATOM      6  H   UNL     1       1.802   9.129  18.396  0.00  0.00    +0.000 HD
ENDROOT
BRANCH   4   7
ATOM      7  C   UNL     1       1.087   9.199  20.344  0.00  0.00    +0.000 A 
ATOM      8  C   UNL     1       1.197   8.745  21.659  0.00  0.00    +0.000 A 
ATOM      9  C   UNL     1       0.448   9.318  22.697  0.00  0.00    +0.000 A 
ATOM     10  C   UNL     1      -0.429  10.380  22.418  0.00  0.00    +0.000 A 
ATOM     11  N   UNL     1      -1.253  11.035  23.325  0.00  0.00    +0.000 NA
ATOM     12  N   UNL     1      -1.956  11.993  22.749  0.00  0.00    +0.000 NA
ATOM     13  S   UNL     1      -1.639  12.143  21.116  0.00  0.00    +0.000 S 
ATOM     14  C   UNL     1      -0.505  10.846  21.104  0.00  0.00    +0.000 A 
ATOM     15  C   UNL     1       0.244  10.283  20.053  0.00  0.00    +0.000 A 
ENDBRANCH   4   7
BRANCH   3  16
ATOM     16  C   UNL     1       3.586   5.814  17.796  0.00  0.00    +0.000 C 
BRANCH  16  17
ATOM     17  C   UNL     1       5.042   5.896  18.143  0.00  0.00    +0.000 A 
ATOM     18  C   UNL     1       5.950   6.571  17.320  0.00  0.00    +0.000 A 
ATOM     19  C   UNL     1       7.301   6.595  17.656  0.00  0.00    +0.000 A 
ATOM     20  C   UNL     1       7.701   5.940  18.807  0.00  0.00    +0.000 A 
ATOM     21  N   UNL     1       6.857   5.272  19.623  0.00  0.00    +0.000 NA
ATOM     22  C   UNL     1       5.552   5.259  19.267  0.00  0.00    +0.000 A 
ENDBRANCH  16  17
ENDBRANCH   3  16
TORSDOF 3
ENDMDL
MODEL 7
REMARK VINA RESULT:      -7.1      3.587      8.298
REMARK  Name = 
REMARK  3 active torsions:
REMARK  status: ('A' for Active; 'I' for Inactive)
REMARK    1  A    between atoms: N_3  and  C_4
REMARK    2  A    between atoms: C_4  and  C_5
REMARK    3  A    between atoms: N_11  and  C_12
REMARK                            x       y       z     vdW  Elec       q    Type
REMARK                         _______ _______ _______ _____ _____    ______ ____
ROOT
ATOM      1  O   UNL     1       2.464   5.766  17.893  0.00  0.00    +0.000 OA
ATOM      2  C   UNL     1       3.059   5.800  18.963  0.00  0.00    +0.000 C 
ATOM      3  N   UNL     1       4.033   4.877  19.278  0.00  0.00    +0.000 N 
ATOM      4  N   UNL     1       2.890   6.727  19.967  0.00  0.00    +0.000 N 
ATOM      5  H   UNL     1       4.174   4.679  20.256  0.00  0.00    +0.000 HD
ATOM      6  H   UNL     1       3.559   6.684  20.723  0.00  0.00    +0.000 HD
ENDROOT
BRANCH   4   7
ATOM      7  C   UNL     1       1.991   7.822  19.975  0.00  0.00    +0.000 A 
ATOM      8  C   UNL     1       1.731   8.603  18.848  0.00  0.00    +0.000 A 
ATOM      9  C   UNL     1       0.878   9.714  18.906  0.00  0.00    +0.000 A 
ATOM     10  C   UNL     1       0.258  10.052  20.122  0.00  0.00    +0.000 A 
ATOM     11  N   UNL     1      -0.589  11.129  20.349  0.00  0.00    +0.000 NA
ATOM     12  N   UNL     1      -1.009  11.170  21.601  0.00  0.00    +0.000 NA
ATOM     13  S   UNL     1      -0.413   9.916  22.530  0.00  0.00    +0.000 S 
ATOM     14  C   UNL     1       0.501   9.243  21.234  0.00  0.00    +0.000 A 
ATOM     15  C   UNL     1       1.352   8.122  21.188  0.00  0.00    +0.000 A 
ENDBRANCH   4   7
BRANCH   3  16
ATOM     16  C   UNL     1       4.282   3.779  18.363  0.00  0.00    +0.000 C 
BRANCH  16  17
ATOM     17  C   UNL     1       5.264   4.152  17.294  0.00  0.00    +0.000 A 
ATOM     18  C   UNL     1       4.916   4.111  15.939  0.00  0.00    +0.000 A 
ATOM     19  C   UNL     1       5.865   4.430  14.972  0.00  0.00    +0.000 A 
ATOM     20  C   UNL     1       7.137   4.777  15.392  0.00  0.00    +0.000 A 
ATOM     21  N   UNL     1       7.514   4.820  16.689  0.00  0.00    +0.000 NA
ATOM     22  C   UNL     1       6.573   4.499  17.606  0.00  0.00    +0.000 A 
ENDBRANCH  16  17
ENDBRANCH   3  16
TORSDOF 3
ENDMDL
MODEL 8
REMARK VINA RESULT:      -7.0      5.905      8.357
REMARK  Name = 
REMARK  3 active torsions:
REMARK  status: ('A' for Active; 'I' for Inactive)
REMARK    1  A    between atoms: N_3  and  C_4
REMARK    2  A    between atoms: C_4  and  C_5
REMARK    3  A    between atoms: N_11  and  C_12
REMARK                            x       y       z     vdW  Elec       q    Type
REMARK                         _______ _______ _______ _____ _____    ______ ____
ROOT
ATOM      1  O   UNL     1       8.476   7.288  18.627  0.00  0.00    +0.000 OA
ATOM      2  C   UNL     1       7.827   8.027  17.896  0.00  0.00    +0.000 C 
ATOM      3  N   UNL     1       6.803   7.548  17.108  0.00  0.00    +0.000 N 
ATOM      4  N   UNL     1       7.979   9.390  17.763  0.00  0.00    +0.000 N 
ATOM      5  H   UNL     1       6.605   8.056  16.260  0.00  0.00    +0.000 HD
ATOM      6  H   UNL     1       7.270   9.860  17.218  0.00  0.00    +0.000 HD
ENDROOT
BRANCH   4   7
ATOM      7  C   UNL     1       8.917  10.213  18.432  0.00  0.00    +0.000 A 
ATOM      8  C   UNL     1       9.001  10.299  19.823  0.00  0.00    +0.000 A 
ATOM      9  C   UNL     1       9.904  11.167  20.451  0.00  0.00    +0.000 A 
ATOM     10  C   UNL     1      10.757  11.967  19.671  0.00  0.00    +0.000 A 
ATOM     11  N   UNL     1      11.685  12.890  20.138  0.00  0.00    +0.000 NA
ATOM     12  N   UNL     1      12.333  13.480  19.150  0.00  0.00    +0.000 NA
ATOM     13  S   UNL     1      11.859  12.936  17.643  0.00  0.00    +0.000 S 
ATOM     14  C   UNL     1      10.686  11.848  18.281  0.00  0.00    +0.000 A 
ATOM     15  C   UNL     1       9.786  10.977  17.638  0.00  0.00    +0.000 A 
ENDBRANCH   4   7
BRANCH   3  16
ATOM     16  C   UNL     1       6.561   6.118  17.064  0.00  0.00    +0.000 C 
BRANCH  16  17
ATOM     17  C   UNL     1       5.304   5.741  17.790  0.00  0.00    +0.000 A 
ATOM     18  C   UNL     1       4.046   6.133  17.320  0.00  0.00    +0.000 A 
ATOM     19  C   UNL     1       2.904   5.795  18.040  0.00  0.00    +0.000 A 
ATOM     20  C   UNL     1       3.057   5.075  19.212  0.00  0.00    +0.000 A 
ATOM     21  N   UNL     1       4.254   4.685  19.702  0.00  0.00    +0.000 NA
ATOM     22  C   UNL     1       5.346   5.034  18.986  0.00  0.00    +0.000 A 
ENDBRANCH  16  17
ENDBRANCH   3  16
TORSDOF 3
ENDMDL
MODEL 9
REMARK VINA RESULT:      -7.0      1.959      2.253
REMARK  Name = 
REMARK  3 active torsions:
REMARK  status: ('A' for Active; 'I' for Inactive)
REMARK    1  A    between atoms: N_3  and  C_4
REMARK    2  A    between atoms: C_4  and  C_5
REMARK    3  A    between atoms: N_11  and  C_12
REMARK                            x       y       z     vdW  Elec       q    Type
REMARK                         _______ _______ _______ _____ _____    ______ ____
ROOT
ATOM      1  O   UNL     1       1.590   8.533  19.792  0.00  0.00    +0.000 OA
ATOM      2  C   UNL     1       1.749   8.680  18.586  0.00  0.00    +0.000 C 
ATOM      3  N   UNL     1       1.360   9.835  17.942  0.00  0.00    +0.000 N 
ATOM      4  N   UNL     1       2.334   7.784  17.719  0.00  0.00    +0.000 N 
ATOM      5  H   UNL     1       1.115   9.753  16.967  0.00  0.00    +0.000 HD
ATOM      6  H   UNL     1       2.505   8.125  16.783  0.00  0.00    +0.000 HD
ENDROOT
BRANCH   4   7
ATOM      7  C   UNL     1       2.863   6.510  18.038  0.00  0.00    +0.000 A 
ATOM      8  C   UNL     1       4.222   6.281  18.259  0.00  0.00    +0.000 A 
ATOM      9  C   UNL     1       4.717   4.996  18.517  0.00  0.00    +0.000 A 
ATOM     10  C   UNL     1       3.831   3.906  18.567  0.00  0.00    +0.000 A 
ATOM     11  N   UNL     1       4.164   2.575  18.786  0.00  0.00    +0.000 NA
ATOM     12  N   UNL     1       3.100   1.792  18.776  0.00  0.00    +0.000 NA
ATOM     13  S   UNL     1       1.678   2.629  18.518  0.00  0.00    +0.000 S 
ATOM     14  C   UNL     1       2.469   4.153  18.377  0.00  0.00    +0.000 A 
ATOM     15  C   UNL     1       1.959   5.439  18.120  0.00  0.00    +0.000 A 
ENDBRANCH   4   7
BRANCH   3  16
ATOM     16  C   UNL     1       0.649  10.853  18.693  0.00  0.00    +0.000 C 
BRANCH  16  17
ATOM     17  C   UNL     1      -0.823  10.832  18.411  0.00  0.00    +0.000 A 
ATOM     18  C   UNL     1      -1.375   9.943  17.483  0.00  0.00    +0.000 A 
ATOM     19  C   UNL     1      -2.741   9.977  17.221  0.00  0.00    +0.000 A 
ATOM     20  C   UNL     1      -3.514  10.905  17.896  0.00  0.00    +0.000 A 
ATOM     21  N   UNL     1      -3.018  11.785  18.793  0.00  0.00    +0.000 NA
ATOM     22  C   UNL     1      -1.687  11.734  19.021  0.00  0.00    +0.000 A 
ENDBRANCH  16  17
ENDBRANCH   3  16
TORSDOF 3
ENDMDL
