MODEL 1
REMARK VINA RESULT:      -8.0      0.000      0.000
REMARK  Name = 
REMARK  11 active torsions:
REMARK  status: ('A' for Active; 'I' for Inactive)
REMARK    1  A    between atoms: C_1  and  C_2
REMARK    2  A    between atoms: C_5  and  S_6
REMARK    3  A    between atoms: S_6  and  N_9
REMARK    4  A    between atoms: N_12  and  C_13
REMARK    5  A    between atoms: C_13  and  C_14
REMARK    6  A    between atoms: N_16  and  N_17
REMARK    7  A    between atoms: C_18  and  C_19
REMARK    8  A    between atoms: C_24  and  O_25
REMARK    9  A    between atoms: O_25  and  C_26
REMARK   10  A    between atoms: C_26  and  C_27
REMARK   11  A    between atoms: C_27  and  O_29
REMARK                            x       y       z     vdW  Elec       q    Type
REMARK                         _______ _______ _______ _____ _____    ______ ____
ROOT
ATOM      1  C   UNL     1       1.831   9.079  18.247  0.00  0.00    +0.000 C 
ATOM      2  O   UNL     1       1.695   8.744  17.066  0.00  0.00    +0.000 OA
ATOM      3  N   UNL     1       2.039   8.192  19.293  0.00  0.00    +0.000 N 
ATOM      4  H   UNL     1       1.983   8.480  20.265  0.00  0.00    +0.000 HD
ENDROOT
BRANCH   3   5
ATOM      5  N   UNL     1       2.084   6.892  18.939  0.00  0.00    +0.000 NA
ATOM      6  C   UNL     1       3.183   6.263  18.698  0.00  0.00    +0.000 C 
BRANCH   6   7
ATOM      7  C   UNL     1       3.047   4.813  18.387  0.00  0.00    +0.000 A 
ATOM      8  C   UNL     1       1.782   4.267  18.700  0.00  0.00    +0.000 A 
ATOM      9  C   UNL     1       1.485   2.927  18.475  0.00  0.00    +0.000 A 
ATOM     10  C   UNL     1       2.454   2.105  17.924  0.00  0.00    +0.000 A 
ATOM     11  C   UNL     1       3.716   2.625  17.619  0.00  0.00    +0.000 A 
ATOM     12  C   UNL     1       4.029   3.977  17.844  0.00  0.00    +0.000 A 
BRANCH  12  13
ATOM     13  O   UNL     1       5.335   4.279  17.578  0.00  0.00    +0.000 OA
BRANCH  13  14
ATOM     14  C   UNL     1       5.656   4.657  16.238  0.00  0.00    +0.000 C 
BRANCH  14  15
ATOM     15  C   UNL     1       7.166   4.784  16.158  0.00  0.00    +0.000 C 
ATOM     16  O   UNL     1       7.938   4.386  17.018  0.00  0.00    +0.000 OA
BRANCH  15  17
ATOM     17  O   UNL     1       7.588   5.396  15.023  0.00  0.00    +0.000 OA
ATOM     18  H   UNL     1       6.818   5.681  14.482  0.00  0.00    +0.000 HD
ENDBRANCH  15  17
ENDBRANCH  14  15
ENDBRANCH  13  14
ENDBRANCH  12  13
ENDBRANCH   6   7
ENDBRANCH   3   5
BRANCH   1  19
ATOM     19  C   UNL     1       1.813  10.553  18.607  0.00  0.00    +0.000 C 
BRANCH  19  23
ATOM     20  N   UNL     1      -0.582  11.779  21.165  0.00  0.00    +0.000 NA
ATOM     21  C   UNL     1      -0.424  10.381  20.712  0.00  0.00    +0.000 C 
ATOM     22  C   UNL     1      -0.524  10.350  19.167  0.00  0.00    +0.000 C 
ATOM     23  N   UNL     1       0.486  11.187  18.462  0.00  0.00    +0.000 NA
ATOM     24  C   UNL     1       0.412  12.564  19.026  0.00  0.00    +0.000 C 
ATOM     25  C   UNL     1       0.439  12.685  20.571  0.00  0.00    +0.000 C 
BRANCH  20  26
ATOM     26  S   UNL     1      -1.063  12.039  22.755  0.00  0.00    +0.000 S 
ATOM     27  O   UNL     1      -0.406  13.238  23.244  0.00  0.00    +0.000 OA
ATOM     28  O   UNL     1      -0.932  10.786  23.471  0.00  0.00    +0.000 OA
BRANCH  26  33
ATOM     29  C   UNL     1      -6.934  13.570  22.421  0.00  0.00    +0.000 C 
ATOM     30  C   UNL     1      -5.497  13.143  22.496  0.00  0.00    +0.000 A 
ATOM     31  C   UNL     1      -4.910  12.837  23.729  0.00  0.00    +0.000 A 
ATOM     32  C   UNL     1      -3.566  12.473  23.801  0.00  0.00    +0.000 A 
ATOM     33  C   UNL     1      -2.803  12.399  22.632  0.00  0.00    +0.000 A 
ATOM     34  C   UNL     1      -3.373  12.710  21.393  0.00  0.00    +0.000 A 
ATOM     35  C   UNL     1      -4.720  13.072  21.329  0.00  0.00    +0.000 A 
ENDBRANCH  26  33
ENDBRANCH  20  26
ENDBRANCH  19  23
ENDBRANCH   1  19
TORSDOF 10
ENDMDL
MODEL 2
REMARK VINA RESULT:      -7.7      2.126      3.134
REMARK  Name = 
REMARK  11 active torsions:
REMARK  status: ('A' for Active; 'I' for Inactive)
REMARK    1  A    between atoms: C_1  and  C_2
REMARK    2  A    between atoms: C_5  and  S_6
REMARK    3  A    between atoms: S_6  and  N_9
REMARK    4  A    between atoms: N_12  and  C_13
REMARK    5  A    between atoms: C_13  and  C_14
REMARK    6  A    between atoms: N_16  and  N_17
REMARK    7  A    between atoms: C_18  and  C_19
REMARK    8  A    between atoms: C_24  and  O_25
REMARK    9  A    between atoms: O_25  and  C_26
REMARK   10  A    between atoms: C_26  and  C_27
REMARK   11  A    between atoms: C_27  and  O_29
REMARK                            x       y       z     vdW  Elec       q    Type
REMARK                         _______ _______ _______ _____ _____    ______ ____
ROOT
ATOM      1  C   UNL     1       1.989   7.534  20.240  0.00  0.00    +0.000 C 
ATOM      2  O   UNL     1       2.076   6.370  20.646  0.00  0.00    +0.000 OA
ATOM      3  N   UNL     1       2.409   7.959  18.988  0.00  0.00    +0.000 N 
ATOM      4  H   UNL     1       2.476   8.943  18.745  0.00  0.00    +0.000 HD
ENDROOT
BRANCH   3   5
ATOM      5  N   UNL     1       2.941   6.997  18.207  0.00  0.00    +0.000 NA
ATOM      6  C   UNL     1       4.086   7.112  17.626  0.00  0.00    +0.000 C 
BRANCH   6   7
ATOM      7  C   UNL     1       4.547   5.923  16.858  0.00  0.00    +0.000 A 
ATOM      8  C   UNL     1       5.371   6.229  15.751  0.00  0.00    +0.000 A 
ATOM      9  C   UNL     1       5.887   5.237  14.925  0.00  0.00    +0.000 A 
ATOM     10  C   UNL     1       5.591   3.910  15.196  0.00  0.00    +0.000 A 
ATOM     11  C   UNL     1       4.767   3.590  16.279  0.00  0.00    +0.000 A 
ATOM     12  C   UNL     1       4.237   4.584  17.121  0.00  0.00    +0.000 A 
BRANCH  12  13
ATOM     13  O   UNL     1       3.379   4.090  18.062  0.00  0.00    +0.000 OA
BRANCH  13  14
ATOM     14  C   UNL     1       3.465   2.694  18.354  0.00  0.00    +0.000 C 
BRANCH  14  15
ATOM     15  C   UNL     1       3.904   2.565  19.802  0.00  0.00    +0.000 C 
ATOM     16  O   UNL     1       3.198   2.836  20.762  0.00  0.00    +0.000 OA
BRANCH  15  17
ATOM     17  O   UNL     1       5.178   2.116  19.933  0.00  0.00    +0.000 OA
ATOM     18  H   UNL     1       5.810   2.776  19.572  0.00  0.00    +0.000 HD
ENDBRANCH  15  17
ENDBRANCH  14  15
ENDBRANCH  13  14
ENDBRANCH  12  13
ENDBRANCH   6   7
ENDBRANCH   3   5
BRANCH   1  19
ATOM     19  C   UNL     1       1.352   8.584  21.130  0.00  0.00    +0.000 C 
BRANCH  19  23
ATOM     20  N   UNL     1      -1.009  11.370  21.799  0.00  0.00    +0.000 NA
ATOM     21  C   UNL     1      -0.427  10.455  22.803  0.00  0.00    +0.000 C 
ATOM     22  C   UNL     1      -0.686   8.998  22.350  0.00  0.00    +0.000 C 
ATOM     23  N   UNL     1      -0.120   8.651  21.018  0.00  0.00    +0.000 NA
ATOM     24  C   UNL     1      -0.604   9.663  20.038  0.00  0.00    +0.000 C 
ATOM     25  C   UNL     1      -0.443  11.152  20.439  0.00  0.00    +0.000 C 
BRANCH  20  26
ATOM     26  S   UNL     1      -1.365  12.941  22.281  0.00  0.00    +0.000 S 
ATOM     27  O   UNL     1      -1.271  13.811  21.121  0.00  0.00    +0.000 OA
ATOM     28  O   UNL     1      -0.595  13.226  23.476  0.00  0.00    +0.000 OA
BRANCH  26  33
ATOM     29  C   UNL     1      -7.174  12.997  24.060  0.00  0.00    +0.000 C 
ATOM     30  C   UNL     1      -5.746  12.936  23.603  0.00  0.00    +0.000 A 
ATOM     31  C   UNL     1      -4.738  12.513  24.477  0.00  0.00    +0.000 A 
ATOM     32  C   UNL     1      -3.407  12.488  24.061  0.00  0.00    +0.000 A 
ATOM     33  C   UNL     1      -3.079  12.875  22.759  0.00  0.00    +0.000 A 
ATOM     34  C   UNL     1      -4.074  13.309  21.877  0.00  0.00    +0.000 A 
ATOM     35  C   UNL     1      -5.405  13.328  22.299  0.00  0.00    +0.000 A 
ENDBRANCH  26  33
ENDBRANCH  20  26
ENDBRANCH  19  23
ENDBRANCH   1  19
TORSDOF 10
ENDMDL
MODEL 3
REMARK VINA RESULT:      -7.6      1.881      2.785
REMARK  Name = 
REMARK  11 active torsions:
REMARK  status: ('A' for Active; 'I' for Inactive)
REMARK    1  A    between atoms: C_1  and  C_2
REMARK    2  A    between atoms: C_5  and  S_6
REMARK    3  A    between atoms: S_6  and  N_9
REMARK    4  A    between atoms: N_12  and  C_13
REMARK    5  A    between atoms: C_13  and  C_14
REMARK    6  A    between atoms: N_16  and  N_17
REMARK    7  A    between atoms: C_18  and  C_19
REMARK    8  A    between atoms: C_24  and  O_25
REMARK    9  A    between atoms: O_25  and  C_26
REMARK   10  A    between atoms: C_26  and  C_27
REMARK   11  A    between atoms: C_27  and  O_29
REMARK                            x       y       z     vdW  Elec       q    Type
REMARK                         _______ _______ _______ _____ _____    ______ ____
ROOT
ATOM      1  C   UNL     1       1.354   9.177  18.977  0.00  0.00    +0.000 C 
ATOM      2  O   UNL     1       1.602   9.529  17.818  0.00  0.00    +0.000 OA
ATOM      3  N   UNL     1       1.907   8.064  19.591  0.00  0.00    +0.000 N 
ATOM      4  H   UNL     1       1.564   7.709  20.478  0.00  0.00    +0.000 HD
ENDROOT
BRANCH   3   5
ATOM      5  N   UNL     1       2.762   7.355  18.826  0.00  0.00    +0.000 NA
ATOM      6  C   UNL     1       2.518   6.157  18.418  0.00  0.00    +0.000 C 
BRANCH   6   7
ATOM      7  C   UNL     1       3.544   5.553  17.524  0.00  0.00    +0.000 A 
ATOM      8  C   UNL     1       4.417   6.489  16.925  0.00  0.00    +0.000 A 
ATOM      9  C   UNL     1       5.433   6.095  16.060  0.00  0.00    +0.000 A 
ATOM     10  C   UNL     1       5.599   4.748  15.783  0.00  0.00    +0.000 A 
ATOM     11  C   UNL     1       4.737   3.808  16.358  0.00  0.00    +0.000 A 
ATOM     12  C   UNL     1       3.705   4.194  17.232  0.00  0.00    +0.000 A 
BRANCH  12  13
ATOM     13  O   UNL     1       2.908   3.153  17.615  0.00  0.00    +0.000 OA
BRANCH  13  14
ATOM     14  C   UNL     1       3.549   2.033  18.229  0.00  0.00    +0.000 C 
BRANCH  14  15
ATOM     15  C   UNL     1       3.841   2.417  19.668  0.00  0.00    +0.000 C 
ATOM     16  O   UNL     1       3.075   3.047  20.382  0.00  0.00    +0.000 OA
BRANCH  15  17
ATOM     17  O   UNL     1       5.056   1.989  20.096  0.00  0.00    +0.000 OA
ATOM     18  H   UNL     1       5.575   1.629  19.342  0.00  0.00    +0.000 HD
ENDBRANCH  15  17
ENDBRANCH  14  15
ENDBRANCH  13  14
ENDBRANCH  12  13
ENDBRANCH   6   7
ENDBRANCH   3   5
BRANCH   1  19
ATOM     19  C   UNL     1       0.416  10.018  19.823  0.00  0.00    +0.000 C 
BRANCH  19  23
ATOM     20  N   UNL     1      -0.941  13.172  21.234  0.00  0.00    +0.000 NA
ATOM     21  C   UNL     1      -1.697  11.926  20.989  0.00  0.00    +0.000 C 
ATOM     22  C   UNL     1      -1.469  11.492  19.521  0.00  0.00    +0.000 C 
ATOM     23  N   UNL     1      -0.044  11.254  19.157  0.00  0.00    +0.000 NA
ATOM     24  C   UNL     1       0.733  12.467  19.537  0.00  0.00    +0.000 C 
ATOM     25  C   UNL     1       0.516  13.011  20.972  0.00  0.00    +0.000 C 
BRANCH  20  26
ATOM     26  S   UNL     1      -1.427  14.145  22.516  0.00  0.00    +0.000 S 
ATOM     27  O   UNL     1      -1.481  15.521  22.055  0.00  0.00    +0.000 OA
ATOM     28  O   UNL     1      -0.629  13.790  23.673  0.00  0.00    +0.000 OA
BRANCH  26  33
ATOM     29  C   UNL     1      -7.150  12.618  23.870  0.00  0.00    +0.000 C 
ATOM     30  C   UNL     1      -5.733  12.953  23.506  0.00  0.00    +0.000 A 
ATOM     31  C   UNL     1      -4.670  12.504  24.298  0.00  0.00    +0.000 A 
ATOM     32  C   UNL     1      -3.356  12.845  23.976  0.00  0.00    +0.000 A 
ATOM     33  C   UNL     1      -3.098  13.629  22.849  0.00  0.00    +0.000 A 
ATOM     34  C   UNL     1      -4.151  14.093  22.053  0.00  0.00    +0.000 A 
ATOM     35  C   UNL     1      -5.463  13.746  22.379  0.00  0.00    +0.000 A 
ENDBRANCH  26  33
ENDBRANCH  20  26
ENDBRANCH  19  23
ENDBRANCH   1  19
TORSDOF 10
ENDMDL
MODEL 4
REMARK VINA RESULT:      -7.6      2.675      4.158
REMARK  Name = 
REMARK  11 active torsions:
REMARK  status: ('A' for Active; 'I' for Inactive)
REMARK    1  A    between atoms: C_1  and  C_2
REMARK    2  A    between atoms: C_5  and  S_6
REMARK    3  A    between atoms: S_6  and  N_9
REMARK    4  A    between atoms: N_12  and  C_13
REMARK    5  A    between atoms: C_13  and  C_14
REMARK    6  A    between atoms: N_16  and  N_17
REMARK    7  A    between atoms: C_18  and  C_19
REMARK    8  A    between atoms: C_24  and  O_25
REMARK    9  A    between atoms: O_25  and  C_26
REMARK   10  A    between atoms: C_26  and  C_27
REMARK   11  A    between atoms: C_27  and  O_29
REMARK                            x       y       z     vdW  Elec       q    Type
REMARK                         _______ _______ _______ _____ _____    ______ ____
ROOT
ATOM      1  C   UNL     1       1.148   8.289  20.959  0.00  0.00    +0.000 C 
ATOM      2  O   UNL     1       0.365   7.417  21.353  0.00  0.00    +0.000 OA
ATOM      3  N   UNL     1       2.210   8.057  20.098  0.00  0.00    +0.000 N 
ATOM      4  H   UNL     1       2.928   8.753  19.924  0.00  0.00    +0.000 HD
ENDROOT
BRANCH   3   5
ATOM      5  N   UNL     1       2.352   6.776  19.700  0.00  0.00    +0.000 NA
ATOM      6  C   UNL     1       2.419   6.425  18.462  0.00  0.00    +0.000 C 
BRANCH   6   7
ATOM      7  C   UNL     1       2.645   4.975  18.209  0.00  0.00    +0.000 A 
ATOM      8  C   UNL     1       1.622   4.133  18.700  0.00  0.00    +0.000 A 
ATOM      9  C   UNL     1       1.675   2.751  18.551  0.00  0.00    +0.000 A 
ATOM     10  C   UNL     1       2.758   2.184  17.897  0.00  0.00    +0.000 A 
ATOM     11  C   UNL     1       3.785   3.001  17.415  0.00  0.00    +0.000 A 
ATOM     12  C   UNL     1       3.744   4.399  17.562  0.00  0.00    +0.000 A 
BRANCH  12  13
ATOM     13  O   UNL     1       4.877   5.019  17.117  0.00  0.00    +0.000 OA
BRANCH  13  14
ATOM     14  C   UNL     1       5.962   5.134  18.040  0.00  0.00    +0.000 C 
BRANCH  14  15
ATOM     15  C   UNL     1       7.244   5.119  17.228  0.00  0.00    +0.000 C 
ATOM     16  O   UNL     1       7.512   5.922  16.347  0.00  0.00    +0.000 OA
BRANCH  15  17
ATOM     17  O   UNL     1       8.081   4.109  17.577  0.00  0.00    +0.000 OA
ATOM     18  H   UNL     1       7.692   3.581  18.310  0.00  0.00    +0.000 HD
ENDBRANCH  15  17
ENDBRANCH  14  15
ENDBRANCH  13  14
ENDBRANCH  12  13
ENDBRANCH   6   7
ENDBRANCH   3   5
BRANCH   1  19
ATOM     19  C   UNL     1       0.937   9.727  21.397  0.00  0.00    +0.000 C 
BRANCH  19  23
ATOM     20  N   UNL     1       0.470  13.400  21.128  0.00  0.00    +0.000 NA
ATOM     21  C   UNL     1      -0.252  12.490  22.042  0.00  0.00    +0.000 C 
ATOM     22  C   UNL     1      -0.853  11.331  21.210  0.00  0.00    +0.000 C 
ATOM     23  N   UNL     1       0.144  10.532  20.445  0.00  0.00    +0.000 NA
ATOM     24  C   UNL     1       0.959  11.477  19.631  0.00  0.00    +0.000 C 
ATOM     25  C   UNL     1       1.547  12.705  20.372  0.00  0.00    +0.000 C 
BRANCH  20  26
ATOM     26  S   UNL     1       0.735  14.979  21.641  0.00  0.00    +0.000 S 
ATOM     27  O   UNL     1       2.078  15.066  22.187  0.00  0.00    +0.000 OA
ATOM     28  O   UNL     1      -0.408  15.388  22.434  0.00  0.00    +0.000 OA
BRANCH  26  33
ATOM     29  C   UNL     1       0.495  18.483  16.683  0.00  0.00    +0.000 C 
ATOM     30  C   UNL     1       0.572  17.579  17.879  0.00  0.00    +0.000 A 
ATOM     31  C   UNL     1      -0.538  16.821  18.269  0.00  0.00    +0.000 A 
ATOM     32  C   UNL     1      -0.475  16.007  19.400  0.00  0.00    +0.000 A 
ATOM     33  C   UNL     1       0.708  15.937  20.140  0.00  0.00    +0.000 A 
ATOM     34  C   UNL     1       1.823  16.696  19.768  0.00  0.00    +0.000 A 
ATOM     35  C   UNL     1       1.753  17.506  18.633  0.00  0.00    +0.000 A 
ENDBRANCH  26  33
ENDBRANCH  20  26
ENDBRANCH  19  23
ENDBRANCH   1  19
TORSDOF 10
ENDMDL
MODEL 5
REMARK VINA RESULT:      -7.5      1.140      1.353
REMARK  Name = 
REMARK  11 active torsions:
REMARK  status: ('A' for Active; 'I' for Inactive)
REMARK    1  A    between atoms: C_1  and  C_2
REMARK    2  A    between atoms: C_5  and  S_6
REMARK    3  A    between atoms: S_6  and  N_9
REMARK    4  A    between atoms: N_12  and  C_13
REMARK    5  A    between atoms: C_13  and  C_14
REMARK    6  A    between atoms: N_16  and  N_17
REMARK    7  A    between atoms: C_18  and  C_19
REMARK    8  A    between atoms: C_24  and  O_25
REMARK    9  A    between atoms: O_25  and  C_26
REMARK   10  A    between atoms: C_26  and  C_27
REMARK   11  A    between atoms: C_27  and  O_29
REMARK                            x       y       z     vdW  Elec       q    Type
REMARK                         _______ _______ _______ _____ _____    ______ ____
ROOT
ATOM      1  C   UNL     1       1.299   9.393  18.505  0.00  0.00    +0.000 C 
ATOM      2  O   UNL     1       0.798   8.941  17.470  0.00  0.00    +0.000 OA
ATOM      3  N   UNL     1       2.045   8.646  19.404  0.00  0.00    +0.000 N 
ATOM      4  H   UNL     1       2.303   9.002  20.320  0.00  0.00    +0.000 HD
ENDROOT
BRANCH   3   5
ATOM      5  N   UNL     1       2.199   7.347  19.078  0.00  0.00    +0.000 NA
ATOM      6  C   UNL     1       3.195   6.905  18.389  0.00  0.00    +0.000 C 
BRANCH   6   7
ATOM      7  C   UNL     1       3.239   5.431  18.181  0.00  0.00    +0.000 A 
ATOM      8  C   UNL     1       1.982   4.845  17.913  0.00  0.00    +0.000 A 
ATOM      9  C   UNL     1       1.841   3.478  17.696  0.00  0.00    +0.000 A 
ATOM     10  C   UNL     1       2.966   2.669  17.738  0.00  0.00    +0.000 A 
ATOM     11  C   UNL     1       4.216   3.231  18.013  0.00  0.00    +0.000 A 
ATOM     12  C   UNL     1       4.371   4.610  18.237  0.00  0.00    +0.000 A 
BRANCH  12  13
ATOM     13  O   UNL     1       5.645   4.959  18.586  0.00  0.00    +0.000 OA
BRANCH  13  14
ATOM     14  C   UNL     1       6.396   5.717  17.637  0.00  0.00    +0.000 C 
BRANCH  14  15
ATOM     15  C   UNL     1       7.329   4.751  16.930  0.00  0.00    +0.000 C 
ATOM     16  O   UNL     1       7.329   4.550  15.725  0.00  0.00    +0.000 OA
BRANCH  15  17
ATOM     17  O   UNL     1       8.179   4.116  17.778  0.00  0.00    +0.000 OA
ATOM     18  H   UNL     1       7.866   3.200  17.951  0.00  0.00    +0.000 HD
ENDBRANCH  15  17
ENDBRANCH  14  15
ENDBRANCH  13  14
ENDBRANCH  12  13
ENDBRANCH   6   7
ENDBRANCH   3   5
BRANCH   1  19
ATOM     19  C   UNL     1       1.138  10.868  18.824  0.00  0.00    +0.000 C 
BRANCH  19  23
ATOM     20  N   UNL     1      -0.964  12.991  21.029  0.00  0.00    +0.000 NA
ATOM     21  C   UNL     1      -0.763  11.531  21.150  0.00  0.00    +0.000 C 
ATOM     22  C   UNL     1      -1.075  10.875  19.783  0.00  0.00    +0.000 C 
ATOM     23  N   UNL     1      -0.242  11.370  18.652  0.00  0.00    +0.000 NA
ATOM     24  C   UNL     1      -0.342  12.856  18.626  0.00  0.00    +0.000 C 
ATOM     25  C   UNL     1      -0.109  13.593  19.969  0.00  0.00    +0.000 C 
BRANCH  20  26
ATOM     26  S   UNL     1      -1.237  13.865  22.438  0.00  0.00    +0.000 S 
ATOM     27  O   UNL     1      -1.144  15.281  22.126  0.00  0.00    +0.000 OA
ATOM     28  O   UNL     1      -0.418  13.289  23.486  0.00  0.00    +0.000 OA
BRANCH  26  33
ATOM     29  C   UNL     1      -7.011  12.903  24.066  0.00  0.00    +0.000 C 
ATOM     30  C   UNL     1      -5.589  13.102  23.630  0.00  0.00    +0.000 A 
ATOM     31  C   UNL     1      -4.543  12.466  24.308  0.00  0.00    +0.000 A 
ATOM     32  C   UNL     1      -3.219  12.678  23.923  0.00  0.00    +0.000 A 
ATOM     33  C   UNL     1      -2.936  13.521  22.845  0.00  0.00    +0.000 A 
ATOM     34  C   UNL     1      -3.970  14.171  22.164  0.00  0.00    +0.000 A 
ATOM     35  C   UNL     1      -5.293  13.951  22.553  0.00  0.00    +0.000 A 
ENDBRANCH  26  33
ENDBRANCH  20  26
ENDBRANCH  19  23
ENDBRANCH   1  19
TORSDOF 10
ENDMDL
MODEL 6
REMARK VINA RESULT:      -7.5      1.017      1.437
REMARK  Name = 
REMARK  11 active torsions:
REMARK  status: ('A' for Active; 'I' for Inactive)
REMARK    1  A    between atoms: C_1  and  C_2
REMARK    2  A    between atoms: C_5  and  S_6
REMARK    3  A    between atoms: S_6  and  N_9
REMARK    4  A    between atoms: N_12  and  C_13
REMARK    5  A    between atoms: C_13  and  C_14
REMARK    6  A    between atoms: N_16  and  N_17
REMARK    7  A    between atoms: C_18  and  C_19
REMARK    8  A    between atoms: C_24  and  O_25
REMARK    9  A    between atoms: O_25  and  C_26
REMARK   10  A    between atoms: C_26  and  C_27
REMARK   11  A    between atoms: C_27  and  O_29
REMARK                            x       y       z     vdW  Elec       q    Type
REMARK                         _______ _______ _______ _____ _____    ______ ____
ROOT
ATOM      1  C   UNL     1       1.768   9.106  18.442  0.00  0.00    +0.000 C 
ATOM      2  O   UNL     1       1.832   8.837  17.238  0.00  0.00    +0.000 OA
ATOM      3  N   UNL     1       1.905   8.175  19.461  0.00  0.00    +0.000 N 
ATOM      4  H   UNL     1       1.686   8.395  20.427  0.00  0.00    +0.000 HD
ENDROOT
BRANCH   3   5
ATOM      5  N   UNL     1       2.117   6.908  19.051  0.00  0.00    +0.000 NA
ATOM      6  C   UNL     1       3.251   6.307  19.174  0.00  0.00    +0.000 C 
BRANCH   6   7
ATOM      7  C   UNL     1       3.284   4.886  18.729  0.00  0.00    +0.000 A 
ATOM      8  C   UNL     1       2.036   4.382  18.301  0.00  0.00    +0.000 A 
ATOM      9  C   UNL     1       1.888   3.073  17.855  0.00  0.00    +0.000 A 
ATOM     10  C   UNL     1       2.996   2.241  17.824  0.00  0.00    +0.000 A 
ATOM     11  C   UNL     1       4.237   2.720  18.255  0.00  0.00    +0.000 A 
ATOM     12  C   UNL     1       4.399   4.041  18.710  0.00  0.00    +0.000 A 
BRANCH  12  13
ATOM     13  O   UNL     1       5.656   4.297  19.181  0.00  0.00    +0.000 OA
BRANCH  13  14
ATOM     14  C   UNL     1       6.269   5.520  18.768  0.00  0.00    +0.000 C 
BRANCH  14  15
ATOM     15  C   UNL     1       7.269   5.175  17.680  0.00  0.00    +0.000 C 
ATOM     16  O   UNL     1       7.472   5.860  16.689  0.00  0.00    +0.000 OA
BRANCH  15  17
ATOM     17  O   UNL     1       7.928   4.012  17.913  0.00  0.00    +0.000 OA
ATOM     18  H   UNL     1       8.122   3.916  18.873  0.00  0.00    +0.000 HD
ENDBRANCH  15  17
ENDBRANCH  14  15
ENDBRANCH  13  14
ENDBRANCH  12  13
ENDBRANCH   6   7
ENDBRANCH   3   5
BRANCH   1  19
ATOM     19  C   UNL     1       1.565  10.548  18.869  0.00  0.00    +0.000 C 
BRANCH  19  23
ATOM     20  N   UNL     1      -0.939  12.461  20.832  0.00  0.00    +0.000 NA
ATOM     21  C   UNL     1      -0.776  10.992  20.815  0.00  0.00    +0.000 C 
ATOM     22  C   UNL     1      -0.799  10.511  19.344  0.00  0.00    +0.000 C 
ATOM     23  N   UNL     1       0.255  11.109  18.478  0.00  0.00    +0.000 NA
ATOM     24  C   UNL     1       0.170  12.590  18.611  0.00  0.00    +0.000 C 
ATOM     25  C   UNL     1       0.122  13.157  20.053  0.00  0.00    +0.000 C 
BRANCH  20  26
ATOM     26  S   UNL     1      -1.495  13.173  22.250  0.00  0.00    +0.000 S 
ATOM     27  O   UNL     1      -1.141  14.581  22.228  0.00  0.00    +0.000 OA
ATOM     28  O   UNL     1      -1.093  12.331  23.359  0.00  0.00    +0.000 OA
BRANCH  26  33
ATOM     29  C   UNL     1      -7.518  12.503  21.798  0.00  0.00    +0.000 C 
ATOM     30  C   UNL     1      -6.037  12.719  21.907  0.00  0.00    +0.000 A 
ATOM     31  C   UNL     1      -5.233  12.726  20.761  0.00  0.00    +0.000 A 
ATOM     32  C   UNL     1      -3.852  12.894  20.867  0.00  0.00    +0.000 A 
ATOM     33  C   UNL     1      -3.269  13.070  22.125  0.00  0.00    +0.000 A 
ATOM     34  C   UNL     1      -4.058  13.056  23.280  0.00  0.00    +0.000 A 
ATOM     35  C   UNL     1      -5.439  12.890  23.166  0.00  0.00    +0.000 A 
ENDBRANCH  26  33
ENDBRANCH  20  26
ENDBRANCH  19  23
ENDBRANCH   1  19
TORSDOF 10
ENDMDL
MODEL 7
REMARK VINA RESULT:      -7.4      2.037      3.046
REMARK  Name = 
REMARK  11 active torsions:
REMARK  status: ('A' for Active; 'I' for Inactive)
REMARK    1  A    between atoms: C_1  and  C_2
REMARK    2  A    between atoms: C_5  and  S_6
REMARK    3  A    between atoms: S_6  and  N_9
REMARK    4  A    between atoms: N_12  and  C_13
REMARK    5  A    between atoms: C_13  and  C_14
REMARK    6  A    between atoms: N_16  and  N_17
REMARK    7  A    between atoms: C_18  and  C_19
REMARK    8  A    between atoms: C_24  and  O_25
REMARK    9  A    between atoms: O_25  and  C_26
REMARK   10  A    between atoms: C_26  and  C_27
REMARK   11  A    between atoms: C_27  and  O_29
REMARK                            x       y       z     vdW  Elec       q    Type
REMARK                         _______ _______ _______ _____ _____    ______ ____
ROOT
ATOM      1  C   UNL     1       1.089   9.314  19.186  0.00  0.00    +0.000 C 
ATOM      2  O   UNL     1       1.363   9.829  18.097  0.00  0.00    +0.000 OA
ATOM      3  N   UNL     1       1.581   8.092  19.620  0.00  0.00    +0.000 N 
ATOM      4  H   UNL     1       1.214   7.621  20.441  0.00  0.00    +0.000 HD
ENDROOT
BRANCH   3   5
ATOM      5  N   UNL     1       2.405   7.468  18.753  0.00  0.00    +0.000 NA
ATOM      6  C   UNL     1       2.917   6.306  18.976  0.00  0.00    +0.000 C 
BRANCH   6   7
ATOM      7  C   UNL     1       3.748   5.741  17.879  0.00  0.00    +0.000 A 
ATOM      8  C   UNL     1       4.622   6.671  17.273  0.00  0.00    +0.000 A 
ATOM      9  C   UNL     1       5.469   6.311  16.230  0.00  0.00    +0.000 A 
ATOM     10  C   UNL     1       5.460   5.001  15.775  0.00  0.00    +0.000 A 
ATOM     11  C   UNL     1       4.593   4.070  16.355  0.00  0.00    +0.000 A 
ATOM     12  C   UNL     1       3.731   4.423  17.408  0.00  0.00    +0.000 A 
BRANCH  12  13
ATOM     13  O   UNL     1       2.892   3.410  17.778  0.00  0.00    +0.000 OA
BRANCH  13  14
ATOM     14  C   UNL     1       3.493   2.220  18.291  0.00  0.00    +0.000 C 
BRANCH  14  15
ATOM     15  C   UNL     1       3.933   2.518  19.713  0.00  0.00    +0.000 C 
ATOM     16  O   UNL     1       5.087   2.441  20.108  0.00  0.00    +0.000 OA
BRANCH  15  17
ATOM     17  O   UNL     1       2.906   2.881  20.522  0.00  0.00    +0.000 OA
ATOM     18  H   UNL     1       2.102   3.069  19.988  0.00  0.00    +0.000 HD
ENDBRANCH  15  17
ENDBRANCH  14  15
ENDBRANCH  13  14
ENDBRANCH  12  13
ENDBRANCH   6   7
ENDBRANCH   3   5
BRANCH   1  19
ATOM     19  C   UNL     1       0.189  10.059  20.154  0.00  0.00    +0.000 C 
BRANCH  19  23
ATOM     20  N   UNL     1      -0.557  12.829  22.511  0.00  0.00    +0.000 NA
ATOM     21  C   UNL     1       0.194  12.937  21.242  0.00  0.00    +0.000 C 
ATOM     22  C   UNL     1       1.327  11.881  21.249  0.00  0.00    +0.000 C 
ATOM     23  N   UNL     1       0.864  10.474  21.401  0.00  0.00    +0.000 NA
ATOM     24  C   UNL     1      -0.007  10.407  22.608  0.00  0.00    +0.000 C 
ATOM     25  C   UNL     1      -1.130  11.470  22.716  0.00  0.00    +0.000 C 
BRANCH  20  26
ATOM     26  S   UNL     1      -1.450  14.163  23.010  0.00  0.00    +0.000 S 
ATOM     27  O   UNL     1      -1.397  15.169  21.964  0.00  0.00    +0.000 OA
ATOM     28  O   UNL     1      -1.047  14.488  24.363  0.00  0.00    +0.000 OA
BRANCH  26  33
ATOM     29  C   UNL     1      -7.257  12.411  23.379  0.00  0.00    +0.000 C 
ATOM     30  C   UNL     1      -5.809  12.795  23.277  0.00  0.00    +0.000 A 
ATOM     31  C   UNL     1      -4.993  12.796  24.413  0.00  0.00    +0.000 A 
ATOM     32  C   UNL     1      -3.656  13.186  24.322  0.00  0.00    +0.000 A 
ATOM     33  C   UNL     1      -3.126  13.565  23.086  0.00  0.00    +0.000 A 
ATOM     34  C   UNL     1      -3.932  13.578  21.943  0.00  0.00    +0.000 A 
ATOM     35  C   UNL     1      -5.268  13.184  22.042  0.00  0.00    +0.000 A 
ENDBRANCH  26  33
ENDBRANCH  20  26
ENDBRANCH  19  23
ENDBRANCH   1  19
TORSDOF 10
ENDMDL
MODEL 8
REMARK VINA RESULT:      -7.4      2.759      4.179
REMARK  Name = 
REMARK  11 active torsions:
REMARK  status: ('A' for Active; 'I' for Inactive)
REMARK    1  A    between atoms: C_1  and  C_2
REMARK    2  A    between atoms: C_5  and  S_6
REMARK    3  A    between atoms: S_6  and  N_9
REMARK    4  A    between atoms: N_12  and  C_13
REMARK    5  A    between atoms: C_13  and  C_14
REMARK    6  A    between atoms: N_16  and  N_17
REMARK    7  A    between atoms: C_18  and  C_19
REMARK    8  A    between atoms: C_24  and  O_25
REMARK    9  A    between atoms: O_25  and  C_26
REMARK   10  A    between atoms: C_26  and  C_27
REMARK   11  A    between atoms: C_27  and  O_29
REMARK                            x       y       z     vdW  Elec       q    Type
REMARK                         _______ _______ _______ _____ _____    ______ ____
ROOT
ATOM      1  C   UNL     1       1.202   8.625  20.472  0.00  0.00    +0.000 C 
ATOM      2  O   UNL     1       0.921   7.698  21.239  0.00  0.00    +0.000 OA
ATOM      3  N   UNL     1       1.671   8.456  19.177  0.00  0.00    +0.000 N 
ATOM      4  H   UNL     1       2.045   9.226  18.633  0.00  0.00    +0.000 HD
ENDROOT
BRANCH   3   5
ATOM      5  N   UNL     1       1.813   7.173  18.786  0.00  0.00    +0.000 NA
ATOM      6  C   UNL     1       2.958   6.625  18.565  0.00  0.00    +0.000 C 
BRANCH   6   7
ATOM      7  C   UNL     1       2.929   5.180  18.206  0.00  0.00    +0.000 A 
ATOM      8  C   UNL     1       1.796   4.485  18.684  0.00  0.00    +0.000 A 
ATOM      9  C   UNL     1       1.611   3.128  18.440  0.00  0.00    +0.000 A 
ATOM     10  C   UNL     1       2.561   2.439  17.704  0.00  0.00    +0.000 A 
ATOM     11  C   UNL     1       3.695   3.109  17.233  0.00  0.00    +0.000 A 
ATOM     12  C   UNL     1       3.894   4.479  17.475  0.00  0.00    +0.000 A 
BRANCH  12  13
ATOM     13  O   UNL     1       5.101   4.935  17.024  0.00  0.00    +0.000 OA
BRANCH  13  14
ATOM     14  C   UNL     1       5.811   4.100  16.108  0.00  0.00    +0.000 C 
BRANCH  14  15
ATOM     15  C   UNL     1       7.241   4.608  16.055  0.00  0.00    +0.000 C 
ATOM     16  O   UNL     1       7.687   5.320  15.168  0.00  0.00    +0.000 OA
BRANCH  15  17
ATOM     17  O   UNL     1       7.993   4.186  17.103  0.00  0.00    +0.000 OA
ATOM     18  H   UNL     1       8.030   3.204  17.122  0.00  0.00    +0.000 HD
ENDBRANCH  15  17
ENDBRANCH  14  15
ENDBRANCH  13  14
ENDBRANCH  12  13
ENDBRANCH   6   7
ENDBRANCH   3   5
BRANCH   1  19
ATOM     19  C   UNL     1       0.996  10.057  20.932  0.00  0.00    +0.000 C 
BRANCH  19  23
ATOM     20  N   UNL     1       0.418  13.723  20.841  0.00  0.00    +0.000 NA
ATOM     21  C   UNL     1      -0.341  12.736  21.638  0.00  0.00    +0.000 C 
ATOM     22  C   UNL     1      -0.831  11.612  20.693  0.00  0.00    +0.000 C 
ATOM     23  N   UNL     1       0.252  10.894  19.967  0.00  0.00    +0.000 NA
ATOM     24  C   UNL     1       1.095  11.912  19.279  0.00  0.00    +0.000 C 
ATOM     25  C   UNL     1       1.577  13.110  20.136  0.00  0.00    +0.000 C 
BRANCH  20  26
ATOM     26  S   UNL     1       0.584  15.275  21.466  0.00  0.00    +0.000 S 
ATOM     27  O   UNL     1       1.913  15.401  22.038  0.00  0.00    +0.000 OA
ATOM     28  O   UNL     1      -0.590  15.561  22.266  0.00  0.00    +0.000 OA
BRANCH  26  33
ATOM     29  C   UNL     1       0.449  18.630  16.402  0.00  0.00    +0.000 C 
ATOM     30  C   UNL     1       0.475  17.844  17.680  0.00  0.00    +0.000 A 
ATOM     31  C   UNL     1       1.687  17.589  18.334  0.00  0.00    +0.000 A 
ATOM     32  C   UNL     1       1.712  16.831  19.504  0.00  0.00    +0.000 A 
ATOM     33  C   UNL     1       0.520  16.332  20.034  0.00  0.00    +0.000 A 
ATOM     34  C   UNL     1      -0.698  16.571  19.388  0.00  0.00    +0.000 A 
ATOM     35  C   UNL     1      -0.716  17.334  18.219  0.00  0.00    +0.000 A 
ENDBRANCH  26  33
ENDBRANCH  20  26
ENDBRANCH  19  23
ENDBRANCH   1  19
TORSDOF 10
ENDMDL
MODEL 9
REMARK VINA RESULT:      -7.4      1.936      3.341
REMARK  Name = 
REMARK  11 active torsions:
REMARK  status: ('A' for Active; 'I' for Inactive)
REMARK    1  A    between atoms: C_1  and  C_2
REMARK    2  A    between atoms: C_5  and  S_6
REMARK    3  A    between atoms: S_6  and  N_9
REMARK    4  A    between atoms: N_12  and  C_13
REMARK    5  A    between atoms: C_13  and  C_14
REMARK    6  A    between atoms: N_16  and  N_17
REMARK    7  A    between atoms: C_18  and  C_19
REMARK    8  A    between atoms: C_24  and  O_25
REMARK    9  A    between atoms: O_25  and  C_26
REMARK   10  A    between atoms: C_26  and  C_27
REMARK   11  A    between atoms: C_27  and  O_29
REMARK                            x       y       z     vdW  Elec       q    Type
REMARK                         _______ _______ _______ _____ _____    ______ ____
ROOT
ATOM      1  C   UNL     1       1.143   9.011  19.361  0.00  0.00    +0.000 C 
ATOM      2  O   UNL     1       1.275   9.421  18.203  0.00  0.00    +0.000 OA
ATOM      3  N   UNL     1       1.848   7.945  19.899  0.00  0.00    +0.000 N 
ATOM      4  H   UNL     1       1.603   7.530  20.793  0.00  0.00    +0.000 HD
ENDROOT
BRANCH   3   5
ATOM      5  N   UNL     1       2.720   7.354  19.057  0.00  0.00    +0.000 NA
ATOM      6  C   UNL     1       2.695   6.094  18.786  0.00  0.00    +0.000 C 
BRANCH   6   7
ATOM      7  C   UNL     1       3.689   5.626  17.781  0.00  0.00    +0.000 A 
ATOM      8  C   UNL     1       4.212   6.651  16.960  0.00  0.00    +0.000 A 
ATOM      9  C   UNL     1       5.151   6.388  15.968  0.00  0.00    +0.000 A 
ATOM     10  C   UNL     1       5.590   5.087  15.781  0.00  0.00    +0.000 A 
ATOM     11  C   UNL     1       5.074   4.059  16.577  0.00  0.00    +0.000 A 
ATOM     12  C   UNL     1       4.124   4.311  17.581  0.00  0.00    +0.000 A 
BRANCH  12  13
ATOM     13  O   UNL     1       3.666   3.175  18.186  0.00  0.00    +0.000 OA
BRANCH  13  14
ATOM     14  C   UNL     1       2.509   2.557  17.620  0.00  0.00    +0.000 C 
BRANCH  14  15
ATOM     15  C   UNL     1       1.567   2.235  18.766  0.00  0.00    +0.000 C 
ATOM     16  O   UNL     1       1.883   2.260  19.946  0.00  0.00    +0.000 OA
BRANCH  15  17
ATOM     17  O   UNL     1       0.317   1.906  18.350  0.00  0.00    +0.000 OA
ATOM     18  H   UNL     1      -0.166   2.710  18.054  0.00  0.00    +0.000 HD
ENDBRANCH  15  17
ENDBRANCH  14  15
ENDBRANCH  13  14
ENDBRANCH  12  13
ENDBRANCH   6   7
ENDBRANCH   3   5
BRANCH   1  19
ATOM     19  C   UNL     1       0.180   9.722  20.294  0.00  0.00    +0.000 C 
BRANCH  19  23
ATOM     20  N   UNL     1      -0.846  12.690  22.274  0.00  0.00    +0.000 NA
ATOM     21  C   UNL     1      -0.165  12.705  20.962  0.00  0.00    +0.000 C 
ATOM     22  C   UNL     1       1.100  11.818  21.054  0.00  0.00    +0.000 C 
ATOM     23  N   UNL     1       0.839  10.401  21.430  0.00  0.00    +0.000 NA
ATOM     24  C   UNL     1       0.031  10.400  22.681  0.00  0.00    +0.000 C 
ATOM     25  C   UNL     1      -1.221  11.314  22.702  0.00  0.00    +0.000 C 
BRANCH  20  26
ATOM     26  S   UNL     1      -1.893  13.957  22.629  0.00  0.00    +0.000 S 
ATOM     27  O   UNL     1      -1.573  15.076  21.760  0.00  0.00    +0.000 OA
ATOM     28  O   UNL     1      -1.914  14.128  24.069  0.00  0.00    +0.000 OA
BRANCH  26  33
ATOM     29  C   UNL     1      -7.468  12.189  20.982  0.00  0.00    +0.000 C 
ATOM     30  C   UNL     1      -6.078  12.576  21.394  0.00  0.00    +0.000 A 
ATOM     31  C   UNL     1      -5.777  12.822  22.739  0.00  0.00    +0.000 A 
ATOM     32  C   UNL     1      -4.492  13.214  23.115  0.00  0.00    +0.000 A 
ATOM     33  C   UNL     1      -3.496  13.350  22.145  0.00  0.00    +0.000 A 
ATOM     34  C   UNL     1      -3.783  13.117  20.796  0.00  0.00    +0.000 A 
ATOM     35  C   UNL     1      -5.071  12.722  20.427  0.00  0.00    +0.000 A 
ENDBRANCH  26  33
ENDBRANCH  20  26
ENDBRANCH  19  23
ENDBRANCH   1  19
TORSDOF 10
ENDMDL
