MODEL 1
REMARK VINA RESULT:      -6.5      0.000      0.000
REMARK  Name = 
REMARK  18 active torsions:
REMARK  status: ('A' for Active; 'I' for Inactive)
REMARK    1  A    between atoms: C_1  and  S_2
REMARK    2  A    between atoms: S_2  and  C_3
REMARK    3  A    between atoms: C_6  and  C_7
REMARK    4  A    between atoms: C_7  and  C_8
REMARK    5  A    between atoms: C_8  and  O_9
REMARK    6  A    between atoms: O_9  and  C_10
REMARK    7  A    between atoms: C_10  and  C_11
REMARK    8  A    between atoms: C_11  and  O_12
REMARK    9  A    between atoms: O_12  and  C_13
REMARK   10  A    between atoms: C_16  and  O_17
REMARK   11  A    between atoms: O_17  and  C_18
REMARK   12  A    between atoms: C_18  and  C_19
REMARK   13  A    between atoms: C_19  and  O_20
REMARK   14  A    between atoms: C_19  and  C_21
REMARK   15  A    between atoms: C_21  and  N_22
REMARK   16  A    between atoms: N_22  and  C_23
REMARK   17  A    between atoms: C_23  and  C_24
REMARK   18  A    between atoms: C_23  and  C_25
REMARK                            x       y       z     vdW  Elec       q    Type
REMARK                         _______ _______ _______ _____ _____    ______ ____
ROOT
ATOM      1  C   UNL     1       2.344   6.636  19.629  0.00  0.00    +0.000 A 
ATOM      2  C   UNL     1       1.700   7.469  20.536  0.00  0.00    +0.000 A 
ATOM      3  C   UNL     1       1.287   8.738  20.150  0.00  0.00    +0.000 A 
ATOM      4  C   UNL     1       1.529   9.206  18.858  0.00  0.00    +0.000 A 
ATOM      5  C   UNL     1       2.177   8.373  17.943  0.00  0.00    +0.000 A 
ATOM      6  C   UNL     1       2.588   7.082  18.330  0.00  0.00    +0.000 A 
ENDROOT
BRANCH   1   7
ATOM      7  O   UNL     1       2.729   5.442  20.153  0.00  0.00    +0.000 OA
BRANCH   7   8
ATOM      8  C   UNL     1       1.928   4.945  21.217  0.00  0.00    +0.000 C 
BRANCH   8   9
ATOM      9  C   UNL     1       1.260   3.674  20.713  0.00  0.00    +0.000 C 
BRANCH   9  10
ATOM     10  O   UNL     1       1.045   3.754  19.304  0.00  0.00    +0.000 OA
BRANCH  10  11
ATOM     11  C   UNL     1       1.220   2.469  18.702  0.00  0.00    +0.000 C 
BRANCH  11  12
ATOM     12  C   UNL     1       2.623   1.950  19.005  0.00  0.00    +0.000 C 
BRANCH  12  16
ATOM     13  C   UNL     1       5.616   4.512  17.200  0.00  0.00    +0.000 A 
ATOM     14  C   UNL     1       5.663   4.205  18.566  0.00  0.00    +0.000 A 
ATOM     15  C   UNL     1       4.707   3.366  19.147  0.00  0.00    +0.000 A 
ATOM     16  C   UNL     1       3.680   2.817  18.371  0.00  0.00    +0.000 A 
ATOM     17  C   UNL     1       3.622   3.133  17.009  0.00  0.00    +0.000 A 
ATOM     18  C   UNL     1       4.581   3.974  16.431  0.00  0.00    +0.000 A 
BRANCH  13  20
ATOM     19  C   UNL     1       7.017   5.088  14.835  0.00  0.00    +0.000 C 
ATOM     20  S   UNL     1       6.853   5.633  16.558  0.00  0.00    +0.000 S 
ENDBRANCH  13  20
ENDBRANCH  12  16
ENDBRANCH  11  12
ENDBRANCH  10  11
ENDBRANCH   9  10
ENDBRANCH   8   9
ENDBRANCH   7   8
ENDBRANCH   1   7
BRANCH   4  21
ATOM     21  O   UNL     1       1.178  10.461  18.416  0.00  0.00    +0.000 OA
BRANCH  21  22
ATOM     22  C   UNL     1       0.627  11.297  19.451  0.00  0.00    +0.000 C 
BRANCH  22  23
ATOM     23  C   UNL     1       0.034  12.586  18.881  0.00  0.00    +0.000 C 
BRANCH  23  24
ATOM     24  O   UNL     1       0.874  13.090  17.838  0.00  0.00    +0.000 OA
ATOM     25  H   UNL     1       1.439  13.771  18.251  0.00  0.00    +0.000 HD
ENDBRANCH  23  24
BRANCH  23  26
ATOM     26  C   UNL     1      -1.390  12.376  18.344  0.00  0.00    +0.000 C 
BRANCH  26  27
ATOM     27  N   UNL     1      -1.451  11.272  17.381  0.00  0.00    +0.000 NA
ATOM     28  H   UNL     1      -1.218  10.396  17.852  0.00  0.00    +0.000 HD
BRANCH  27  29
ATOM     29  C   UNL     1      -2.758  11.137  16.729  0.00  0.00    +0.000 C 
ATOM     30  C   UNL     1      -2.702  10.256  15.480  0.00  0.00    +0.000 C 
ATOM     31  C   UNL     1      -3.731  10.524  17.740  0.00  0.00    +0.000 C 
ENDBRANCH  27  29
ENDBRANCH  26  27
ENDBRANCH  23  26
ENDBRANCH  22  23
ENDBRANCH  21  22
ENDBRANCH   4  21
TORSDOF 15
ENDMDL
MODEL 2
REMARK VINA RESULT:      -6.4      1.252      1.487
REMARK  Name = 
REMARK  18 active torsions:
REMARK  status: ('A' for Active; 'I' for Inactive)
REMARK    1  A    between atoms: C_1  and  S_2
REMARK    2  A    between atoms: S_2  and  C_3
REMARK    3  A    between atoms: C_6  and  C_7
REMARK    4  A    between atoms: C_7  and  C_8
REMARK    5  A    between atoms: C_8  and  O_9
REMARK    6  A    between atoms: O_9  and  C_10
REMARK    7  A    between atoms: C_10  and  C_11
REMARK    8  A    between atoms: C_11  and  O_12
REMARK    9  A    between atoms: O_12  and  C_13
REMARK   10  A    between atoms: C_16  and  O_17
REMARK   11  A    between atoms: O_17  and  C_18
REMARK   12  A    between atoms: C_18  and  C_19
REMARK   13  A    between atoms: C_19  and  O_20
REMARK   14  A    between atoms: C_19  and  C_21
REMARK   15  A    between atoms: C_21  and  N_22
REMARK   16  A    between atoms: N_22  and  C_23
REMARK   17  A    between atoms: C_23  and  C_24
REMARK   18  A    between atoms: C_23  and  C_25
REMARK                            x       y       z     vdW  Elec       q    Type
REMARK                         _______ _______ _______ _____ _____    ______ ____
ROOT
ATOM      1  C   UNL     1       2.034   6.112  19.942  0.00  0.00    +0.000 A 
ATOM      2  C   UNL     1       1.463   7.068  20.773  0.00  0.00    +0.000 A 
ATOM      3  C   UNL     1       1.287   8.371  20.323  0.00  0.00    +0.000 A 
ATOM      4  C   UNL     1       1.697   8.746  19.044  0.00  0.00    +0.000 A 
ATOM      5  C   UNL     1       2.271   7.790  18.205  0.00  0.00    +0.000 A 
ATOM      6  C   UNL     1       2.443   6.466  18.656  0.00  0.00    +0.000 A 
ENDROOT
BRANCH   1   7
ATOM      7  O   UNL     1       2.184   4.892  20.525  0.00  0.00    +0.000 OA
BRANCH   7   8
ATOM      8  C   UNL     1       1.010   4.096  20.607  0.00  0.00    +0.000 C 
BRANCH   8   9
ATOM      9  C   UNL     1       1.326   2.769  19.933  0.00  0.00    +0.000 C 
BRANCH   9  10
ATOM     10  O   UNL     1       1.380   2.934  18.516  0.00  0.00    +0.000 OA
BRANCH  10  11
ATOM     11  C   UNL     1       2.568   2.335  17.992  0.00  0.00    +0.000 C 
BRANCH  11  12
ATOM     12  C   UNL     1       3.090   3.170  16.826  0.00  0.00    +0.000 C 
BRANCH  12  16
ATOM     13  C   UNL     1       6.521   5.545  17.994  0.00  0.00    +0.000 A 
ATOM     14  C   UNL     1       5.893   4.693  18.911  0.00  0.00    +0.000 A 
ATOM     15  C   UNL     1       4.795   3.915  18.532  0.00  0.00    +0.000 A 
ATOM     16  C   UNL     1       4.301   3.974  17.224  0.00  0.00    +0.000 A 
ATOM     17  C   UNL     1       4.918   4.835  16.309  0.00  0.00    +0.000 A 
ATOM     18  C   UNL     1       6.016   5.614  16.693  0.00  0.00    +0.000 A 
BRANCH  13  20
ATOM     19  C   UNL     1       7.742   8.040  17.575  0.00  0.00    +0.000 C 
ATOM     20  S   UNL     1       7.886   6.539  18.584  0.00  0.00    +0.000 S 
ENDBRANCH  13  20
ENDBRANCH  12  16
ENDBRANCH  11  12
ENDBRANCH  10  11
ENDBRANCH   9  10
ENDBRANCH   8   9
ENDBRANCH   7   8
ENDBRANCH   1   7
BRANCH   4  21
ATOM     21  O   UNL     1       1.582  10.024  18.544  0.00  0.00    +0.000 OA
BRANCH  21  22
ATOM     22  C   UNL     1       0.244  10.357  18.130  0.00  0.00    +0.000 C 
BRANCH  22  23
ATOM     23  C   UNL     1      -0.228  11.674  18.749  0.00  0.00    +0.000 C 
BRANCH  23  24
ATOM     24  O   UNL     1       0.433  12.774  18.116  0.00  0.00    +0.000 OA
ATOM     25  H   UNL     1       0.956  12.391  17.386  0.00  0.00    +0.000 HD
ENDBRANCH  23  24
BRANCH  23  26
ATOM     26  C   UNL     1      -1.749  11.849  18.639  0.00  0.00    +0.000 C 
BRANCH  26  27
ATOM     27  N   UNL     1      -2.374  10.736  17.917  0.00  0.00    +0.000 NA
ATOM     28  H   UNL     1      -3.078  10.296  18.512  0.00  0.00    +0.000 HD
BRANCH  27  29
ATOM     29  C   UNL     1      -2.995  11.136  16.649  0.00  0.00    +0.000 C 
ATOM     30  C   UNL     1      -2.835  10.076  15.558  0.00  0.00    +0.000 C 
ATOM     31  C   UNL     1      -4.483  11.381  16.907  0.00  0.00    +0.000 C 
ENDBRANCH  27  29
ENDBRANCH  26  27
ENDBRANCH  23  26
ENDBRANCH  22  23
ENDBRANCH  21  22
ENDBRANCH   4  21
TORSDOF 15
ENDMDL
MODEL 3
REMARK VINA RESULT:      -6.4      3.833      7.425
REMARK  Name = 
REMARK  18 active torsions:
REMARK  status: ('A' for Active; 'I' for Inactive)
REMARK    1  A    between atoms: C_1  and  S_2
REMARK    2  A    between atoms: S_2  and  C_3
REMARK    3  A    between atoms: C_6  and  C_7
REMARK    4  A    between atoms: C_7  and  C_8
REMARK    5  A    between atoms: C_8  and  O_9
REMARK    6  A    between atoms: O_9  and  C_10
REMARK    7  A    between atoms: C_10  and  C_11
REMARK    8  A    between atoms: C_11  and  O_12
REMARK    9  A    between atoms: O_12  and  C_13
REMARK   10  A    between atoms: C_16  and  O_17
REMARK   11  A    between atoms: O_17  and  C_18
REMARK   12  A    between atoms: C_18  and  C_19
REMARK   13  A    between atoms: C_19  and  O_20
REMARK   14  A    between atoms: C_19  and  C_21
REMARK   15  A    between atoms: C_21  and  N_22
REMARK   16  A    between atoms: N_22  and  C_23
REMARK   17  A    between atoms: C_23  and  C_24
REMARK   18  A    between atoms: C_23  and  C_25
REMARK                            x       y       z     vdW  Elec       q    Type
REMARK                         _______ _______ _______ _____ _____    ______ ____
ROOT
ATOM      1  C   UNL     1       4.208   2.700  19.988  0.00  0.00    +0.000 A 
ATOM      2  C   UNL     1       3.581   2.028  18.944  0.00  0.00    +0.000 A 
ATOM      3  C   UNL     1       3.715   2.485  17.639  0.00  0.00    +0.000 A 
ATOM      4  C   UNL     1       4.459   3.630  17.355  0.00  0.00    +0.000 A 
ATOM      5  C   UNL     1       5.090   4.308  18.400  0.00  0.00    +0.000 A 
ATOM      6  C   UNL     1       4.964   3.842  19.724  0.00  0.00    +0.000 A 
ENDROOT
BRANCH   1   7
ATOM      7  O   UNL     1       3.958   2.169  21.215  0.00  0.00    +0.000 OA
BRANCH   7   8
ATOM      8  C   UNL     1       2.588   1.962  21.533  0.00  0.00    +0.000 C 
BRANCH   8   9
ATOM      9  C   UNL     1       1.977   3.336  21.770  0.00  0.00    +0.000 C 
BRANCH   9  10
ATOM     10  O   UNL     1       0.867   3.541  20.897  0.00  0.00    +0.000 OA
BRANCH  10  11
ATOM     11  C   UNL     1       1.127   4.636  20.015  0.00  0.00    +0.000 C 
BRANCH  11  12
ATOM     12  C   UNL     1       2.073   5.624  20.691  0.00  0.00    +0.000 C 
BRANCH  12  16
ATOM     13  C   UNL     1       1.347   9.643  19.241  0.00  0.00    +0.000 A 
ATOM     14  C   UNL     1       0.970   9.269  20.537  0.00  0.00    +0.000 A 
ATOM     15  C   UNL     1       1.217   7.977  21.012  0.00  0.00    +0.000 A 
ATOM     16  C   UNL     1       1.847   7.030  20.196  0.00  0.00    +0.000 A 
ATOM     17  C   UNL     1       2.212   7.397  18.896  0.00  0.00    +0.000 A 
ATOM     18  C   UNL     1       1.962   8.691  18.424  0.00  0.00    +0.000 A 
BRANCH  13  20
ATOM     19  C   UNL     1       1.089  12.254  20.243  0.00  0.00    +0.000 C 
ATOM     20  S   UNL     1       0.944  11.301  18.706  0.00  0.00    +0.000 S 
ENDBRANCH  13  20
ENDBRANCH  12  16
ENDBRANCH  11  12
ENDBRANCH  10  11
ENDBRANCH   9  10
ENDBRANCH   8   9
ENDBRANCH   7   8
ENDBRANCH   1   7
BRANCH   4  21
ATOM     21  O   UNL     1       4.608   4.157  16.092  0.00  0.00    +0.000 OA
BRANCH  21  22
ATOM     22  C   UNL     1       5.905   3.904  15.518  0.00  0.00    +0.000 C 
BRANCH  22  23
ATOM     23  C   UNL     1       6.792   5.149  15.553  0.00  0.00    +0.000 C 
BRANCH  23  24
ATOM     24  O   UNL     1       7.575   5.223  14.358  0.00  0.00    +0.000 OA
ATOM     25  H   UNL     1       7.437   6.121  14.000  0.00  0.00    +0.000 HD
ENDBRANCH  23  24
BRANCH  23  26
ATOM     26  C   UNL     1       5.970   6.436  15.715  0.00  0.00    +0.000 C 
BRANCH  26  27
ATOM     27  N   UNL     1       6.148   7.032  17.043  0.00  0.00    +0.000 NA
ATOM     28  H   UNL     1       5.684   6.451  17.743  0.00  0.00    +0.000 HD
BRANCH  27  29
ATOM     29  C   UNL     1       7.554   7.212  17.420  0.00  0.00    +0.000 C 
ATOM     30  C   UNL     1       7.913   8.679  17.665  0.00  0.00    +0.000 C 
ATOM     31  C   UNL     1       7.810   6.406  18.695  0.00  0.00    +0.000 C 
ENDBRANCH  27  29
ENDBRANCH  26  27
ENDBRANCH  23  26
ENDBRANCH  22  23
ENDBRANCH  21  22
ENDBRANCH   4  21
TORSDOF 15
ENDMDL
MODEL 4
REMARK VINA RESULT:      -6.3      6.988      8.287
REMARK  Name = 
REMARK  18 active torsions:
REMARK  status: ('A' for Active; 'I' for Inactive)
REMARK    1  A    between atoms: C_1  and  S_2
REMARK    2  A    between atoms: S_2  and  C_3
REMARK    3  A    between atoms: C_6  and  C_7
REMARK    4  A    between atoms: C_7  and  C_8
REMARK    5  A    between atoms: C_8  and  O_9
REMARK    6  A    between atoms: O_9  and  C_10
REMARK    7  A    between atoms: C_10  and  C_11
REMARK    8  A    between atoms: C_11  and  O_12
REMARK    9  A    between atoms: O_12  and  C_13
REMARK   10  A    between atoms: C_16  and  O_17
REMARK   11  A    between atoms: O_17  and  C_18
REMARK   12  A    between atoms: C_18  and  C_19
REMARK   13  A    between atoms: C_19  and  O_20
REMARK   14  A    between atoms: C_19  and  C_21
REMARK   15  A    between atoms: C_21  and  N_22
REMARK   16  A    between atoms: N_22  and  C_23
REMARK   17  A    between atoms: C_23  and  C_24
REMARK   18  A    between atoms: C_23  and  C_25
REMARK                            x       y       z     vdW  Elec       q    Type
REMARK                         _______ _______ _______ _____ _____    ______ ____
ROOT
ATOM      1  C   UNL     1       9.539  10.408  19.127  0.00  0.00    +0.000 A 
ATOM      2  C   UNL     1       9.392  10.946  20.400  0.00  0.00    +0.000 A 
ATOM      3  C   UNL     1       9.957  12.178  20.707  0.00  0.00    +0.000 A 
ATOM      4  C   UNL     1      10.694  12.883  19.756  0.00  0.00    +0.000 A 
ATOM      5  C   UNL     1      10.845  12.346  18.476  0.00  0.00    +0.000 A 
ATOM      6  C   UNL     1      10.266  11.101  18.159  0.00  0.00    +0.000 A 
ENDROOT
BRANCH   1   7
ATOM      7  O   UNL     1       8.972   9.180  18.978  0.00  0.00    +0.000 OA
BRANCH   7   8
ATOM      8  C   UNL     1       8.136   9.017  17.841  0.00  0.00    +0.000 C 
BRANCH   8   9
ATOM      9  C   UNL     1       7.589   7.598  17.893  0.00  0.00    +0.000 C 
BRANCH   9  10
ATOM     10  O   UNL     1       7.770   6.951  16.633  0.00  0.00    +0.000 OA
BRANCH  10  11
ATOM     11  C   UNL     1       6.838   5.876  16.489  0.00  0.00    +0.000 C 
BRANCH  11  12
ATOM     12  C   UNL     1       5.426   6.439  16.355  0.00  0.00    +0.000 C 
BRANCH  12  16
ATOM     13  C   UNL     1       2.538   3.748  18.143  0.00  0.00    +0.000 A 
ATOM     14  C   UNL     1       2.559   5.107  18.484  0.00  0.00    +0.000 A 
ATOM     15  C   UNL     1       3.481   5.979  17.896  0.00  0.00    +0.000 A 
ATOM     16  C   UNL     1       4.403   5.508  16.955  0.00  0.00    +0.000 A 
ATOM     17  C   UNL     1       4.393   4.149  16.623  0.00  0.00    +0.000 A 
ATOM     18  C   UNL     1       3.470   3.278  17.214  0.00  0.00    +0.000 A 
BRANCH  13  20
ATOM     19  C   UNL     1       0.941   3.681  20.452  0.00  0.00    +0.000 C 
ATOM     20  S   UNL     1       1.357   2.701  18.984  0.00  0.00    +0.000 S 
ENDBRANCH  13  20
ENDBRANCH  12  16
ENDBRANCH  11  12
ENDBRANCH  10  11
ENDBRANCH   9  10
ENDBRANCH   8   9
ENDBRANCH   7   8
ENDBRANCH   1   7
BRANCH   4  21
ATOM     21  O   UNL     1      11.307  14.092  20.000  0.00  0.00    +0.000 OA
BRANCH  21  22
ATOM     22  C   UNL     1      10.470  15.023  20.712  0.00  0.00    +0.000 C 
BRANCH  22  23
ATOM     23  C   UNL     1       9.886  16.085  19.779  0.00  0.00    +0.000 C 
BRANCH  23  24
ATOM     24  O   UNL     1      10.586  16.075  18.530  0.00  0.00    +0.000 OA
ATOM     25  H   UNL     1      11.255  15.367  18.601  0.00  0.00    +0.000 HD
ENDBRANCH  23  24
BRANCH  23  26
ATOM     26  C   UNL     1       8.385  15.873  19.535  0.00  0.00    +0.000 C 
BRANCH  26  27
ATOM     27  N   UNL     1       8.043  15.989  18.114  0.00  0.00    +0.000 NA
ATOM     28  H   UNL     1       8.879  15.835  17.548  0.00  0.00    +0.000 HD
BRANCH  27  29
ATOM     29  C   UNL     1       6.992  15.059  17.687  0.00  0.00    +0.000 C 
ATOM     30  C   UNL     1       7.494  13.617  17.578  0.00  0.00    +0.000 C 
ATOM     31  C   UNL     1       5.856  15.126  18.709  0.00  0.00    +0.000 C 
ENDBRANCH  27  29
ENDBRANCH  26  27
ENDBRANCH  23  26
ENDBRANCH  22  23
ENDBRANCH  21  22
ENDBRANCH   4  21
TORSDOF 15
ENDMDL
MODEL 5
REMARK VINA RESULT:      -6.3      6.854      9.816
REMARK  Name = 
REMARK  18 active torsions:
REMARK  status: ('A' for Active; 'I' for Inactive)
REMARK    1  A    between atoms: C_1  and  S_2
REMARK    2  A    between atoms: S_2  and  C_3
REMARK    3  A    between atoms: C_6  and  C_7
REMARK    4  A    between atoms: C_7  and  C_8
REMARK    5  A    between atoms: C_8  and  O_9
REMARK    6  A    between atoms: O_9  and  C_10
REMARK    7  A    between atoms: C_10  and  C_11
REMARK    8  A    between atoms: C_11  and  O_12
REMARK    9  A    between atoms: O_12  and  C_13
REMARK   10  A    between atoms: C_16  and  O_17
REMARK   11  A    between atoms: O_17  and  C_18
REMARK   12  A    between atoms: C_18  and  C_19
REMARK   13  A    between atoms: C_19  and  O_20
REMARK   14  A    between atoms: C_19  and  C_21
REMARK   15  A    between atoms: C_21  and  N_22
REMARK   16  A    between atoms: N_22  and  C_23
REMARK   17  A    between atoms: C_23  and  C_24
REMARK   18  A    between atoms: C_23  and  C_25
REMARK                            x       y       z     vdW  Elec       q    Type
REMARK                         _______ _______ _______ _____ _____    ______ ____
ROOT
ATOM      1  C   UNL     1       6.739   6.902  17.698  0.00  0.00    +0.000 A 
ATOM      2  C   UNL     1       5.401   7.033  17.346  0.00  0.00    +0.000 A 
ATOM      3  C   UNL     1       4.455   6.148  17.851  0.00  0.00    +0.000 A 
ATOM      4  C   UNL     1       4.832   5.107  18.698  0.00  0.00    +0.000 A 
ATOM      5  C   UNL     1       6.175   4.971  19.054  0.00  0.00    +0.000 A 
ATOM      6  C   UNL     1       7.135   5.872  18.551  0.00  0.00    +0.000 A 
ENDROOT
BRANCH   1   7
ATOM      7  O   UNL     1       7.559   7.807  17.099  0.00  0.00    +0.000 OA
BRANCH   7   8
ATOM      8  C   UNL     1       8.395   8.558  17.970  0.00  0.00    +0.000 C 
BRANCH   8   9
ATOM      9  C   UNL     1       8.218  10.023  17.601  0.00  0.00    +0.000 C 
BRANCH   9  10
ATOM     10  O   UNL     1       9.022  10.847  18.444  0.00  0.00    +0.000 OA
BRANCH  10  11
ATOM     11  C   UNL     1       9.405  10.129  19.620  0.00  0.00    +0.000 C 
BRANCH  11  12
ATOM     12  C   UNL     1       9.560  11.102  20.785  0.00  0.00    +0.000 C 
BRANCH  12  16
ATOM     13  C   UNL     1      11.511  14.739  19.465  0.00  0.00    +0.000 A 
ATOM     14  C   UNL     1      10.157  14.740  19.820  0.00  0.00    +0.000 A 
ATOM     15  C   UNL     1       9.530  13.571  20.261  0.00  0.00    +0.000 A 
ATOM     16  C   UNL     1      10.247  12.373  20.353  0.00  0.00    +0.000 A 
ATOM     17  C   UNL     1      11.597  12.366  19.986  0.00  0.00    +0.000 A 
ATOM     18  C   UNL     1      12.221  13.538  19.543  0.00  0.00    +0.000 A 
BRANCH  13  20
ATOM     19  C   UNL     1      12.007  16.119  17.069  0.00  0.00    +0.000 C 
ATOM     20  S   UNL     1      12.213  16.271  18.865  0.00  0.00    +0.000 S 
ENDBRANCH  13  20
ENDBRANCH  12  16
ENDBRANCH  11  12
ENDBRANCH  10  11
ENDBRANCH   9  10
ENDBRANCH   8   9
ENDBRANCH   7   8
ENDBRANCH   1   7
BRANCH   4  21
ATOM     21  O   UNL     1       3.956   4.176  19.210  0.00  0.00    +0.000 OA
BRANCH  21  22
ATOM     22  C   UNL     1       4.558   2.886  19.428  0.00  0.00    +0.000 C 
BRANCH  22  23
ATOM     23  C   UNL     1       4.245   1.916  18.288  0.00  0.00    +0.000 C 
BRANCH  23  24
ATOM     24  O   UNL     1       4.458   0.569  18.722  0.00  0.00    +0.000 OA
ATOM     25  H   UNL     1       3.685   0.336  19.270  0.00  0.00    +0.000 HD
ENDBRANCH  23  24
BRANCH  23  26
ATOM     26  C   UNL     1       2.806   2.075  17.776  0.00  0.00    +0.000 C 
BRANCH  26  27
ATOM     27  N   UNL     1       1.821   1.687  18.791  0.00  0.00    +0.000 NA
ATOM     28  H   UNL     1       2.301   1.464  19.665  0.00  0.00    +0.000 HD
BRANCH  27  29
ATOM     29  C   UNL     1       0.807   2.716  19.046  0.00  0.00    +0.000 C 
ATOM     30  C   UNL     1       0.894   3.287  20.463  0.00  0.00    +0.000 C 
ATOM     31  C   UNL     1       1.010   3.842  18.030  0.00  0.00    +0.000 C 
ENDBRANCH  27  29
ENDBRANCH  26  27
ENDBRANCH  23  26
ENDBRANCH  22  23
ENDBRANCH  21  22
ENDBRANCH   4  21
TORSDOF 15
ENDMDL
MODEL 6
REMARK VINA RESULT:      -6.2      4.115      8.435
REMARK  Name = 
REMARK  18 active torsions:
REMARK  status: ('A' for Active; 'I' for Inactive)
REMARK    1  A    between atoms: C_1  and  S_2
REMARK    2  A    between atoms: S_2  and  C_3
REMARK    3  A    between atoms: C_6  and  C_7
REMARK    4  A    between atoms: C_7  and  C_8
REMARK    5  A    between atoms: C_8  and  O_9
REMARK    6  A    between atoms: O_9  and  C_10
REMARK    7  A    between atoms: C_10  and  C_11
REMARK    8  A    between atoms: C_11  and  O_12
REMARK    9  A    between atoms: O_12  and  C_13
REMARK   10  A    between atoms: C_16  and  O_17
REMARK   11  A    between atoms: O_17  and  C_18
REMARK   12  A    between atoms: C_18  and  C_19
REMARK   13  A    between atoms: C_19  and  O_20
REMARK   14  A    between atoms: C_19  and  C_21
REMARK   15  A    between atoms: C_21  and  N_22
REMARK   16  A    between atoms: N_22  and  C_23
REMARK   17  A    between atoms: C_23  and  C_24
REMARK   18  A    between atoms: C_23  and  C_25
REMARK                            x       y       z     vdW  Elec       q    Type
REMARK                         _______ _______ _______ _____ _____    ______ ____
ROOT
ATOM      1  C   UNL     1       4.673   4.055  18.813  0.00  0.00    +0.000 A 
ATOM      2  C   UNL     1       5.677   4.964  19.129  0.00  0.00    +0.000 A 
ATOM      3  C   UNL     1       6.473   5.504  18.126  0.00  0.00    +0.000 A 
ATOM      4  C   UNL     1       6.295   5.130  16.795  0.00  0.00    +0.000 A 
ATOM      5  C   UNL     1       5.289   4.218  16.472  0.00  0.00    +0.000 A 
ATOM      6  C   UNL     1       4.474   3.676  17.486  0.00  0.00    +0.000 A 
ENDROOT
BRANCH   1   7
ATOM      7  O   UNL     1       4.001   3.577  19.894  0.00  0.00    +0.000 OA
BRANCH   7   8
ATOM      8  C   UNL     1       2.969   2.639  19.617  0.00  0.00    +0.000 C 
BRANCH   8   9
ATOM      9  C   UNL     1       1.657   3.290  20.031  0.00  0.00    +0.000 C 
BRANCH   9  10
ATOM     10  O   UNL     1       1.571   4.612  19.499  0.00  0.00    +0.000 OA
BRANCH  10  11
ATOM     11  C   UNL     1       1.619   5.575  20.555  0.00  0.00    +0.000 C 
BRANCH  11  12
ATOM     12  C   UNL     1       2.452   6.775  20.115  0.00  0.00    +0.000 C 
BRANCH  12  16
ATOM     13  C   UNL     1       0.000  10.343  19.943  0.00  0.00    +0.000 A 
ATOM     14  C   UNL     1       0.126   9.616  21.134  0.00  0.00    +0.000 A 
ATOM     15  C   UNL     1       0.929   8.473  21.195  0.00  0.00    +0.000 A 
ATOM     16  C   UNL     1       1.623   8.032  20.062  0.00  0.00    +0.000 A 
ATOM     17  C   UNL     1       1.488   8.749  18.868  0.00  0.00    +0.000 A 
ATOM     18  C   UNL     1       0.682   9.892  18.810  0.00  0.00    +0.000 A 
BRANCH  13  20
ATOM     19  C   UNL     1      -0.595  12.639  18.439  0.00  0.00    +0.000 C 
ATOM     20  S   UNL     1      -1.088  11.763  19.949  0.00  0.00    +0.000 S 
ENDBRANCH  13  20
ENDBRANCH  12  16
ENDBRANCH  11  12
ENDBRANCH  10  11
ENDBRANCH   9  10
ENDBRANCH   8   9
ENDBRANCH   7   8
ENDBRANCH   1   7
BRANCH   4  21
ATOM     21  O   UNL     1       7.066   5.599  15.754  0.00  0.00    +0.000 OA
BRANCH  21  22
ATOM     22  C   UNL     1       7.308   4.613  14.734  0.00  0.00    +0.000 C 
BRANCH  22  23
ATOM     23  C   UNL     1       7.356   5.241  13.340  0.00  0.00    +0.000 C 
BRANCH  23  24
ATOM     24  O   UNL     1       8.663   5.764  13.086  0.00  0.00    +0.000 OA
ATOM     25  H   UNL     1       9.055   5.950  13.960  0.00  0.00    +0.000 HD
ENDBRANCH  23  24
BRANCH  23  26
ATOM     26  C   UNL     1       6.976   4.236  12.244  0.00  0.00    +0.000 C 
BRANCH  26  27
ATOM     27  N   UNL     1       6.432   2.995  12.806  0.00  0.00    +0.000 NA
ATOM     28  H   UNL     1       6.013   3.190  13.717  0.00  0.00    +0.000 HD
BRANCH  27  29
ATOM     29  C   UNL     1       5.437   2.350  11.944  0.00  0.00    +0.000 C 
ATOM     30  C   UNL     1       4.534   3.359  11.231  0.00  0.00    +0.000 C 
ATOM     31  C   UNL     1       6.183   1.512  10.903  0.00  0.00    +0.000 C 
ENDBRANCH  27  29
ENDBRANCH  26  27
ENDBRANCH  23  26
ENDBRANCH  22  23
ENDBRANCH  21  22
ENDBRANCH   4  21
TORSDOF 15
ENDMDL
MODEL 7
REMARK VINA RESULT:      -6.2      1.380      1.818
REMARK  Name = 
REMARK  18 active torsions:
REMARK  status: ('A' for Active; 'I' for Inactive)
REMARK    1  A    between atoms: C_1  and  S_2
REMARK    2  A    between atoms: S_2  and  C_3
REMARK    3  A    between atoms: C_6  and  C_7
REMARK    4  A    between atoms: C_7  and  C_8
REMARK    5  A    between atoms: C_8  and  O_9
REMARK    6  A    between atoms: O_9  and  C_10
REMARK    7  A    between atoms: C_10  and  C_11
REMARK    8  A    between atoms: C_11  and  O_12
REMARK    9  A    between atoms: O_12  and  C_13
REMARK   10  A    between atoms: C_16  and  O_17
REMARK   11  A    between atoms: O_17  and  C_18
REMARK   12  A    between atoms: C_18  and  C_19
REMARK   13  A    between atoms: C_19  and  O_20
REMARK   14  A    between atoms: C_19  and  C_21
REMARK   15  A    between atoms: C_21  and  N_22
REMARK   16  A    between atoms: N_22  and  C_23
REMARK   17  A    between atoms: C_23  and  C_24
REMARK   18  A    between atoms: C_23  and  C_25
REMARK                            x       y       z     vdW  Elec       q    Type
REMARK                         _______ _______ _______ _____ _____    ______ ____
ROOT
ATOM      1  C   UNL     1       2.050   6.143  20.007  0.00  0.00    +0.000 A 
ATOM      2  C   UNL     1       1.480   6.867  21.048  0.00  0.00    +0.000 A 
ATOM      3  C   UNL     1       1.238   8.228  20.903  0.00  0.00    +0.000 A 
ATOM      4  C   UNL     1       1.580   8.892  19.725  0.00  0.00    +0.000 A 
ATOM      5  C   UNL     1       2.153   8.169  18.677  0.00  0.00    +0.000 A 
ATOM      6  C   UNL     1       2.391   6.788  18.818  0.00  0.00    +0.000 A 
ENDROOT
BRANCH   1   7
ATOM      7  O   UNL     1       2.269   4.833  20.301  0.00  0.00    +0.000 OA
BRANCH   7   8
ATOM      8  C   UNL     1       1.193   4.152  20.934  0.00  0.00    +0.000 C 
BRANCH   8   9
ATOM      9  C   UNL     1       1.534   2.669  20.912  0.00  0.00    +0.000 C 
BRANCH   9  10
ATOM     10  O   UNL     1       2.661   2.432  20.068  0.00  0.00    +0.000 OA
BRANCH  10  11
ATOM     11  C   UNL     1       2.230   2.092  18.748  0.00  0.00    +0.000 C 
BRANCH  11  12
ATOM     12  C   UNL     1       3.444   1.952  17.834  0.00  0.00    +0.000 C 
BRANCH  12  16
ATOM     13  C   UNL     1       5.747   5.612  17.565  0.00  0.00    +0.000 A 
ATOM     14  C   UNL     1       4.936   5.195  16.502  0.00  0.00    +0.000 A 
ATOM     15  C   UNL     1       4.180   4.023  16.593  0.00  0.00    +0.000 A 
ATOM     16  C   UNL     1       4.223   3.240  17.752  0.00  0.00    +0.000 A 
ATOM     17  C   UNL     1       5.043   3.647  18.810  0.00  0.00    +0.000 A 
ATOM     18  C   UNL     1       5.799   4.821  18.715  0.00  0.00    +0.000 A 
BRANCH  13  20
ATOM     19  C   UNL     1       8.051   6.885  18.545  0.00  0.00    +0.000 C 
ATOM     20  S   UNL     1       6.715   7.099  17.336  0.00  0.00    +0.000 S 
ENDBRANCH  13  20
ENDBRANCH  12  16
ENDBRANCH  11  12
ENDBRANCH  10  11
ENDBRANCH   9  10
ENDBRANCH   8   9
ENDBRANCH   7   8
ENDBRANCH   1   7
BRANCH   4  21
ATOM     21  O   UNL     1       1.399  10.242  19.523  0.00  0.00    +0.000 OA
BRANCH  21  22
ATOM     22  C   UNL     1       0.531  10.541  18.413  0.00  0.00    +0.000 C 
BRANCH  22  23
ATOM     23  C   UNL     1      -0.944  10.419  18.800  0.00  0.00    +0.000 C 
BRANCH  23  24
ATOM     24  O   UNL     1      -1.153  10.973  20.103  0.00  0.00    +0.000 OA
ATOM     25  H   UNL     1      -0.667  10.396  20.723  0.00  0.00    +0.000 HD
ENDBRANCH  23  24
BRANCH  23  26
ATOM     26  C   UNL     1      -1.863  11.115  17.786  0.00  0.00    +0.000 C 
BRANCH  26  27
ATOM     27  N   UNL     1      -1.994  10.340  16.548  0.00  0.00    +0.000 NA
ATOM     28  H   UNL     1      -2.287   9.387  16.772  0.00  0.00    +0.000 HD
BRANCH  27  29
ATOM     29  C   UNL     1      -2.939  10.924  15.590  0.00  0.00    +0.000 C 
ATOM     30  C   UNL     1      -3.108  10.064  14.335  0.00  0.00    +0.000 C 
ATOM     31  C   UNL     1      -4.292  11.073  16.290  0.00  0.00    +0.000 C 
ENDBRANCH  27  29
ENDBRANCH  26  27
ENDBRANCH  23  26
ENDBRANCH  22  23
ENDBRANCH  21  22
ENDBRANCH   4  21
TORSDOF 15
ENDMDL
MODEL 8
REMARK VINA RESULT:      -6.2      4.703      7.638
REMARK  Name = 
REMARK  18 active torsions:
REMARK  status: ('A' for Active; 'I' for Inactive)
REMARK    1  A    between atoms: C_1  and  S_2
REMARK    2  A    between atoms: S_2  and  C_3
REMARK    3  A    between atoms: C_6  and  C_7
REMARK    4  A    between atoms: C_7  and  C_8
REMARK    5  A    between atoms: C_8  and  O_9
REMARK    6  A    between atoms: O_9  and  C_10
REMARK    7  A    between atoms: C_10  and  C_11
REMARK    8  A    between atoms: C_11  and  O_12
REMARK    9  A    between atoms: O_12  and  C_13
REMARK   10  A    between atoms: C_16  and  O_17
REMARK   11  A    between atoms: O_17  and  C_18
REMARK   12  A    between atoms: C_18  and  C_19
REMARK   13  A    between atoms: C_19  and  O_20
REMARK   14  A    between atoms: C_19  and  C_21
REMARK   15  A    between atoms: C_21  and  N_22
REMARK   16  A    between atoms: N_22  and  C_23
REMARK   17  A    between atoms: C_23  and  C_24
REMARK   18  A    between atoms: C_23  and  C_25
REMARK                            x       y       z     vdW  Elec       q    Type
REMARK                         _______ _______ _______ _____ _____    ______ ____
ROOT
ATOM      1  C   UNL     1       5.046   3.887  18.136  0.00  0.00    +0.000 A 
ATOM      2  C   UNL     1       5.450   4.758  19.141  0.00  0.00    +0.000 A 
ATOM      3  C   UNL     1       6.246   5.855  18.836  0.00  0.00    +0.000 A 
ATOM      4  C   UNL     1       6.669   6.091  17.528  0.00  0.00    +0.000 A 
ATOM      5  C   UNL     1       6.265   5.219  16.515  0.00  0.00    +0.000 A 
ATOM      6  C   UNL     1       5.451   4.110  16.819  0.00  0.00    +0.000 A 
ENDROOT
BRANCH   1   7
ATOM      7  O   UNL     1       4.307   2.835  18.581  0.00  0.00    +0.000 OA
BRANCH   7   8
ATOM      8  C   UNL     1       3.304   2.362  17.691  0.00  0.00    +0.000 C 
BRANCH   8   9
ATOM      9  C   UNL     1       1.969   2.862  18.222  0.00  0.00    +0.000 C 
BRANCH   9  10
ATOM     10  O   UNL     1       1.969   2.854  19.649  0.00  0.00    +0.000 OA
BRANCH  10  11
ATOM     11  C   UNL     1       1.233   3.972  20.152  0.00  0.00    +0.000 C 
BRANCH  11  12
ATOM     12  C   UNL     1       2.194   4.973  20.786  0.00  0.00    +0.000 C 
BRANCH  12  16
ATOM     13  C   UNL     1       1.684   8.890  19.005  0.00  0.00    +0.000 A 
ATOM     14  C   UNL     1       1.282   8.644  20.324  0.00  0.00    +0.000 A 
ATOM     15  C   UNL     1       1.460   7.385  20.905  0.00  0.00    +0.000 A 
ATOM     16  C   UNL     1       2.043   6.344  20.176  0.00  0.00    +0.000 A 
ATOM     17  C   UNL     1       2.434   6.583  18.853  0.00  0.00    +0.000 A 
ATOM     18  C   UNL     1       2.253   7.845  18.274  0.00  0.00    +0.000 A 
BRANCH  13  20
ATOM     19  C   UNL     1      -0.055  11.075  19.307  0.00  0.00    +0.000 C 
ATOM     20  S   UNL     1       1.370  10.518  18.332  0.00  0.00    +0.000 S 
ENDBRANCH  13  20
ENDBRANCH  12  16
ENDBRANCH  11  12
ENDBRANCH  10  11
ENDBRANCH   9  10
ENDBRANCH   8   9
ENDBRANCH   7   8
ENDBRANCH   1   7
BRANCH   4  21
ATOM     21  O   UNL     1       7.483   7.138  17.159  0.00  0.00    +0.000 OA
BRANCH  21  22
ATOM     22  C   UNL     1       8.127   7.780  18.275  0.00  0.00    +0.000 C 
BRANCH  22  23
ATOM     23  C   UNL     1       8.470   9.239  17.968  0.00  0.00    +0.000 C 
BRANCH  23  24
ATOM     24  O   UNL     1       7.285   9.950  17.595  0.00  0.00    +0.000 OA
ATOM     25  H   UNL     1       7.138  10.615  18.294  0.00  0.00    +0.000 HD
ENDBRANCH  23  24
BRANCH  23  26
ATOM     26  C   UNL     1       9.140   9.936  19.161  0.00  0.00    +0.000 C 
BRANCH  26  27
ATOM     27  N   UNL     1       9.704  11.236  18.785  0.00  0.00    +0.000 NA
ATOM     28  H   UNL     1       9.025  11.972  18.984  0.00  0.00    +0.000 HD
BRANCH  27  29
ATOM     29  C   UNL     1      10.966  11.545  19.467  0.00  0.00    +0.000 C 
ATOM     30  C   UNL     1      11.742  12.671  18.781  0.00  0.00    +0.000 C 
ATOM     31  C   UNL     1      10.640  11.954  20.904  0.00  0.00    +0.000 C 
ENDBRANCH  27  29
ENDBRANCH  26  27
ENDBRANCH  23  26
ENDBRANCH  22  23
ENDBRANCH  21  22
ENDBRANCH   4  21
TORSDOF 15
ENDMDL
MODEL 9
REMARK VINA RESULT:      -6.1      6.279      9.848
REMARK  Name = 
REMARK  18 active torsions:
REMARK  status: ('A' for Active; 'I' for Inactive)
REMARK    1  A    between atoms: C_1  and  S_2
REMARK    2  A    between atoms: S_2  and  C_3
REMARK    3  A    between atoms: C_6  and  C_7
REMARK    4  A    between atoms: C_7  and  C_8
REMARK    5  A    between atoms: C_8  and  O_9
REMARK    6  A    between atoms: O_9  and  C_10
REMARK    7  A    between atoms: C_10  and  C_11
REMARK    8  A    between atoms: C_11  and  O_12
REMARK    9  A    between atoms: O_12  and  C_13
REMARK   10  A    between atoms: C_16  and  O_17
REMARK   11  A    between atoms: O_17  and  C_18
REMARK   12  A    between atoms: C_18  and  C_19
REMARK   13  A    between atoms: C_19  and  O_20
REMARK   14  A    between atoms: C_19  and  C_21
REMARK   15  A    between atoms: C_21  and  N_22
REMARK   16  A    between atoms: N_22  and  C_23
REMARK   17  A    between atoms: C_23  and  C_24
REMARK   18  A    between atoms: C_23  and  C_25
REMARK                            x       y       z     vdW  Elec       q    Type
REMARK                         _______ _______ _______ _____ _____    ______ ____
ROOT
ATOM      1  C   UNL     1       7.513   7.031  17.930  0.00  0.00    +0.000 A 
ATOM      2  C   UNL     1       7.727   5.765  18.464  0.00  0.00    +0.000 A 
ATOM      3  C   UNL     1       6.923   4.699  18.080  0.00  0.00    +0.000 A 
ATOM      4  C   UNL     1       5.879   4.882  17.173  0.00  0.00    +0.000 A 
ATOM      5  C   UNL     1       5.660   6.151  16.635  0.00  0.00    +0.000 A 
ATOM      6  C   UNL     1       6.479   7.233  17.016  0.00  0.00    +0.000 A 
ENDROOT
BRANCH   1   7
ATOM      7  O   UNL     1       8.344   7.987  18.425  0.00  0.00    +0.000 OA
BRANCH   7   8
ATOM      8  C   UNL     1       8.078   9.318  18.005  0.00  0.00    +0.000 C 
BRANCH   8   9
ATOM      9  C   UNL     1       9.303  10.148  18.360  0.00  0.00    +0.000 C 
BRANCH   9  10
ATOM     10  O   UNL     1       9.302  10.463  19.752  0.00  0.00    +0.000 OA
BRANCH  10  11
ATOM     11  C   UNL     1       9.344  11.879  19.940  0.00  0.00    +0.000 C 
BRANCH  11  12
ATOM     12  C   UNL     1       9.979  12.197  21.291  0.00  0.00    +0.000 C 
BRANCH  12  16
ATOM     13  C   UNL     1       7.041  13.212  24.309  0.00  0.00    +0.000 A 
ATOM     14  C   UNL     1       7.864  14.198  23.750  0.00  0.00    +0.000 A 
ATOM     15  C   UNL     1       8.803  13.874  22.765  0.00  0.00    +0.000 A 
ATOM     16  C   UNL     1       8.937  12.555  22.320  0.00  0.00    +0.000 A 
ATOM     17  C   UNL     1       8.125  11.566  22.887  0.00  0.00    +0.000 A 
ATOM     18  C   UNL     1       7.187  11.893  23.874  0.00  0.00    +0.000 A 
BRANCH  13  20
ATOM     19  C   UNL     1       6.358  15.450  25.863  0.00  0.00    +0.000 C 
ATOM     20  S   UNL     1       5.906  13.713  25.598  0.00  0.00    +0.000 S 
ENDBRANCH  13  20
ENDBRANCH  12  16
ENDBRANCH  11  12
ENDBRANCH  10  11
ENDBRANCH   9  10
ENDBRANCH   8   9
ENDBRANCH   7   8
ENDBRANCH   1   7
BRANCH   4  21
ATOM     21  O   UNL     1       5.024   3.880  16.772  0.00  0.00    +0.000 OA
BRANCH  21  22
ATOM     22  C   UNL     1       4.186   3.386  17.834  0.00  0.00    +0.000 C 
BRANCH  22  23
ATOM     23  C   UNL     1       2.782   3.044  17.332  0.00  0.00    +0.000 C 
BRANCH  23  24
ATOM     24  O   UNL     1       2.482   1.675  17.623  0.00  0.00    +0.000 OA
ATOM     25  H   UNL     1       3.008   1.445  18.413  0.00  0.00    +0.000 HD
ENDBRANCH  23  24
BRANCH  23  26
ATOM     26  C   UNL     1       1.712   3.953  17.953  0.00  0.00    +0.000 C 
BRANCH  26  27
ATOM     27  N   UNL     1       1.143   3.371  19.172  0.00  0.00    +0.000 NA
ATOM     28  H   UNL     1       1.097   2.355  19.075  0.00  0.00    +0.000 HD
BRANCH  27  29
ATOM     29  C   UNL     1       1.894   3.707  20.387  0.00  0.00    +0.000 C 
ATOM     30  C   UNL     1       1.707   5.166  20.807  0.00  0.00    +0.000 C 
ATOM     31  C   UNL     1       1.411   2.789  21.511  0.00  0.00    +0.000 C 
ENDBRANCH  27  29
ENDBRANCH  26  27
ENDBRANCH  23  26
ENDBRANCH  22  23
ENDBRANCH  21  22
ENDBRANCH   4  21
TORSDOF 15
ENDMDL
