MODEL 1
REMARK VINA RESULT:      -6.0      0.000      0.000
REMARK  Name = 
REMARK  7 active torsions:
REMARK  status: ('A' for Active; 'I' for Inactive)
REMARK    1  A    between atoms: C_1  and  C_2
REMARK    2  A    between atoms: C_2  and  C_3
REMARK    3  A    between atoms: C_6  and  C_7
REMARK    4  A    between atoms: C_6  and  C_9
REMARK    5  A    between atoms: C_7  and  N_8
REMARK    6  A    between atoms: C_9  and  C_10
REMARK    7  A    between atoms: C_10  and  O_12
REMARK                            x       y       z     vdW  Elec       q    Type
REMARK                         _______ _______ _______ _____ _____    ______ ____
ROOT
ATOM      1  C   UNL     1       2.084   4.006  17.839  0.00  0.00    +0.000 C 
ATOM      2  C   UNL     1       2.325   5.244  18.716  0.00  0.00    +0.000 C 
ATOM      3  C   UNL     1       3.243   6.263  18.028  0.00  0.00    +0.000 C 
ATOM      4  C   UNL     1       4.613   5.673  17.592  0.00  0.00    +0.000 C 
ATOM      5  C   UNL     1       4.331   4.423  16.719  0.00  0.00    +0.000 C 
ATOM      6  C   UNL     1       3.421   3.394  17.389  0.00  0.00    +0.000 C 
ENDROOT
BRANCH   1   8
ATOM      7  C   UNL     1       0.886   3.269  19.990  0.00  0.00    +0.000 C 
ATOM      8  C   UNL     1       1.230   2.934  18.545  0.00  0.00    +0.000 C 
ENDBRANCH   1   8
BRANCH   4   9
ATOM      9  C   UNL     1       5.387   6.695  16.705  0.00  0.00    +0.000 C 
BRANCH   9  10
ATOM     10  N   UNL     1       5.572   6.241  15.323  0.00  0.00    +0.000 NA
ATOM     11  H   UNL     1       5.098   5.341  15.214  0.00  0.00    +0.000 HD
ATOM     12  H   UNL     1       6.563   6.006  15.199  0.00  0.00    +0.000 HD
ENDBRANCH   9  10
ENDBRANCH   4   9
BRANCH   4  13
ATOM     13  C   UNL     1       5.440   5.319  18.860  0.00  0.00    +0.000 C 
BRANCH  13  14
ATOM     14  C   UNL     1       6.937   5.313  18.649  0.00  0.00    +0.000 C 
ATOM     15  O   UNL     1       7.682   6.216  18.991  0.00  0.00    +0.000 OA
BRANCH  14  16
ATOM     16  O   UNL     1       7.384   4.191  18.041  0.00  0.00    +0.000 OA
ATOM     17  H   UNL     1       7.602   4.347  17.090  0.00  0.00    +0.000 HD
ENDBRANCH  14  16
ENDBRANCH  13  14
ENDBRANCH   4  13
TORSDOF 6
ENDMDL
MODEL 2
REMARK VINA RESULT:      -5.9      1.101      1.197
REMARK  Name = 
REMARK  7 active torsions:
REMARK  status: ('A' for Active; 'I' for Inactive)
REMARK    1  A    between atoms: C_1  and  C_2
REMARK    2  A    between atoms: C_2  and  C_3
REMARK    3  A    between atoms: C_6  and  C_7
REMARK    4  A    between atoms: C_6  and  C_9
REMARK    5  A    between atoms: C_7  and  N_8
REMARK    6  A    between atoms: C_9  and  C_10
REMARK    7  A    between atoms: C_10  and  O_12
REMARK                            x       y       z     vdW  Elec       q    Type
REMARK                         _______ _______ _______ _____ _____    ______ ____
ROOT
ATOM      1  C   UNL     1       2.173   4.564  18.612  0.00  0.00    +0.000 C 
ATOM      2  C   UNL     1       3.115   5.745  18.887  0.00  0.00    +0.000 C 
ATOM      3  C   UNL     1       3.950   6.111  17.653  0.00  0.00    +0.000 C 
ATOM      4  C   UNL     1       4.775   4.923  17.083  0.00  0.00    +0.000 C 
ATOM      5  C   UNL     1       3.794   3.749  16.828  0.00  0.00    +0.000 C 
ATOM      6  C   UNL     1       2.957   3.367  18.048  0.00  0.00    +0.000 C 
ENDROOT
BRANCH   1   8
ATOM      7  C   UNL     1       2.080   4.452  21.178  0.00  0.00    +0.000 C 
ATOM      8  C   UNL     1       1.385   4.128  19.863  0.00  0.00    +0.000 C 
ENDBRANCH   1   8
BRANCH   4   9
ATOM      9  C   UNL     1       5.406   5.309  15.712  0.00  0.00    +0.000 C 
BRANCH   9  10
ATOM     10  N   UNL     1       5.303   6.739  15.406  0.00  0.00    +0.000 NA
ATOM     11  H   UNL     1       6.250   7.113  15.296  0.00  0.00    +0.000 HD
ATOM     12  H   UNL     1       4.954   7.216  16.244  0.00  0.00    +0.000 HD
ENDBRANCH   9  10
ENDBRANCH   4   9
BRANCH   4  13
ATOM     13  C   UNL     1       5.884   4.540  18.103  0.00  0.00    +0.000 C 
BRANCH  13  14
ATOM     14  C   UNL     1       7.257   5.072  17.762  0.00  0.00    +0.000 C 
ATOM     15  O   UNL     1       7.580   6.244  17.849  0.00  0.00    +0.000 OA
BRANCH  14  16
ATOM     16  O   UNL     1       8.113   4.110  17.350  0.00  0.00    +0.000 OA
ATOM     17  H   UNL     1       7.718   3.207  17.422  0.00  0.00    +0.000 HD
ENDBRANCH  14  16
ENDBRANCH  13  14
ENDBRANCH   4  13
TORSDOF 6
ENDMDL
MODEL 3
REMARK VINA RESULT:      -5.8      1.985      2.891
REMARK  Name = 
REMARK  7 active torsions:
REMARK  status: ('A' for Active; 'I' for Inactive)
REMARK    1  A    between atoms: C_1  and  C_2
REMARK    2  A    between atoms: C_2  and  C_3
REMARK    3  A    between atoms: C_6  and  C_7
REMARK    4  A    between atoms: C_6  and  C_9
REMARK    5  A    between atoms: C_7  and  N_8
REMARK    6  A    between atoms: C_9  and  C_10
REMARK    7  A    between atoms: C_10  and  O_12
REMARK                            x       y       z     vdW  Elec       q    Type
REMARK                         _______ _______ _______ _____ _____    ______ ____
ROOT
ATOM      1  C   UNL     1       3.009   4.537  18.043  0.00  0.00    +0.000 C 
ATOM      2  C   UNL     1       4.057   3.666  17.334  0.00  0.00    +0.000 C 
ATOM      3  C   UNL     1       5.480   4.205  17.536  0.00  0.00    +0.000 C 
ATOM      4  C   UNL     1       5.657   5.682  17.088  0.00  0.00    +0.000 C 
ATOM      5  C   UNL     1       4.578   6.527  17.815  0.00  0.00    +0.000 C 
ATOM      6  C   UNL     1       3.154   6.009  17.622  0.00  0.00    +0.000 C 
ENDROOT
BRANCH   1   8
ATOM      7  C   UNL     1       1.117   2.924  18.695  0.00  0.00    +0.000 C 
ATOM      8  C   UNL     1       1.566   4.059  17.785  0.00  0.00    +0.000 C 
ENDBRANCH   1   8
BRANCH   4   9
ATOM      9  C   UNL     1       7.049   6.222  17.534  0.00  0.00    +0.000 C 
BRANCH   9  10
ATOM     10  N   UNL     1       7.382   7.525  16.949  0.00  0.00    +0.000 NA
ATOM     11  H   UNL     1       6.509   8.020  16.749  0.00  0.00    +0.000 HD
ATOM     12  H   UNL     1       7.781   7.360  16.018  0.00  0.00    +0.000 HD
ENDBRANCH   9  10
ENDBRANCH   4   9
BRANCH   4  13
ATOM     13  C   UNL     1       5.512   5.765  15.542  0.00  0.00    +0.000 C 
BRANCH  13  14
ATOM     14  C   UNL     1       6.473   4.884  14.777  0.00  0.00    +0.000 C 
ATOM     15  O   UNL     1       6.214   3.753  14.398  0.00  0.00    +0.000 OA
BRANCH  14  16
ATOM     16  O   UNL     1       7.664   5.476  14.540  0.00  0.00    +0.000 OA
ATOM     17  H   UNL     1       8.360   4.821  14.286  0.00  0.00    +0.000 HD
ENDBRANCH  14  16
ENDBRANCH  13  14
ENDBRANCH   4  13
TORSDOF 6
ENDMDL
MODEL 4
REMARK VINA RESULT:      -5.8      3.530      4.926
REMARK  Name = 
REMARK  7 active torsions:
REMARK  status: ('A' for Active; 'I' for Inactive)
REMARK    1  A    between atoms: C_1  and  C_2
REMARK    2  A    between atoms: C_2  and  C_3
REMARK    3  A    between atoms: C_6  and  C_7
REMARK    4  A    between atoms: C_6  and  C_9
REMARK    5  A    between atoms: C_7  and  N_8
REMARK    6  A    between atoms: C_9  and  C_10
REMARK    7  A    between atoms: C_10  and  O_12
REMARK                            x       y       z     vdW  Elec       q    Type
REMARK                         _______ _______ _______ _____ _____    ______ ____
ROOT
ATOM      1  C   UNL     1       3.636   6.023  17.711  0.00  0.00    +0.000 C 
ATOM      2  C   UNL     1       4.510   5.654  18.918  0.00  0.00    +0.000 C 
ATOM      3  C   UNL     1       4.561   4.137  19.145  0.00  0.00    +0.000 C 
ATOM      4  C   UNL     1       3.160   3.484  19.310  0.00  0.00    +0.000 C 
ATOM      5  C   UNL     1       2.305   3.887  18.080  0.00  0.00    +0.000 C 
ATOM      6  C   UNL     1       2.239   5.395  17.841  0.00  0.00    +0.000 C 
ENDROOT
BRANCH   1   8
ATOM      7  C   UNL     1       2.181   8.124  17.992  0.00  0.00    +0.000 C 
ATOM      8  C   UNL     1       3.507   7.548  17.516  0.00  0.00    +0.000 C 
ENDBRANCH   1   8
BRANCH   4   9
ATOM      9  C   UNL     1       3.281   1.930  19.303  0.00  0.00    +0.000 C 
BRANCH   9  10
ATOM     10  N   UNL     1       4.082   1.414  18.189  0.00  0.00    +0.000 NA
ATOM     11  H   UNL     1       3.582   0.625  17.771  0.00  0.00    +0.000 HD
ATOM     12  H   UNL     1       4.926   0.981  18.581  0.00  0.00    +0.000 HD
ENDBRANCH   9  10
ENDBRANCH   4   9
BRANCH   4  13
ATOM     13  C   UNL     1       2.526   3.974  20.642  0.00  0.00    +0.000 C 
BRANCH  13  14
ATOM     14  C   UNL     1       1.439   3.074  21.185  0.00  0.00    +0.000 C 
ATOM     15  O   UNL     1       1.556   2.383  22.183  0.00  0.00    +0.000 OA
BRANCH  14  16
ATOM     16  O   UNL     1       0.302   3.111  20.454  0.00  0.00    +0.000 OA
ATOM     17  H   UNL     1       0.243   2.355  19.822  0.00  0.00    +0.000 HD
ENDBRANCH  14  16
ENDBRANCH  13  14
ENDBRANCH   4  13
TORSDOF 6
ENDMDL
MODEL 5
REMARK VINA RESULT:      -5.8      0.576      1.076
REMARK  Name = 
REMARK  7 active torsions:
REMARK  status: ('A' for Active; 'I' for Inactive)
REMARK    1  A    between atoms: C_1  and  C_2
REMARK    2  A    between atoms: C_2  and  C_3
REMARK    3  A    between atoms: C_6  and  C_7
REMARK    4  A    between atoms: C_6  and  C_9
REMARK    5  A    between atoms: C_7  and  N_8
REMARK    6  A    between atoms: C_9  and  C_10
REMARK    7  A    between atoms: C_10  and  O_12
REMARK                            x       y       z     vdW  Elec       q    Type
REMARK                         _______ _______ _______ _____ _____    ______ ____
ROOT
ATOM      1  C   UNL     1       2.286   4.435  17.892  0.00  0.00    +0.000 C 
ATOM      2  C   UNL     1       2.666   5.690  18.691  0.00  0.00    +0.000 C 
ATOM      3  C   UNL     1       3.704   6.546  17.952  0.00  0.00    +0.000 C 
ATOM      4  C   UNL     1       4.997   5.771  17.575  0.00  0.00    +0.000 C 
ATOM      5  C   UNL     1       4.573   4.508  16.780  0.00  0.00    +0.000 C 
ATOM      6  C   UNL     1       3.544   3.640  17.503  0.00  0.00    +0.000 C 
ENDROOT
BRANCH   1   8
ATOM      7  C   UNL     1       1.803   2.093  18.836  0.00  0.00    +0.000 C 
ATOM      8  C   UNL     1       1.306   3.520  18.654  0.00  0.00    +0.000 C 
ENDBRANCH   1   8
BRANCH   4   9
ATOM      9  C   UNL     1       5.892   6.633  16.635  0.00  0.00    +0.000 C 
BRANCH   9  10
ATOM     10  N   UNL     1       6.004   6.088  15.278  0.00  0.00    +0.000 NA
ATOM     11  H   UNL     1       6.882   5.567  15.213  0.00  0.00    +0.000 HD
ATOM     12  H   UNL     1       6.144   6.874  14.634  0.00  0.00    +0.000 HD
ENDBRANCH   9  10
ENDBRANCH   4   9
BRANCH   4  13
ATOM     13  C   UNL     1       5.767   5.406  18.875  0.00  0.00    +0.000 C 
BRANCH  13  14
ATOM     14  C   UNL     1       7.262   5.263  18.697  0.00  0.00    +0.000 C 
ATOM     15  O   UNL     1       7.793   4.380  18.045  0.00  0.00    +0.000 OA
BRANCH  14  16
ATOM     16  O   UNL     1       7.968   6.225  19.332  0.00  0.00    +0.000 OA
ATOM     17  H   UNL     1       7.612   6.412  20.234  0.00  0.00    +0.000 HD
ENDBRANCH  14  16
ENDBRANCH  13  14
ENDBRANCH   4  13
TORSDOF 6
ENDMDL
MODEL 6
REMARK VINA RESULT:      -5.7      2.042      2.653
REMARK  Name = 
REMARK  7 active torsions:
REMARK  status: ('A' for Active; 'I' for Inactive)
REMARK    1  A    between atoms: C_1  and  C_2
REMARK    2  A    between atoms: C_2  and  C_3
REMARK    3  A    between atoms: C_6  and  C_7
REMARK    4  A    between atoms: C_6  and  C_9
REMARK    5  A    between atoms: C_7  and  N_8
REMARK    6  A    between atoms: C_9  and  C_10
REMARK    7  A    between atoms: C_10  and  O_12
REMARK                            x       y       z     vdW  Elec       q    Type
REMARK                         _______ _______ _______ _____ _____    ______ ____
ROOT
ATOM      1  C   UNL     1       2.607   3.139  18.787  0.00  0.00    +0.000 C 
ATOM      2  C   UNL     1       2.630   3.623  17.330  0.00  0.00    +0.000 C 
ATOM      3  C   UNL     1       4.051   3.623  16.749  0.00  0.00    +0.000 C 
ATOM      4  C   UNL     1       5.065   4.457  17.581  0.00  0.00    +0.000 C 
ATOM      5  C   UNL     1       5.005   3.947  19.044  0.00  0.00    +0.000 C 
ATOM      6  C   UNL     1       3.599   3.945  19.641  0.00  0.00    +0.000 C 
ENDROOT
BRANCH   1   8
ATOM      7  C   UNL     1       1.040   4.307  20.457  0.00  0.00    +0.000 C 
ATOM      8  C   UNL     1       1.200   3.209  19.414  0.00  0.00    +0.000 C 
ENDBRANCH   1   8
BRANCH   4   9
ATOM      9  C   UNL     1       6.515   4.221  17.064  0.00  0.00    +0.000 C 
BRANCH   9  10
ATOM     10  N   UNL     1       7.537   4.383  18.104  0.00  0.00    +0.000 NA
ATOM     11  H   UNL     1       8.416   3.995  17.753  0.00  0.00    +0.000 HD
ATOM     12  H   UNL     1       7.295   3.759  18.882  0.00  0.00    +0.000 HD
ENDBRANCH   9  10
ENDBRANCH   4   9
BRANCH   4  13
ATOM     13  C   UNL     1       4.689   5.963  17.476  0.00  0.00    +0.000 C 
BRANCH  13  14
ATOM     14  C   UNL     1       5.456   6.726  16.420  0.00  0.00    +0.000 C 
ATOM     15  O   UNL     1       5.121   6.801  15.250  0.00  0.00    +0.000 OA
BRANCH  14  16
ATOM     16  O   UNL     1       6.562   7.335  16.901  0.00  0.00    +0.000 OA
ATOM     17  H   UNL     1       7.210   7.545  16.186  0.00  0.00    +0.000 HD
ENDBRANCH  14  16
ENDBRANCH  13  14
ENDBRANCH   4  13
TORSDOF 6
ENDMDL
MODEL 7
REMARK VINA RESULT:      -5.7      1.966      2.713
REMARK  Name = 
REMARK  7 active torsions:
REMARK  status: ('A' for Active; 'I' for Inactive)
REMARK    1  A    between atoms: C_1  and  C_2
REMARK    2  A    between atoms: C_2  and  C_3
REMARK    3  A    between atoms: C_6  and  C_7
REMARK    4  A    between atoms: C_6  and  C_9
REMARK    5  A    between atoms: C_7  and  N_8
REMARK    6  A    between atoms: C_9  and  C_10
REMARK    7  A    between atoms: C_10  and  O_12
REMARK                            x       y       z     vdW  Elec       q    Type
REMARK                         _______ _______ _______ _____ _____    ______ ____
ROOT
ATOM      1  C   UNL     1       3.683   5.150  18.661  0.00  0.00    +0.000 C 
ATOM      2  C   UNL     1       4.865   4.442  19.340  0.00  0.00    +0.000 C 
ATOM      3  C   UNL     1       6.133   5.305  19.328  0.00  0.00    +0.000 C 
ATOM      4  C   UNL     1       6.562   5.763  17.906  0.00  0.00    +0.000 C 
ATOM      5  C   UNL     1       5.344   6.463  17.250  0.00  0.00    +0.000 C 
ATOM      6  C   UNL     1       4.072   5.617  17.248  0.00  0.00    +0.000 C 
ENDROOT
BRANCH   1   8
ATOM      7  C   UNL     1       1.560   4.315  19.846  0.00  0.00    +0.000 C 
ATOM      8  C   UNL     1       2.421   4.267  18.591  0.00  0.00    +0.000 C 
ENDBRANCH   1   8
BRANCH   4   9
ATOM      9  C   UNL     1       7.710   6.814  17.998  0.00  0.00    +0.000 C 
BRANCH   9  10
ATOM     10  N   UNL     1       7.522   7.959  17.100  0.00  0.00    +0.000 NA
ATOM     11  H   UNL     1       8.428   8.417  16.972  0.00  0.00    +0.000 HD
ATOM     12  H   UNL     1       6.966   8.662  17.599  0.00  0.00    +0.000 HD
ENDBRANCH   9  10
ENDBRANCH   4   9
BRANCH   4  13
ATOM     13  C   UNL     1       7.025   4.522  17.092  0.00  0.00    +0.000 C 
BRANCH  13  14
ATOM     14  C   UNL     1       7.009   4.718  15.593  0.00  0.00    +0.000 C 
ATOM     15  O   UNL     1       7.710   5.520  14.998  0.00  0.00    +0.000 OA
BRANCH  14  16
ATOM     16  O   UNL     1       6.137   3.902  14.959  0.00  0.00    +0.000 OA
ATOM     17  H   UNL     1       6.429   2.959  14.980  0.00  0.00    +0.000 HD
ENDBRANCH  14  16
ENDBRANCH  13  14
ENDBRANCH   4  13
TORSDOF 6
ENDMDL
MODEL 8
REMARK VINA RESULT:      -5.7      2.060      2.801
REMARK  Name = 
REMARK  7 active torsions:
REMARK  status: ('A' for Active; 'I' for Inactive)
REMARK    1  A    between atoms: C_1  and  C_2
REMARK    2  A    between atoms: C_2  and  C_3
REMARK    3  A    between atoms: C_6  and  C_7
REMARK    4  A    between atoms: C_6  and  C_9
REMARK    5  A    between atoms: C_7  and  N_8
REMARK    6  A    between atoms: C_9  and  C_10
REMARK    7  A    between atoms: C_10  and  O_12
REMARK                            x       y       z     vdW  Elec       q    Type
REMARK                         _______ _______ _______ _____ _____    ______ ____
ROOT
ATOM      1  C   UNL     1       2.834   4.179  18.168  0.00  0.00    +0.000 C 
ATOM      2  C   UNL     1       3.856   3.293  17.440  0.00  0.00    +0.000 C 
ATOM      3  C   UNL     1       5.296   3.768  17.676  0.00  0.00    +0.000 C 
ATOM      4  C   UNL     1       5.536   5.252  17.282  0.00  0.00    +0.000 C 
ATOM      5  C   UNL     1       4.482   6.113  18.027  0.00  0.00    +0.000 C 
ATOM      6  C   UNL     1       3.041   5.658  17.800  0.00  0.00    +0.000 C 
ENDROOT
BRANCH   1   8
ATOM      7  C   UNL     1       0.844   2.680  18.801  0.00  0.00    +0.000 C 
ATOM      8  C   UNL     1       1.377   3.767  17.878  0.00  0.00    +0.000 C 
ENDBRANCH   1   8
BRANCH   4   9
ATOM      9  C   UNL     1       6.942   5.721  17.762  0.00  0.00    +0.000 C 
BRANCH   9  10
ATOM     10  N   UNL     1       7.846   4.612  18.084  0.00  0.00    +0.000 NA
ATOM     11  H   UNL     1       7.450   3.752  17.695  0.00  0.00    +0.000 HD
ATOM     12  H   UNL     1       7.805   4.456  19.097  0.00  0.00    +0.000 HD
ENDBRANCH   9  10
ENDBRANCH   4   9
BRANCH   4  13
ATOM     13  C   UNL     1       5.413   5.393  15.738  0.00  0.00    +0.000 C 
BRANCH  13  14
ATOM     14  C   UNL     1       6.549   4.767  14.962  0.00  0.00    +0.000 C 
ATOM     15  O   UNL     1       7.636   5.293  14.791  0.00  0.00    +0.000 OA
BRANCH  14  16
ATOM     16  O   UNL     1       6.247   3.544  14.470  0.00  0.00    +0.000 OA
ATOM     17  H   UNL     1       5.331   3.263  14.712  0.00  0.00    +0.000 HD
ENDBRANCH  14  16
ENDBRANCH  13  14
ENDBRANCH   4  13
TORSDOF 6
ENDMDL
MODEL 9
REMARK VINA RESULT:      -5.7      3.370      5.120
REMARK  Name = 
REMARK  7 active torsions:
REMARK  status: ('A' for Active; 'I' for Inactive)
REMARK    1  A    between atoms: C_1  and  C_2
REMARK    2  A    between atoms: C_2  and  C_3
REMARK    3  A    between atoms: C_6  and  C_7
REMARK    4  A    between atoms: C_6  and  C_9
REMARK    5  A    between atoms: C_7  and  N_8
REMARK    6  A    between atoms: C_9  and  C_10
REMARK    7  A    between atoms: C_10  and  O_12
REMARK                            x       y       z     vdW  Elec       q    Type
REMARK                         _______ _______ _______ _____ _____    ______ ____
ROOT
ATOM      1  C   UNL     1       5.101   5.437  17.607  0.00  0.00    +0.000 C 
ATOM      2  C   UNL     1       5.474   4.772  18.941  0.00  0.00    +0.000 C 
ATOM      3  C   UNL     1       4.862   3.371  19.072  0.00  0.00    +0.000 C 
ATOM      4  C   UNL     1       3.317   3.346  18.904  0.00  0.00    +0.000 C 
ATOM      5  C   UNL     1       2.980   4.033  17.555  0.00  0.00    +0.000 C 
ATOM      6  C   UNL     1       3.577   5.432  17.407  0.00  0.00    +0.000 C 
ENDROOT
BRANCH   1   8
ATOM      7  C   UNL     1       7.158   6.971  17.447  0.00  0.00    +0.000 C 
ATOM      8  C   UNL     1       5.639   6.877  17.490  0.00  0.00    +0.000 C 
ENDBRANCH   1   8
BRANCH   4   9
ATOM      9  C   UNL     1       2.804   1.878  18.820  0.00  0.00    +0.000 C 
BRANCH   9  10
ATOM     10  N   UNL     1       3.847   0.917  18.447  0.00  0.00    +0.000 NA
ATOM     11  H   UNL     1       4.701   1.439  18.229  0.00  0.00    +0.000 HD
ATOM     12  H   UNL     1       3.586   0.501  17.547  0.00  0.00    +0.000 HD
ENDBRANCH   9  10
ENDBRANCH   4   9
BRANCH   4  13
ATOM     13  C   UNL     1       2.664   4.083  20.108  0.00  0.00    +0.000 C 
BRANCH  13  14
ATOM     14  C   UNL     1       2.068   3.166  21.152  0.00  0.00    +0.000 C 
ATOM     15  O   UNL     1       2.712   2.620  22.032  0.00  0.00    +0.000 OA
BRANCH  14  16
ATOM     16  O   UNL     1       0.732   3.010  21.023  0.00  0.00    +0.000 OA
ATOM     17  H   UNL     1       0.229   3.598  21.639  0.00  0.00    +0.000 HD
ENDBRANCH  14  16
ENDBRANCH  13  14
ENDBRANCH   4  13
TORSDOF 6
ENDMDL
