MODEL 1
REMARK VINA RESULT:      -6.1      0.000      0.000
REMARK  Name = 
REMARK  19 active torsions:
REMARK  status: ('A' for Active; 'I' for Inactive)
REMARK    1  A    between atoms: C_1  and  C_2
REMARK    2  A    between atoms: C_2  and  C_3
REMARK    3  A    between atoms: C_3  and  C_4
REMARK    4  A    between atoms: C_4  and  C_5
REMARK    5  A    between atoms: C_5  and  C_6
REMARK    6  A    between atoms: C_6  and  C_7
REMARK    7  A    between atoms: C_7  and  C_8
REMARK    8  A    between atoms: C_8  and  C_9
REMARK    9  A    between atoms: C_9  and  C_10
REMARK   10  A    between atoms: C_10  and  C_11
REMARK   11  A    between atoms: C_11  and  C_12
REMARK   12  A    between atoms: C_12  and  C_13
REMARK   13  A    between atoms: C_13  and  C_14
REMARK   14  A    between atoms: C_15  and  O_16
REMARK   15  A    between atoms: C_17  and  O_18
REMARK   16  A    between atoms: O_18  and  C_19
REMARK   17  A    between atoms: C_21  and  O_22
REMARK   18  A    between atoms: C_23  and  O_24
REMARK   19  A    between atoms: O_24  and  C_25
REMARK                            x       y       z     vdW  Elec       q    Type
REMARK                         _______ _______ _______ _____ _____    ______ ____
ROOT
ATOM      1  C   UNL     1       2.833   4.851  18.044  0.00  0.00    +0.000 A 
ATOM      2  C   UNL     1       2.878   6.203  18.510  0.00  0.00    +0.000 A 
ATOM      3  C   UNL     1       2.244   6.601  19.698  0.00  0.00    +0.000 A 
ATOM      4  C   UNL     1       1.513   5.658  20.411  0.00  0.00    +0.000 A 
ATOM      5  C   UNL     1       1.456   4.339  19.975  0.00  0.00    +0.000 A 
ATOM      6  C   UNL     1       2.117   3.904  18.808  0.00  0.00    +0.000 A 
ENDROOT
BRANCH   6   7
ATOM      7  O   UNL     1       2.032   2.547  18.664  0.00  0.00    +0.000 OA
ATOM      8  C   UNL     1       3.061   1.636  18.980  0.00  0.00    +0.000 C 
ENDBRANCH   6   7
BRANCH   5   9
ATOM      9  O   UNL     1       0.740   3.423  20.709  0.00  0.00    +0.000 OA
ATOM     10  H   UNL     1       1.037   2.531  20.475  0.00  0.00    +0.000 HD
ENDBRANCH   5   9
BRANCH   3  11
ATOM     11  O   UNL     1       2.224   7.834  20.292  0.00  0.00    +0.000 OA
ATOM     12  C   UNL     1       1.219   8.118  21.255  0.00  0.00    +0.000 C 
ENDBRANCH   3  11
BRANCH   2  13
ATOM     13  O   UNL     1       3.581   7.154  17.811  0.00  0.00    +0.000 OA
ATOM     14  H   UNL     1       3.913   7.843  18.405  0.00  0.00    +0.000 HD
ENDBRANCH   2  13
BRANCH   1  15
ATOM     15  C   UNL     1       3.588   4.504  16.781  0.00  0.00    +0.000 C 
BRANCH  15  16
ATOM     16  C   UNL     1       4.895   3.748  17.079  0.00  0.00    +0.000 C 
BRANCH  16  17
ATOM     17  C   UNL     1       5.894   3.803  15.925  0.00  0.00    +0.000 C 
BRANCH  17  18
ATOM     18  C   UNL     1       7.056   4.758  16.193  0.00  0.00    +0.000 C 
BRANCH  18  19
ATOM     19  C   UNL     1       7.469   4.805  17.659  0.00  0.00    +0.000 C 
BRANCH  19  20
ATOM     20  C   UNL     1       7.098   6.121  18.341  0.00  0.00    +0.000 C 
BRANCH  20  21
ATOM     21  C   UNL     1       7.548   7.296  17.484  0.00  0.00    +0.000 C 
BRANCH  21  22
ATOM     22  C   UNL     1       8.446   8.252  18.262  0.00  0.00    +0.000 C 
BRANCH  22  23
ATOM     23  C   UNL     1       8.068   9.691  17.928  0.00  0.00    +0.000 C 
BRANCH  23  24
ATOM     24  C   UNL     1       9.165  10.671  18.327  0.00  0.00    +0.000 C 
BRANCH  24  25
ATOM     25  C   UNL     1       9.465  10.541  19.818  0.00  0.00    +0.000 C 
BRANCH  25  27
ATOM     26  C   UNL     1       9.437  13.033  19.519  0.00  0.00    +0.000 C 
ATOM     27  C   UNL     1       9.832  11.890  20.436  0.00  0.00    +0.000 C 
ENDBRANCH  25  27
ENDBRANCH  24  25
ENDBRANCH  23  24
ENDBRANCH  22  23
ENDBRANCH  21  22
ENDBRANCH  20  21
ENDBRANCH  19  20
ENDBRANCH  18  19
ENDBRANCH  17  18
ENDBRANCH  16  17
ENDBRANCH  15  16
ENDBRANCH   1  15
TORSDOF 16
ENDMDL
MODEL 2
REMARK VINA RESULT:      -6.1      2.475      6.427
REMARK  Name = 
REMARK  19 active torsions:
REMARK  status: ('A' for Active; 'I' for Inactive)
REMARK    1  A    between atoms: C_1  and  C_2
REMARK    2  A    between atoms: C_2  and  C_3
REMARK    3  A    between atoms: C_3  and  C_4
REMARK    4  A    between atoms: C_4  and  C_5
REMARK    5  A    between atoms: C_5  and  C_6
REMARK    6  A    between atoms: C_6  and  C_7
REMARK    7  A    between atoms: C_7  and  C_8
REMARK    8  A    between atoms: C_8  and  C_9
REMARK    9  A    between atoms: C_9  and  C_10
REMARK   10  A    between atoms: C_10  and  C_11
REMARK   11  A    between atoms: C_11  and  C_12
REMARK   12  A    between atoms: C_12  and  C_13
REMARK   13  A    between atoms: C_13  and  C_14
REMARK   14  A    between atoms: C_15  and  O_16
REMARK   15  A    between atoms: C_17  and  O_18
REMARK   16  A    between atoms: O_18  and  C_19
REMARK   17  A    between atoms: C_21  and  O_22
REMARK   18  A    between atoms: C_23  and  O_24
REMARK   19  A    between atoms: O_24  and  C_25
REMARK                            x       y       z     vdW  Elec       q    Type
REMARK                         _______ _______ _______ _____ _____    ______ ____
ROOT
ATOM      1  C   UNL     1       5.674   5.682  17.595  0.00  0.00    +0.000 A 
ATOM      2  C   UNL     1       6.222   6.880  17.038  0.00  0.00    +0.000 A 
ATOM      3  C   UNL     1       7.377   7.483  17.561  0.00  0.00    +0.000 A 
ATOM      4  C   UNL     1       7.974   6.917  18.683  0.00  0.00    +0.000 A 
ATOM      5  C   UNL     1       7.456   5.753  19.240  0.00  0.00    +0.000 A 
ATOM      6  C   UNL     1       6.322   5.105  18.709  0.00  0.00    +0.000 A 
ENDROOT
BRANCH   6   7
ATOM      7  O   UNL     1       6.091   3.912  19.335  0.00  0.00    +0.000 OA
ATOM      8  C   UNL     1       4.916   3.585  20.042  0.00  0.00    +0.000 C 
ENDBRANCH   6   7
BRANCH   5   9
ATOM      9  O   UNL     1       8.076   5.206  20.339  0.00  0.00    +0.000 OA
ATOM     10  H   UNL     1       7.424   4.703  20.849  0.00  0.00    +0.000 HD
ENDBRANCH   5   9
BRANCH   3  11
ATOM     11  O   UNL     1       8.040   8.598  17.125  0.00  0.00    +0.000 OA
ATOM     12  C   UNL     1       8.419   9.588  18.072  0.00  0.00    +0.000 C 
ENDBRANCH   3  11
BRANCH   2  13
ATOM     13  O   UNL     1       5.639   7.464  15.940  0.00  0.00    +0.000 OA
ATOM     14  H   UNL     1       4.810   7.019  15.712  0.00  0.00    +0.000 HD
ENDBRANCH   2  13
BRANCH   1  15
ATOM     15  C   UNL     1       4.457   5.076  16.933  0.00  0.00    +0.000 C 
BRANCH  15  16
ATOM     16  C   UNL     1       4.781   3.741  16.240  0.00  0.00    +0.000 C 
BRANCH  16  17
ATOM     17  C   UNL     1       3.967   2.571  16.789  0.00  0.00    +0.000 C 
BRANCH  17  18
ATOM     18  C   UNL     1       2.602   2.999  17.326  0.00  0.00    +0.000 C 
BRANCH  18  19
ATOM     19  C   UNL     1       2.130   2.157  18.506  0.00  0.00    +0.000 C 
BRANCH  19  20
ATOM     20  C   UNL     1       0.631   2.290  18.771  0.00  0.00    +0.000 C 
BRANCH  20  21
ATOM     21  C   UNL     1       0.391   3.227  19.946  0.00  0.00    +0.000 C 
BRANCH  21  22
ATOM     22  C   UNL     1       1.439   3.043  21.038  0.00  0.00    +0.000 C 
BRANCH  22  23
ATOM     23  C   UNL     1       2.074   4.390  21.366  0.00  0.00    +0.000 C 
BRANCH  23  24
ATOM     24  C   UNL     1       1.442   5.523  20.567  0.00  0.00    +0.000 C 
BRANCH  24  25
ATOM     25  C   UNL     1       2.432   6.046  19.529  0.00  0.00    +0.000 C 
BRANCH  25  27
ATOM     26  C   UNL     1       2.372   7.969  17.917  0.00  0.00    +0.000 C 
ATOM     27  C   UNL     1       2.336   7.565  19.379  0.00  0.00    +0.000 C 
ENDBRANCH  25  27
ENDBRANCH  24  25
ENDBRANCH  23  24
ENDBRANCH  22  23
ENDBRANCH  21  22
ENDBRANCH  20  21
ENDBRANCH  19  20
ENDBRANCH  18  19
ENDBRANCH  17  18
ENDBRANCH  16  17
ENDBRANCH  15  16
ENDBRANCH   1  15
TORSDOF 16
ENDMDL
MODEL 3
REMARK VINA RESULT:      -6.1      2.522      6.485
REMARK  Name = 
REMARK  19 active torsions:
REMARK  status: ('A' for Active; 'I' for Inactive)
REMARK    1  A    between atoms: C_1  and  C_2
REMARK    2  A    between atoms: C_2  and  C_3
REMARK    3  A    between atoms: C_3  and  C_4
REMARK    4  A    between atoms: C_4  and  C_5
REMARK    5  A    between atoms: C_5  and  C_6
REMARK    6  A    between atoms: C_6  and  C_7
REMARK    7  A    between atoms: C_7  and  C_8
REMARK    8  A    between atoms: C_8  and  C_9
REMARK    9  A    between atoms: C_9  and  C_10
REMARK   10  A    between atoms: C_10  and  C_11
REMARK   11  A    between atoms: C_11  and  C_12
REMARK   12  A    between atoms: C_12  and  C_13
REMARK   13  A    between atoms: C_13  and  C_14
REMARK   14  A    between atoms: C_15  and  O_16
REMARK   15  A    between atoms: C_17  and  O_18
REMARK   16  A    between atoms: O_18  and  C_19
REMARK   17  A    between atoms: C_21  and  O_22
REMARK   18  A    between atoms: C_23  and  O_24
REMARK   19  A    between atoms: O_24  and  C_25
REMARK                            x       y       z     vdW  Elec       q    Type
REMARK                         _______ _______ _______ _____ _____    ______ ____
ROOT
ATOM      1  C   UNL     1       5.541   5.175  17.360  0.00  0.00    +0.000 A 
ATOM      2  C   UNL     1       6.038   6.376  16.762  0.00  0.00    +0.000 A 
ATOM      3  C   UNL     1       7.058   7.136  17.357  0.00  0.00    +0.000 A 
ATOM      4  C   UNL     1       7.562   6.728  18.586  0.00  0.00    +0.000 A 
ATOM      5  C   UNL     1       7.092   5.564  19.185  0.00  0.00    +0.000 A 
ATOM      6  C   UNL     1       6.098   4.761  18.590  0.00  0.00    +0.000 A 
ENDROOT
BRANCH   6   7
ATOM      7  O   UNL     1       5.906   3.604  19.292  0.00  0.00    +0.000 OA
ATOM      8  C   UNL     1       4.822   3.356  20.159  0.00  0.00    +0.000 C 
ENDBRANCH   6   7
BRANCH   5   9
ATOM      9  O   UNL     1       7.620   5.175  20.394  0.00  0.00    +0.000 OA
ATOM     10  H   UNL     1       7.999   4.288  20.300  0.00  0.00    +0.000 HD
ENDBRANCH   5   9
BRANCH   3  11
ATOM     11  O   UNL     1       7.661   8.276  16.898  0.00  0.00    +0.000 OA
ATOM     12  C   UNL     1       8.235   9.176  17.836  0.00  0.00    +0.000 C 
ENDBRANCH   3  11
BRANCH   2  13
ATOM     13  O   UNL     1       5.542   6.805  15.555  0.00  0.00    +0.000 OA
ATOM     14  H   UNL     1       4.591   6.636  15.492  0.00  0.00    +0.000 HD
ENDBRANCH   2  13
BRANCH   1  15
ATOM     15  C   UNL     1       4.478   4.394  16.622  0.00  0.00    +0.000 C 
BRANCH  15  16
ATOM     16  C   UNL     1       3.129   4.413  17.363  0.00  0.00    +0.000 C 
BRANCH  16  17
ATOM     17  C   UNL     1       2.436   3.052  17.376  0.00  0.00    +0.000 C 
BRANCH  17  18
ATOM     18  C   UNL     1       1.219   3.016  18.299  0.00  0.00    +0.000 C 
BRANCH  18  19
ATOM     19  C   UNL     1       1.578   3.164  19.773  0.00  0.00    +0.000 C 
BRANCH  19  20
ATOM     20  C   UNL     1       0.868   4.338  20.445  0.00  0.00    +0.000 C 
BRANCH  20  21
ATOM     21  C   UNL     1       1.878   5.415  20.816  0.00  0.00    +0.000 C 
BRANCH  21  22
ATOM     22  C   UNL     1       1.765   6.633  19.905  0.00  0.00    +0.000 C 
BRANCH  22  23
ATOM     23  C   UNL     1       1.801   7.903  20.748  0.00  0.00    +0.000 C 
BRANCH  23  24
ATOM     24  C   UNL     1       0.453   8.190  21.398  0.00  0.00    +0.000 C 
BRANCH  24  25
ATOM     25  C   UNL     1       0.397   9.643  21.864  0.00  0.00    +0.000 C 
BRANCH  25  27
ATOM     26  C   UNL     1      -1.217  11.187  23.010  0.00  0.00    +0.000 C 
ATOM     27  C   UNL     1      -0.565   9.818  23.040  0.00  0.00    +0.000 C 
ENDBRANCH  25  27
ENDBRANCH  24  25
ENDBRANCH  23  24
ENDBRANCH  22  23
ENDBRANCH  21  22
ENDBRANCH  20  21
ENDBRANCH  19  20
ENDBRANCH  18  19
ENDBRANCH  17  18
ENDBRANCH  16  17
ENDBRANCH  15  16
ENDBRANCH   1  15
TORSDOF 16
ENDMDL
MODEL 4
REMARK VINA RESULT:      -5.9      3.436      7.044
REMARK  Name = 
REMARK  19 active torsions:
REMARK  status: ('A' for Active; 'I' for Inactive)
REMARK    1  A    between atoms: C_1  and  C_2
REMARK    2  A    between atoms: C_2  and  C_3
REMARK    3  A    between atoms: C_3  and  C_4
REMARK    4  A    between atoms: C_4  and  C_5
REMARK    5  A    between atoms: C_5  and  C_6
REMARK    6  A    between atoms: C_6  and  C_7
REMARK    7  A    between atoms: C_7  and  C_8
REMARK    8  A    between atoms: C_8  and  C_9
REMARK    9  A    between atoms: C_9  and  C_10
REMARK   10  A    between atoms: C_10  and  C_11
REMARK   11  A    between atoms: C_11  and  C_12
REMARK   12  A    between atoms: C_12  and  C_13
REMARK   13  A    between atoms: C_13  and  C_14
REMARK   14  A    between atoms: C_15  and  O_16
REMARK   15  A    between atoms: C_17  and  O_18
REMARK   16  A    between atoms: O_18  and  C_19
REMARK   17  A    between atoms: C_21  and  O_22
REMARK   18  A    between atoms: C_23  and  O_24
REMARK   19  A    between atoms: O_24  and  C_25
REMARK                            x       y       z     vdW  Elec       q    Type
REMARK                         _______ _______ _______ _____ _____    ______ ____
ROOT
ATOM      1  C   UNL     1       3.252   5.416  18.209  0.00  0.00    +0.000 A 
ATOM      2  C   UNL     1       3.008   4.069  18.623  0.00  0.00    +0.000 A 
ATOM      3  C   UNL     1       2.310   3.768  19.804  0.00  0.00    +0.000 A 
ATOM      4  C   UNL     1       1.888   4.816  20.613  0.00  0.00    +0.000 A 
ATOM      5  C   UNL     1       2.115   6.133  20.229  0.00  0.00    +0.000 A 
ATOM      6  C   UNL     1       2.777   6.463  19.029  0.00  0.00    +0.000 A 
ENDROOT
BRANCH   6   7
ATOM      7  O   UNL     1       2.755   7.811  18.801  0.00  0.00    +0.000 OA
ATOM      8  C   UNL     1       2.620   8.414  17.533  0.00  0.00    +0.000 C 
ENDBRANCH   6   7
BRANCH   5   9
ATOM      9  O   UNL     1       1.671   7.151  21.040  0.00  0.00    +0.000 OA
ATOM     10  H   UNL     1       0.704   7.184  21.002  0.00  0.00    +0.000 HD
ENDBRANCH   5   9
BRANCH   3  11
ATOM     11  O   UNL     1       1.968   2.545  20.315  0.00  0.00    +0.000 OA
ATOM     12  C   UNL     1       2.148   2.304  21.703  0.00  0.00    +0.000 C 
ENDBRANCH   3  11
BRANCH   2  13
ATOM     13  O   UNL     1       3.432   3.017  17.846  0.00  0.00    +0.000 OA
ATOM     14  H   UNL     1       3.547   2.218  18.381  0.00  0.00    +0.000 HD
ENDBRANCH   2  13
BRANCH   1  15
ATOM     15  C   UNL     1       3.967   5.643  16.897  0.00  0.00    +0.000 C 
BRANCH  15  16
ATOM     16  C   UNL     1       5.446   6.013  17.102  0.00  0.00    +0.000 C 
BRANCH  16  17
ATOM     17  C   UNL     1       6.340   4.795  17.330  0.00  0.00    +0.000 C 
BRANCH  17  18
ATOM     18  C   UNL     1       7.150   4.415  16.091  0.00  0.00    +0.000 C 
BRANCH  18  19
ATOM     19  C   UNL     1       6.383   4.610  14.789  0.00  0.00    +0.000 C 
BRANCH  19  20
ATOM     20  C   UNL     1       7.299   4.771  13.576  0.00  0.00    +0.000 C 
BRANCH  20  21
ATOM     21  C   UNL     1       6.736   3.999  12.391  0.00  0.00    +0.000 C 
BRANCH  21  22
ATOM     22  C   UNL     1       5.243   3.735  12.548  0.00  0.00    +0.000 C 
BRANCH  22  23
ATOM     23  C   UNL     1       4.753   2.878  11.385  0.00  0.00    +0.000 C 
BRANCH  23  24
ATOM     24  C   UNL     1       3.234   2.895  11.270  0.00  0.00    +0.000 C 
BRANCH  24  25
ATOM     25  C   UNL     1       2.821   3.196   9.831  0.00  0.00    +0.000 C 
BRANCH  25  27
ATOM     26  C   UNL     1       1.869   5.182   8.627  0.00  0.00    +0.000 C 
ATOM     27  C   UNL     1       3.007   4.676   9.493  0.00  0.00    +0.000 C 
ENDBRANCH  25  27
ENDBRANCH  24  25
ENDBRANCH  23  24
ENDBRANCH  22  23
ENDBRANCH  21  22
ENDBRANCH  20  21
ENDBRANCH  19  20
ENDBRANCH  18  19
ENDBRANCH  17  18
ENDBRANCH  16  17
ENDBRANCH  15  16
ENDBRANCH   1  15
TORSDOF 16
ENDMDL
MODEL 5
REMARK VINA RESULT:      -5.8      3.355      6.532
REMARK  Name = 
REMARK  19 active torsions:
REMARK  status: ('A' for Active; 'I' for Inactive)
REMARK    1  A    between atoms: C_1  and  C_2
REMARK    2  A    between atoms: C_2  and  C_3
REMARK    3  A    between atoms: C_3  and  C_4
REMARK    4  A    between atoms: C_4  and  C_5
REMARK    5  A    between atoms: C_5  and  C_6
REMARK    6  A    between atoms: C_6  and  C_7
REMARK    7  A    between atoms: C_7  and  C_8
REMARK    8  A    between atoms: C_8  and  C_9
REMARK    9  A    between atoms: C_9  and  C_10
REMARK   10  A    between atoms: C_10  and  C_11
REMARK   11  A    between atoms: C_11  and  C_12
REMARK   12  A    between atoms: C_12  and  C_13
REMARK   13  A    between atoms: C_13  and  C_14
REMARK   14  A    between atoms: C_15  and  O_16
REMARK   15  A    between atoms: C_17  and  O_18
REMARK   16  A    between atoms: O_18  and  C_19
REMARK   17  A    between atoms: C_21  and  O_22
REMARK   18  A    between atoms: C_23  and  O_24
REMARK   19  A    between atoms: O_24  and  C_25
REMARK                            x       y       z     vdW  Elec       q    Type
REMARK                         _______ _______ _______ _____ _____    ______ ____
ROOT
ATOM      1  C   UNL     1       3.338   4.940  18.477  0.00  0.00    +0.000 A 
ATOM      2  C   UNL     1       2.958   6.312  18.610  0.00  0.00    +0.000 A 
ATOM      3  C   UNL     1       2.245   6.782  19.725  0.00  0.00    +0.000 A 
ATOM      4  C   UNL     1       1.860   5.871  20.701  0.00  0.00    +0.000 A 
ATOM      5  C   UNL     1       2.217   4.532  20.590  0.00  0.00    +0.000 A 
ATOM      6  C   UNL     1       2.968   4.042  19.503  0.00  0.00    +0.000 A 
ENDROOT
BRANCH   6   7
ATOM      7  O   UNL     1       3.316   2.732  19.687  0.00  0.00    +0.000 OA
ATOM      8  C   UNL     1       3.066   1.694  18.766  0.00  0.00    +0.000 C 
ENDBRANCH   6   7
BRANCH   5   9
ATOM      9  O   UNL     1       1.837   3.655  21.579  0.00  0.00    +0.000 OA
ATOM     10  H   UNL     1       1.018   3.977  21.986  0.00  0.00    +0.000 HD
ENDBRANCH   5   9
BRANCH   3  11
ATOM     11  O   UNL     1       1.843   8.058  20.015  0.00  0.00    +0.000 OA
ATOM     12  C   UNL     1       1.174   8.307  21.243  0.00  0.00    +0.000 C 
ENDBRANCH   3  11
BRANCH   2  13
ATOM     13  O   UNL     1       3.316   7.226  17.649  0.00  0.00    +0.000 OA
ATOM     14  H   UNL     1       3.118   8.128  17.940  0.00  0.00    +0.000 HD
ENDBRANCH   2  13
BRANCH   1  15
ATOM     15  C   UNL     1       4.149   4.535  17.267  0.00  0.00    +0.000 C 
BRANCH  15  16
ATOM     16  C   UNL     1       5.662   4.660  17.519  0.00  0.00    +0.000 C 
BRANCH  16  17
ATOM     17  C   UNL     1       6.296   5.834  16.775  0.00  0.00    +0.000 C 
BRANCH  17  18
ATOM     18  C   UNL     1       6.151   5.722  15.258  0.00  0.00    +0.000 C 
BRANCH  18  19
ATOM     19  C   UNL     1       7.217   4.842  14.616  0.00  0.00    +0.000 C 
BRANCH  19  20
ATOM     20  C   UNL     1       7.139   4.828  13.090  0.00  0.00    +0.000 C 
BRANCH  20  21
ATOM     21  C   UNL     1       6.673   3.464  12.603  0.00  0.00    +0.000 C 
BRANCH  21  22
ATOM     22  C   UNL     1       5.831   3.573  11.337  0.00  0.00    +0.000 C 
BRANCH  22  23
ATOM     23  C   UNL     1       4.822   2.430  11.297  0.00  0.00    +0.000 C 
BRANCH  23  24
ATOM     24  C   UNL     1       3.397   2.938  11.117  0.00  0.00    +0.000 C 
BRANCH  24  25
ATOM     25  C   UNL     1       3.405   4.251  10.337  0.00  0.00    +0.000 C 
BRANCH  25  27
ATOM     26  C   UNL     1       2.043   5.393   8.565  0.00  0.00    +0.000 C 
ATOM     27  C   UNL     1       2.721   4.100   8.978  0.00  0.00    +0.000 C 
ENDBRANCH  25  27
ENDBRANCH  24  25
ENDBRANCH  23  24
ENDBRANCH  22  23
ENDBRANCH  21  22
ENDBRANCH  20  21
ENDBRANCH  19  20
ENDBRANCH  18  19
ENDBRANCH  17  18
ENDBRANCH  16  17
ENDBRANCH  15  16
ENDBRANCH   1  15
TORSDOF 16
ENDMDL
MODEL 6
REMARK VINA RESULT:      -5.8      4.159      7.617
REMARK  Name = 
REMARK  19 active torsions:
REMARK  status: ('A' for Active; 'I' for Inactive)
REMARK    1  A    between atoms: C_1  and  C_2
REMARK    2  A    between atoms: C_2  and  C_3
REMARK    3  A    between atoms: C_3  and  C_4
REMARK    4  A    between atoms: C_4  and  C_5
REMARK    5  A    between atoms: C_5  and  C_6
REMARK    6  A    between atoms: C_6  and  C_7
REMARK    7  A    between atoms: C_7  and  C_8
REMARK    8  A    between atoms: C_8  and  C_9
REMARK    9  A    between atoms: C_9  and  C_10
REMARK   10  A    between atoms: C_10  and  C_11
REMARK   11  A    between atoms: C_11  and  C_12
REMARK   12  A    between atoms: C_12  and  C_13
REMARK   13  A    between atoms: C_13  and  C_14
REMARK   14  A    between atoms: C_15  and  O_16
REMARK   15  A    between atoms: C_17  and  O_18
REMARK   16  A    between atoms: O_18  and  C_19
REMARK   17  A    between atoms: C_21  and  O_22
REMARK   18  A    between atoms: C_23  and  O_24
REMARK   19  A    between atoms: O_24  and  C_25
REMARK                            x       y       z     vdW  Elec       q    Type
REMARK                         _______ _______ _______ _____ _____    ______ ____
ROOT
ATOM      1  C   UNL     1       0.988  10.991  18.985  0.00  0.00    +0.000 A 
ATOM      2  C   UNL     1       1.717  12.178  18.664  0.00  0.00    +0.000 A 
ATOM      3  C   UNL     1       1.822  13.253  19.561  0.00  0.00    +0.000 A 
ATOM      4  C   UNL     1       1.154  13.172  20.778  0.00  0.00    +0.000 A 
ATOM      5  C   UNL     1       0.438  12.027  21.109  0.00  0.00    +0.000 A 
ATOM      6  C   UNL     1       0.352  10.917  20.244  0.00  0.00    +0.000 A 
ENDROOT
BRANCH   6   7
ATOM      7  O   UNL     1      -0.281   9.864  20.844  0.00  0.00    +0.000 OA
ATOM      8  C   UNL     1       0.363   8.713  21.342  0.00  0.00    +0.000 C 
ENDBRANCH   6   7
BRANCH   5   9
ATOM      9  O   UNL     1      -0.199  11.966  22.326  0.00  0.00    +0.000 OA
ATOM     10  H   UNL     1      -0.699  11.138  22.378  0.00  0.00    +0.000 HD
ENDBRANCH   5   9
BRANCH   3  11
ATOM     11  O   UNL     1       2.505  14.431  19.420  0.00  0.00    +0.000 OA
ATOM     12  C   UNL     1       2.213  15.506  20.301  0.00  0.00    +0.000 C 
ENDBRANCH   3  11
BRANCH   2  13
ATOM     13  O   UNL     1       2.372  12.286  17.460  0.00  0.00    +0.000 OA
ATOM     14  H   UNL     1       2.959  11.530  17.318  0.00  0.00    +0.000 HD
ENDBRANCH   2  13
BRANCH   1  15
ATOM     15  C   UNL     1       0.974   9.864  17.977  0.00  0.00    +0.000 C 
BRANCH  15  16
ATOM     16  C   UNL     1       2.321   9.124  17.919  0.00  0.00    +0.000 C 
BRANCH  16  17
ATOM     17  C   UNL     1       2.167   7.613  17.754  0.00  0.00    +0.000 C 
BRANCH  17  18
ATOM     18  C   UNL     1       3.373   6.834  18.277  0.00  0.00    +0.000 C 
BRANCH  18  19
ATOM     19  C   UNL     1       4.472   6.659  17.236  0.00  0.00    +0.000 C 
BRANCH  19  20
ATOM     20  C   UNL     1       5.523   5.629  17.647  0.00  0.00    +0.000 C 
BRANCH  20  21
ATOM     21  C   UNL     1       4.849   4.418  18.277  0.00  0.00    +0.000 C 
BRANCH  21  22
ATOM     22  C   UNL     1       4.342   3.442  17.222  0.00  0.00    +0.000 C 
BRANCH  22  23
ATOM     23  C   UNL     1       2.818   3.396  17.262  0.00  0.00    +0.000 C 
BRANCH  23  24
ATOM     24  C   UNL     1       2.308   2.142  17.962  0.00  0.00    +0.000 C 
BRANCH  24  25
ATOM     25  C   UNL     1       1.102   2.484  18.833  0.00  0.00    +0.000 C 
BRANCH  25  27
ATOM     26  C   UNL     1       1.307   3.463  21.136  0.00  0.00    +0.000 C 
ATOM     27  C   UNL     1       1.341   3.756  19.648  0.00  0.00    +0.000 C 
ENDBRANCH  25  27
ENDBRANCH  24  25
ENDBRANCH  23  24
ENDBRANCH  22  23
ENDBRANCH  21  22
ENDBRANCH  20  21
ENDBRANCH  19  20
ENDBRANCH  18  19
ENDBRANCH  17  18
ENDBRANCH  16  17
ENDBRANCH  15  16
ENDBRANCH   1  15
TORSDOF 16
ENDMDL
MODEL 7
REMARK VINA RESULT:      -5.7      3.856      6.836
REMARK  Name = 
REMARK  19 active torsions:
REMARK  status: ('A' for Active; 'I' for Inactive)
REMARK    1  A    between atoms: C_1  and  C_2
REMARK    2  A    between atoms: C_2  and  C_3
REMARK    3  A    between atoms: C_3  and  C_4
REMARK    4  A    between atoms: C_4  and  C_5
REMARK    5  A    between atoms: C_5  and  C_6
REMARK    6  A    between atoms: C_6  and  C_7
REMARK    7  A    between atoms: C_7  and  C_8
REMARK    8  A    between atoms: C_8  and  C_9
REMARK    9  A    between atoms: C_9  and  C_10
REMARK   10  A    between atoms: C_10  and  C_11
REMARK   11  A    between atoms: C_11  and  C_12
REMARK   12  A    between atoms: C_12  and  C_13
REMARK   13  A    between atoms: C_13  and  C_14
REMARK   14  A    between atoms: C_15  and  O_16
REMARK   15  A    between atoms: C_17  and  O_18
REMARK   16  A    between atoms: O_18  and  C_19
REMARK   17  A    between atoms: C_21  and  O_22
REMARK   18  A    between atoms: C_23  and  O_24
REMARK   19  A    between atoms: O_24  and  C_25
REMARK                            x       y       z     vdW  Elec       q    Type
REMARK                         _______ _______ _______ _____ _____    ______ ____
ROOT
ATOM      1  C   UNL     1       0.909   9.421  21.025  0.00  0.00    +0.000 A 
ATOM      2  C   UNL     1       0.371  10.148  22.133  0.00  0.00    +0.000 A 
ATOM      3  C   UNL     1      -0.402  11.306  21.957  0.00  0.00    +0.000 A 
ATOM      4  C   UNL     1      -0.606  11.781  20.666  0.00  0.00    +0.000 A 
ATOM      5  C   UNL     1      -0.091  11.090  19.576  0.00  0.00    +0.000 A 
ATOM      6  C   UNL     1       0.653   9.902  19.722  0.00  0.00    +0.000 A 
ENDROOT
BRANCH   6   7
ATOM      7  O   UNL     1       0.928   9.333  18.509  0.00  0.00    +0.000 OA
ATOM      8  C   UNL     1       2.207   9.273  17.917  0.00  0.00    +0.000 C 
ENDBRANCH   6   7
BRANCH   5   9
ATOM      9  O   UNL     1      -0.323  11.573  18.309  0.00  0.00    +0.000 OA
ATOM     10  H   UNL     1      -0.097  12.516  18.286  0.00  0.00    +0.000 HD
ENDBRANCH   5   9
BRANCH   3  11
ATOM     11  O   UNL     1      -1.012  12.087  22.902  0.00  0.00    +0.000 OA
ATOM     12  C   UNL     1      -1.147  13.480  22.661  0.00  0.00    +0.000 C 
ENDBRANCH   3  11
BRANCH   2  13
ATOM     13  O   UNL     1       0.575   9.704  23.417  0.00  0.00    +0.000 OA
ATOM     14  H   UNL     1       1.119   8.904  23.424  0.00  0.00    +0.000 HD
ENDBRANCH   2  13
BRANCH   1  15
ATOM     15  C   UNL     1       1.686   8.155  21.308  0.00  0.00    +0.000 C 
BRANCH  15  16
ATOM     16  C   UNL     1       0.926   6.897  20.853  0.00  0.00    +0.000 C 
BRANCH  16  17
ATOM     17  C   UNL     1       1.844   5.700  20.609  0.00  0.00    +0.000 C 
BRANCH  17  18
ATOM     18  C   UNL     1       1.075   4.394  20.415  0.00  0.00    +0.000 C 
BRANCH  18  19
ATOM     19  C   UNL     1       1.602   3.253  21.276  0.00  0.00    +0.000 C 
BRANCH  19  20
ATOM     20  C   UNL     1       2.846   2.588  20.687  0.00  0.00    +0.000 C 
BRANCH  20  21
ATOM     21  C   UNL     1       2.671   2.391  19.188  0.00  0.00    +0.000 C 
BRANCH  21  22
ATOM     22  C   UNL     1       3.850   2.955  18.403  0.00  0.00    +0.000 C 
BRANCH  22  23
ATOM     23  C   UNL     1       4.836   3.608  19.365  0.00  0.00    +0.000 C 
BRANCH  23  24
ATOM     24  C   UNL     1       5.615   4.735  18.699  0.00  0.00    +0.000 C 
BRANCH  24  25
ATOM     25  C   UNL     1       4.651   5.786  18.154  0.00  0.00    +0.000 C 
BRANCH  25  27
ATOM     26  C   UNL     1       5.053   6.501  15.782  0.00  0.00    +0.000 C 
ATOM     27  C   UNL     1       5.365   6.781  17.239  0.00  0.00    +0.000 C 
ENDBRANCH  25  27
ENDBRANCH  24  25
ENDBRANCH  23  24
ENDBRANCH  22  23
ENDBRANCH  21  22
ENDBRANCH  20  21
ENDBRANCH  19  20
ENDBRANCH  18  19
ENDBRANCH  17  18
ENDBRANCH  16  17
ENDBRANCH  15  16
ENDBRANCH   1  15
TORSDOF 16
ENDMDL
MODEL 8
REMARK VINA RESULT:      -5.7      3.412      6.598
REMARK  Name = 
REMARK  19 active torsions:
REMARK  status: ('A' for Active; 'I' for Inactive)
REMARK    1  A    between atoms: C_1  and  C_2
REMARK    2  A    between atoms: C_2  and  C_3
REMARK    3  A    between atoms: C_3  and  C_4
REMARK    4  A    between atoms: C_4  and  C_5
REMARK    5  A    between atoms: C_5  and  C_6
REMARK    6  A    between atoms: C_6  and  C_7
REMARK    7  A    between atoms: C_7  and  C_8
REMARK    8  A    between atoms: C_8  and  C_9
REMARK    9  A    between atoms: C_9  and  C_10
REMARK   10  A    between atoms: C_10  and  C_11
REMARK   11  A    between atoms: C_11  and  C_12
REMARK   12  A    between atoms: C_12  and  C_13
REMARK   13  A    between atoms: C_13  and  C_14
REMARK   14  A    between atoms: C_15  and  O_16
REMARK   15  A    between atoms: C_17  and  O_18
REMARK   16  A    between atoms: O_18  and  C_19
REMARK   17  A    between atoms: C_21  and  O_22
REMARK   18  A    between atoms: C_23  and  O_24
REMARK   19  A    between atoms: O_24  and  C_25
REMARK                            x       y       z     vdW  Elec       q    Type
REMARK                         _______ _______ _______ _____ _____    ______ ____
ROOT
ATOM      1  C   UNL     1      -0.105  10.224  19.258  0.00  0.00    +0.000 A 
ATOM      2  C   UNL     1      -0.999  11.307  18.986  0.00  0.00    +0.000 A 
ATOM      3  C   UNL     1      -1.505  12.128  20.006  0.00  0.00    +0.000 A 
ATOM      4  C   UNL     1      -1.158  11.845  21.322  0.00  0.00    +0.000 A 
ATOM      5  C   UNL     1      -0.291  10.796  21.609  0.00  0.00    +0.000 A 
ATOM      6  C   UNL     1       0.263   9.983  20.600  0.00  0.00    +0.000 A 
ENDROOT
BRANCH   6   7
ATOM      7  O   UNL     1       1.191   9.117  21.111  0.00  0.00    +0.000 OA
ATOM      8  C   UNL     1       0.981   7.738  21.318  0.00  0.00    +0.000 C 
ENDBRANCH   6   7
BRANCH   5   9
ATOM      9  O   UNL     1       0.048  10.549  22.918  0.00  0.00    +0.000 OA
ATOM     10  H   UNL     1       1.006  10.414  22.974  0.00  0.00    +0.000 HD
ENDBRANCH   5   9
BRANCH   3  11
ATOM     11  O   UNL     1      -2.332  13.215  19.907  0.00  0.00    +0.000 OA
ATOM     12  C   UNL     1      -3.618  13.158  20.508  0.00  0.00    +0.000 C 
ENDBRANCH   3  11
BRANCH   2  13
ATOM     13  O   UNL     1      -1.367  11.594  17.694  0.00  0.00    +0.000 OA
ATOM     14  H   UNL     1      -2.201  11.157  17.467  0.00  0.00    +0.000 HD
ENDBRANCH   2  13
BRANCH   1  15
ATOM     15  C   UNL     1       0.429   9.426  18.091  0.00  0.00    +0.000 C 
BRANCH  15  16
ATOM     16  C   UNL     1       1.917   9.714  17.827  0.00  0.00    +0.000 C 
BRANCH  16  17
ATOM     17  C   UNL     1       2.802   8.478  17.981  0.00  0.00    +0.000 C 
BRANCH  17  18
ATOM     18  C   UNL     1       2.042   7.173  17.748  0.00  0.00    +0.000 C 
BRANCH  18  19
ATOM     19  C   UNL     1       2.559   6.017  18.596  0.00  0.00    +0.000 C 
BRANCH  19  20
ATOM     20  C   UNL     1       1.860   4.693  18.289  0.00  0.00    +0.000 C 
BRANCH  20  21
ATOM     21  C   UNL     1       2.707   3.867  17.332  0.00  0.00    +0.000 C 
BRANCH  21  22
ATOM     22  C   UNL     1       3.966   3.334  18.008  0.00  0.00    +0.000 C 
BRANCH  22  23
ATOM     23  C   UNL     1       5.178   4.120  17.518  0.00  0.00    +0.000 C 
BRANCH  23  24
ATOM     24  C   UNL     1       4.974   4.653  16.106  0.00  0.00    +0.000 C 
BRANCH  24  25
ATOM     25  C   UNL     1       5.675   6.000  15.949  0.00  0.00    +0.000 C 
BRANCH  25  27
ATOM     26  C   UNL     1       7.381   7.125  17.407  0.00  0.00    +0.000 C 
ATOM     27  C   UNL     1       5.942   6.655  17.304  0.00  0.00    +0.000 C 
ENDBRANCH  25  27
ENDBRANCH  24  25
ENDBRANCH  23  24
ENDBRANCH  22  23
ENDBRANCH  21  22
ENDBRANCH  20  21
ENDBRANCH  19  20
ENDBRANCH  18  19
ENDBRANCH  17  18
ENDBRANCH  16  17
ENDBRANCH  15  16
ENDBRANCH   1  15
TORSDOF 16
ENDMDL
MODEL 9
REMARK VINA RESULT:      -5.7      5.212      8.908
REMARK  Name = 
REMARK  19 active torsions:
REMARK  status: ('A' for Active; 'I' for Inactive)
REMARK    1  A    between atoms: C_1  and  C_2
REMARK    2  A    between atoms: C_2  and  C_3
REMARK    3  A    between atoms: C_3  and  C_4
REMARK    4  A    between atoms: C_4  and  C_5
REMARK    5  A    between atoms: C_5  and  C_6
REMARK    6  A    between atoms: C_6  and  C_7
REMARK    7  A    between atoms: C_7  and  C_8
REMARK    8  A    between atoms: C_8  and  C_9
REMARK    9  A    between atoms: C_9  and  C_10
REMARK   10  A    between atoms: C_10  and  C_11
REMARK   11  A    between atoms: C_11  and  C_12
REMARK   12  A    between atoms: C_12  and  C_13
REMARK   13  A    between atoms: C_13  and  C_14
REMARK   14  A    between atoms: C_15  and  O_16
REMARK   15  A    between atoms: C_17  and  O_18
REMARK   16  A    between atoms: O_18  and  C_19
REMARK   17  A    between atoms: C_21  and  O_22
REMARK   18  A    between atoms: C_23  and  O_24
REMARK   19  A    between atoms: O_24  and  C_25
REMARK                            x       y       z     vdW  Elec       q    Type
REMARK                         _______ _______ _______ _____ _____    ______ ____
ROOT
ATOM      1  C   UNL     1      -0.498  11.914  19.564  0.00  0.00    +0.000 A 
ATOM      2  C   UNL     1      -0.657  12.988  18.634  0.00  0.00    +0.000 A 
ATOM      3  C   UNL     1      -0.243  14.296  18.930  0.00  0.00    +0.000 A 
ATOM      4  C   UNL     1       0.293  14.556  20.186  0.00  0.00    +0.000 A 
ATOM      5  C   UNL     1       0.456  13.527  21.105  0.00  0.00    +0.000 A 
ATOM      6  C   UNL     1       0.087  12.197  20.818  0.00  0.00    +0.000 A 
ENDROOT
BRANCH   6   7
ATOM      7  O   UNL     1       0.472  11.345  21.816  0.00  0.00    +0.000 OA
ATOM      8  C   UNL     1      -0.407  10.579  22.608  0.00  0.00    +0.000 C 
ENDBRANCH   6   7
BRANCH   5   9
ATOM      9  O   UNL     1       1.005  13.809  22.334  0.00  0.00    +0.000 OA
ATOM     10  H   UNL     1       1.901  13.441  22.370  0.00  0.00    +0.000 HD
ENDBRANCH   5   9
BRANCH   3  11
ATOM     11  O   UNL     1      -0.293  15.415  18.142  0.00  0.00    +0.000 OA
ATOM     12  C   UNL     1      -0.587  16.668  18.744  0.00  0.00    +0.000 C 
ENDBRANCH   3  11
BRANCH   2  13
ATOM     13  O   UNL     1      -1.200  12.755  17.393  0.00  0.00    +0.000 OA
ATOM     14  H   UNL     1      -0.875  13.399  16.748  0.00  0.00    +0.000 HD
ENDBRANCH   2  13
BRANCH   1  15
ATOM     15  C   UNL     1      -0.926  10.528  19.138  0.00  0.00    +0.000 C 
BRANCH  15  16
ATOM     16  C   UNL     1      -0.085  10.000  17.963  0.00  0.00    +0.000 C 
BRANCH  16  17
ATOM     17  C   UNL     1       1.402   9.888  18.296  0.00  0.00    +0.000 C 
BRANCH  17  18
ATOM     18  C   UNL     1       1.756   8.576  18.995  0.00  0.00    +0.000 C 
BRANCH  18  19
ATOM     19  C   UNL     1       2.664   7.678  18.162  0.00  0.00    +0.000 C 
BRANCH  19  20
ATOM     20  C   UNL     1       2.377   6.190  18.363  0.00  0.00    +0.000 C 
BRANCH  20  21
ATOM     21  C   UNL     1       2.965   5.720  19.686  0.00  0.00    +0.000 C 
BRANCH  21  22
ATOM     22  C   UNL     1       1.887   5.531  20.748  0.00  0.00    +0.000 C 
BRANCH  22  23
ATOM     23  C   UNL     1       0.943   4.413  20.321  0.00  0.00    +0.000 C 
BRANCH  23  24
ATOM     24  C   UNL     1       1.317   3.081  20.959  0.00  0.00    +0.000 C 
BRANCH  24  25
ATOM     25  C   UNL     1       2.003   2.183  19.932  0.00  0.00    +0.000 C 
BRANCH  25  27
ATOM     26  C   UNL     1       2.544   2.564  17.511  0.00  0.00    +0.000 C 
ATOM     27  C   UNL     1       1.433   2.399  18.530  0.00  0.00    +0.000 C 
ENDBRANCH  25  27
ENDBRANCH  24  25
ENDBRANCH  23  24
ENDBRANCH  22  23
ENDBRANCH  21  22
ENDBRANCH  20  21
ENDBRANCH  19  20
ENDBRANCH  18  19
ENDBRANCH  17  18
ENDBRANCH  16  17
ENDBRANCH  15  16
ENDBRANCH   1  15
TORSDOF 16
ENDMDL
