MODEL 1
REMARK VINA RESULT:      -7.8      0.000      0.000
REMARK  Name = 
REMARK  10 active torsions:
REMARK  status: ('A' for Active; 'I' for Inactive)
REMARK    1  A    between atoms: C_1  and  C_2
REMARK    2  A    between atoms: C_2  and  N_25
REMARK    3  A    between atoms: C_3  and  O_4
REMARK    4  A    between atoms: C_3  and  C_17
REMARK    5  A    between atoms: O_4  and  C_5
REMARK    6  A    between atoms: C_5  and  C_6
REMARK    7  A    between atoms: C_6  and  C_7
REMARK    8  A    between atoms: C_7  and  C_8
REMARK    9  A    between atoms: C_8  and  O_9
REMARK   10  A    between atoms: O_9  and  C_10
REMARK                            x       y       z     vdW  Elec       q    Type
REMARK                         _______ _______ _______ _____ _____    ______ ____
ROOT
ATOM      1  C   UNL     1       3.684   2.128  17.834  0.00  0.00    +0.000 C 
ATOM      2  C   UNL     1       3.494   3.319  18.759  0.00  0.00    +0.000 C 
ATOM      3  C   UNL     1       4.075   4.525  18.466  0.00  0.00    +0.000 C 
ENDROOT
BRANCH   3   4
ATOM      4  C   UNL     1       5.028   4.695  17.343  0.00  0.00    +0.000 A 
ATOM      5  C   UNL     1       4.563   4.717  16.017  0.00  0.00    +0.000 A 
ATOM      6  C   UNL     1       5.471   4.758  14.952  0.00  0.00    +0.000 A 
ATOM      7  C   UNL     1       6.838   4.778  15.213  0.00  0.00    +0.000 A 
ATOM      8  F   UNL     1       7.704   4.791  14.190  0.00  0.00    +0.000 F 
ATOM      9  C   UNL     1       7.318   4.771  16.515  0.00  0.00    +0.000 A 
ATOM     10  C   UNL     1       6.410   4.728  17.569  0.00  0.00    +0.000 A 
ATOM     11  F   UNL     1       6.886   4.705  18.824  0.00  0.00    +0.000 F 
ENDBRANCH   3   4
BRANCH   2  12
ATOM     12  N   UNL     1       2.747   3.010  19.937  0.00  0.00    +0.000 N 
ATOM     13  C   UNL     1       3.264   2.560  21.157  0.00  0.00    +0.000 A 
ATOM     14  N   UNL     1       2.336   2.488  22.084  0.00  0.00    +0.000 NA
ATOM     15  C   UNL     1       1.224   2.876  21.421  0.00  0.00    +0.000 A 
ATOM     16  N   UNL     1       1.415   3.233  20.156  0.00  0.00    +0.000 NA
ENDBRANCH   2  12
BRANCH   3  17
ATOM     17  O   UNL     1       3.820   5.779  19.003  0.00  0.00    +0.000 OA
BRANCH  17  18
ATOM     18  C   UNL     1       2.648   6.430  18.550  0.00  0.00    +0.000 C 
BRANCH  18  19
ATOM     19  C   UNL     1       2.149   7.562  19.439  0.00  0.00    +0.000 C 
BRANCH  19  20
ATOM     20  C   UNL     1       1.954   8.827  18.577  0.00  0.00    +0.000 C 
BRANCH  20  21
ATOM     21  C   UNL     1       0.760   9.659  19.058  0.00  0.00    +0.000 C 
BRANCH  21  22
ATOM     22  O   UNL     1       0.271  10.530  18.036  0.00  0.00    +0.000 OA
BRANCH  22  23
ATOM     23  C   UNL     1      -1.102  10.638  18.036  0.00  0.00    +0.000 A 
ATOM     24  C   UNL     1      -1.824  11.509  18.864  0.00  0.00    +0.000 A 
ATOM     25  C   UNL     1      -3.215  11.576  18.778  0.00  0.00    +0.000 A 
ATOM     26  C   UNL     1      -3.881  10.777  17.861  0.00  0.00    +0.000 A 
ATOM     27  F   UNL     1      -5.215  10.849  17.775  0.00  0.00    +0.000 F 
ATOM     28  C   UNL     1      -3.182   9.908  17.030  0.00  0.00    +0.000 A 
ATOM     29  C   UNL     1      -1.788   9.843  17.115  0.00  0.00    +0.000 A 
ENDBRANCH  22  23
ENDBRANCH  21  22
ENDBRANCH  20  21
ENDBRANCH  19  20
ENDBRANCH  18  19
ENDBRANCH  17  18
ENDBRANCH   3  17
TORSDOF 9
ENDMDL
MODEL 2
REMARK VINA RESULT:      -7.8      2.170      2.539
REMARK  Name = 
REMARK  10 active torsions:
REMARK  status: ('A' for Active; 'I' for Inactive)
REMARK    1  A    between atoms: C_1  and  C_2
REMARK    2  A    between atoms: C_2  and  N_25
REMARK    3  A    between atoms: C_3  and  O_4
REMARK    4  A    between atoms: C_3  and  C_17
REMARK    5  A    between atoms: O_4  and  C_5
REMARK    6  A    between atoms: C_5  and  C_6
REMARK    7  A    between atoms: C_6  and  C_7
REMARK    8  A    between atoms: C_7  and  C_8
REMARK    9  A    between atoms: C_8  and  O_9
REMARK   10  A    between atoms: O_9  and  C_10
REMARK                            x       y       z     vdW  Elec       q    Type
REMARK                         _______ _______ _______ _____ _____    ______ ____
ROOT
ATOM      1  C   UNL     1       3.423   2.313  17.616  0.00  0.00    +0.000 C 
ATOM      2  C   UNL     1       3.469   3.421  18.656  0.00  0.00    +0.000 C 
ATOM      3  C   UNL     1       4.203   4.556  18.427  0.00  0.00    +0.000 C 
ENDROOT
BRANCH   3   4
ATOM      4  C   UNL     1       5.098   4.700  17.254  0.00  0.00    +0.000 A 
ATOM      5  C   UNL     1       4.563   4.733  15.954  0.00  0.00    +0.000 A 
ATOM      6  C   UNL     1       5.413   4.749  14.843  0.00  0.00    +0.000 A 
ATOM      7  C   UNL     1       6.792   4.734  15.029  0.00  0.00    +0.000 A 
ATOM      8  F   UNL     1       7.602   4.723  13.961  0.00  0.00    +0.000 F 
ATOM      9  C   UNL     1       7.341   4.715  16.303  0.00  0.00    +0.000 A 
ATOM     10  C   UNL     1       6.491   4.697  17.405  0.00  0.00    +0.000 A 
ATOM     11  F   UNL     1       7.033   4.663  18.633  0.00  0.00    +0.000 F 
ENDBRANCH   3   4
BRANCH   2  12
ATOM     12  N   UNL     1       2.761   3.105  19.855  0.00  0.00    +0.000 N 
ATOM     13  C   UNL     1       3.318   2.661  21.059  0.00  0.00    +0.000 A 
ATOM     14  N   UNL     1       2.417   2.581  22.013  0.00  0.00    +0.000 NA
ATOM     15  C   UNL     1       1.283   2.958  21.383  0.00  0.00    +0.000 A 
ATOM     16  N   UNL     1       1.434   3.317  20.112  0.00  0.00    +0.000 NA
ENDBRANCH   2  12
BRANCH   3  17
ATOM     17  O   UNL     1       4.170   5.774  19.091  0.00  0.00    +0.000 OA
BRANCH  17  18
ATOM     18  C   UNL     1       3.703   6.883  18.348  0.00  0.00    +0.000 C 
BRANCH  18  19
ATOM     19  C   UNL     1       2.229   7.221  18.541  0.00  0.00    +0.000 C 
BRANCH  19  20
ATOM     20  C   UNL     1       1.906   8.514  17.763  0.00  0.00    +0.000 C 
BRANCH  20  21
ATOM     21  C   UNL     1       1.122   9.510  18.624  0.00  0.00    +0.000 C 
BRANCH  21  22
ATOM     22  O   UNL     1       1.614   9.558  19.965  0.00  0.00    +0.000 OA
BRANCH  22  23
ATOM     23  C   UNL     1       0.690  10.055  20.857  0.00  0.00    +0.000 A 
ATOM     24  C   UNL     1       0.027  11.281  20.703  0.00  0.00    +0.000 A 
ATOM     25  C   UNL     1      -0.919  11.695  21.641  0.00  0.00    +0.000 A 
ATOM     26  C   UNL     1      -1.206  10.882  22.727  0.00  0.00    +0.000 A 
ATOM     27  F   UNL     1      -2.120  11.278  23.620  0.00  0.00    +0.000 F 
ATOM     28  C   UNL     1      -0.560   9.662  22.895  0.00  0.00    +0.000 A 
ATOM     29  C   UNL     1       0.387   9.246  21.954  0.00  0.00    +0.000 A 
ENDBRANCH  22  23
ENDBRANCH  21  22
ENDBRANCH  20  21
ENDBRANCH  19  20
ENDBRANCH  18  19
ENDBRANCH  17  18
ENDBRANCH   3  17
TORSDOF 9
ENDMDL
MODEL 3
REMARK VINA RESULT:      -7.8      2.783      4.905
REMARK  Name = 
REMARK  10 active torsions:
REMARK  status: ('A' for Active; 'I' for Inactive)
REMARK    1  A    between atoms: C_1  and  C_2
REMARK    2  A    between atoms: C_2  and  N_25
REMARK    3  A    between atoms: C_3  and  O_4
REMARK    4  A    between atoms: C_3  and  C_17
REMARK    5  A    between atoms: O_4  and  C_5
REMARK    6  A    between atoms: C_5  and  C_6
REMARK    7  A    between atoms: C_6  and  C_7
REMARK    8  A    between atoms: C_7  and  C_8
REMARK    9  A    between atoms: C_8  and  O_9
REMARK   10  A    between atoms: O_9  and  C_10
REMARK                            x       y       z     vdW  Elec       q    Type
REMARK                         _______ _______ _______ _____ _____    ______ ____
ROOT
ATOM      1  C   UNL     1       5.512   3.787  18.825  0.00  0.00    +0.000 C 
ATOM      2  C   UNL     1       4.780   4.715  17.870  0.00  0.00    +0.000 C 
ATOM      3  C   UNL     1       3.467   5.044  18.092  0.00  0.00    +0.000 C 
ENDROOT
BRANCH   3   4
ATOM      4  C   UNL     1       2.659   4.406  19.158  0.00  0.00    +0.000 A 
ATOM      5  C   UNL     1       2.740   4.870  20.483  0.00  0.00    +0.000 A 
ATOM      6  C   UNL     1       2.070   4.194  21.509  0.00  0.00    +0.000 A 
ATOM      7  C   UNL     1       1.319   3.060  21.212  0.00  0.00    +0.000 A 
ATOM      8  F   UNL     1       0.700   2.401  22.202  0.00  0.00    +0.000 F 
ATOM      9  C   UNL     1       1.215   2.593  19.910  0.00  0.00    +0.000 A 
ATOM     10  C   UNL     1       1.885   3.268  18.894  0.00  0.00    +0.000 A 
ATOM     11  F   UNL     1       1.789   2.799  17.640  0.00  0.00    +0.000 F 
ENDBRANCH   3   4
BRANCH   2  12
ATOM     12  N   UNL     1       5.565   5.107  16.743  0.00  0.00    +0.000 N 
ATOM     13  C   UNL     1       6.868   5.614  16.772  0.00  0.00    +0.000 A 
ATOM     14  N   UNL     1       7.363   5.758  15.563  0.00  0.00    +0.000 NA
ATOM     15  C   UNL     1       6.341   5.358  14.774  0.00  0.00    +0.000 A 
ATOM     16  N   UNL     1       5.264   4.925  15.421  0.00  0.00    +0.000 NA
ENDBRANCH   2  12
BRANCH   3  17
ATOM     17  O   UNL     1       2.706   6.056  17.527  0.00  0.00    +0.000 OA
BRANCH  17  18
ATOM     18  C   UNL     1       2.830   7.338  18.112  0.00  0.00    +0.000 C 
BRANCH  18  19
ATOM     19  C   UNL     1       1.987   8.432  17.467  0.00  0.00    +0.000 C 
BRANCH  19  20
ATOM     20  C   UNL     1       1.800   9.582  18.479  0.00  0.00    +0.000 C 
BRANCH  20  21
ATOM     21  C   UNL     1       0.324   9.967  18.628  0.00  0.00    +0.000 C 
BRANCH  21  22
ATOM     22  O   UNL     1      -0.481   9.411  17.586  0.00  0.00    +0.000 OA
BRANCH  22  23
ATOM     23  C   UNL     1      -1.649  10.110  17.381  0.00  0.00    +0.000 A 
ATOM     24  C   UNL     1      -2.405  10.053  16.202  0.00  0.00    +0.000 A 
ATOM     25  C   UNL     1      -3.596  10.772  16.091  0.00  0.00    +0.000 A 
ATOM     26  C   UNL     1      -4.031  11.543  17.158  0.00  0.00    +0.000 A 
ATOM     27  F   UNL     1      -5.177  12.225  17.051  0.00  0.00    +0.000 F 
ATOM     28  C   UNL     1      -3.295  11.610  18.337  0.00  0.00    +0.000 A 
ATOM     29  C   UNL     1      -2.103  10.887  18.450  0.00  0.00    +0.000 A 
ENDBRANCH  22  23
ENDBRANCH  21  22
ENDBRANCH  20  21
ENDBRANCH  19  20
ENDBRANCH  18  19
ENDBRANCH  17  18
ENDBRANCH   3  17
TORSDOF 9
ENDMDL
MODEL 4
REMARK VINA RESULT:      -7.7      3.288      5.304
REMARK  Name = 
REMARK  10 active torsions:
REMARK  status: ('A' for Active; 'I' for Inactive)
REMARK    1  A    between atoms: C_1  and  C_2
REMARK    2  A    between atoms: C_2  and  N_25
REMARK    3  A    between atoms: C_3  and  O_4
REMARK    4  A    between atoms: C_3  and  C_17
REMARK    5  A    between atoms: O_4  and  C_5
REMARK    6  A    between atoms: C_5  and  C_6
REMARK    7  A    between atoms: C_6  and  C_7
REMARK    8  A    between atoms: C_7  and  C_8
REMARK    9  A    between atoms: C_8  and  O_9
REMARK   10  A    between atoms: O_9  and  C_10
REMARK                            x       y       z     vdW  Elec       q    Type
REMARK                         _______ _______ _______ _____ _____    ______ ____
ROOT
ATOM      1  C   UNL     1       5.559   3.587  18.758  0.00  0.00    +0.000 C 
ATOM      2  C   UNL     1       4.859   4.549  17.812  0.00  0.00    +0.000 C 
ATOM      3  C   UNL     1       3.565   4.936  18.048  0.00  0.00    +0.000 C 
ENDROOT
BRANCH   3   4
ATOM      4  C   UNL     1       2.740   4.334  19.121  0.00  0.00    +0.000 A 
ATOM      5  C   UNL     1       2.851   4.796  20.444  0.00  0.00    +0.000 A 
ATOM      6  C   UNL     1       2.162   4.151  21.477  0.00  0.00    +0.000 A 
ATOM      7  C   UNL     1       1.363   3.048  21.189  0.00  0.00    +0.000 A 
ATOM      8  F   UNL     1       0.725   2.417  22.184  0.00  0.00    +0.000 F 
ATOM      9  C   UNL     1       1.228   2.584  19.888  0.00  0.00    +0.000 A 
ATOM     10  C   UNL     1       1.918   3.229  18.866  0.00  0.00    +0.000 A 
ATOM     11  F   UNL     1       1.792   2.761  17.613  0.00  0.00    +0.000 F 
ENDBRANCH   3   4
BRANCH   2  12
ATOM     12  N   UNL     1       5.650   4.906  16.677  0.00  0.00    +0.000 N 
ATOM     13  C   UNL     1       7.030   5.130  16.661  0.00  0.00    +0.000 A 
ATOM     14  N   UNL     1       7.481   5.317  15.441  0.00  0.00    +0.000 NA
ATOM     15  C   UNL     1       6.358   5.231  14.694  0.00  0.00    +0.000 A 
ATOM     16  N   UNL     1       5.249   4.951  15.370  0.00  0.00    +0.000 NA
ENDBRANCH   2  12
BRANCH   3  17
ATOM     17  O   UNL     1       2.845   5.983  17.491  0.00  0.00    +0.000 OA
BRANCH  17  18
ATOM     18  C   UNL     1       3.242   7.288  17.863  0.00  0.00    +0.000 C 
BRANCH  18  19
ATOM     19  C   UNL     1       2.192   8.099  18.614  0.00  0.00    +0.000 C 
BRANCH  19  20
ATOM     20  C   UNL     1       1.759   9.292  17.737  0.00  0.00    +0.000 C 
BRANCH  20  21
ATOM     21  C   UNL     1       1.173  10.429  18.580  0.00  0.00    +0.000 C 
BRANCH  21  22
ATOM     22  O   UNL     1      -0.200  10.199  18.906  0.00  0.00    +0.000 OA
BRANCH  22  23
ATOM     23  C   UNL     1      -0.579  10.806  20.082  0.00  0.00    +0.000 A 
ATOM     24  C   UNL     1      -1.442  11.908  20.158  0.00  0.00    +0.000 A 
ATOM     25  C   UNL     1      -1.799  12.442  21.396  0.00  0.00    +0.000 A 
ATOM     26  C   UNL     1      -1.298  11.872  22.556  0.00  0.00    +0.000 A 
ATOM     27  F   UNL     1      -1.648  12.382  23.743  0.00  0.00    +0.000 F 
ATOM     28  C   UNL     1      -0.442  10.777  22.501  0.00  0.00    +0.000 A 
ATOM     29  C   UNL     1      -0.085  10.240  21.260  0.00  0.00    +0.000 A 
ENDBRANCH  22  23
ENDBRANCH  21  22
ENDBRANCH  20  21
ENDBRANCH  19  20
ENDBRANCH  18  19
ENDBRANCH  17  18
ENDBRANCH   3  17
TORSDOF 9
ENDMDL
MODEL 5
REMARK VINA RESULT:      -7.7      2.204      2.659
REMARK  Name = 
REMARK  10 active torsions:
REMARK  status: ('A' for Active; 'I' for Inactive)
REMARK    1  A    between atoms: C_1  and  C_2
REMARK    2  A    between atoms: C_2  and  N_25
REMARK    3  A    between atoms: C_3  and  O_4
REMARK    4  A    between atoms: C_3  and  C_17
REMARK    5  A    between atoms: O_4  and  C_5
REMARK    6  A    between atoms: C_5  and  C_6
REMARK    7  A    between atoms: C_6  and  C_7
REMARK    8  A    between atoms: C_7  and  C_8
REMARK    9  A    between atoms: C_8  and  O_9
REMARK   10  A    between atoms: O_9  and  C_10
REMARK                            x       y       z     vdW  Elec       q    Type
REMARK                         _______ _______ _______ _____ _____    ______ ____
ROOT
ATOM      1  C   UNL     1       3.565   2.213  17.625  0.00  0.00    +0.000 C 
ATOM      2  C   UNL     1       3.505   3.381  18.596  0.00  0.00    +0.000 C 
ATOM      3  C   UNL     1       4.166   4.549  18.316  0.00  0.00    +0.000 C 
ENDROOT
BRANCH   3   4
ATOM      4  C   UNL     1       5.083   4.685  17.159  0.00  0.00    +0.000 A 
ATOM      5  C   UNL     1       4.584   4.613  15.847  0.00  0.00    +0.000 A 
ATOM      6  C   UNL     1       5.461   4.622  14.757  0.00  0.00    +0.000 A 
ATOM      7  C   UNL     1       6.833   4.705  14.977  0.00  0.00    +0.000 A 
ATOM      8  F   UNL     1       7.672   4.687  13.932  0.00  0.00    +0.000 F 
ATOM      9  C   UNL     1       7.346   4.791  16.264  0.00  0.00    +0.000 A 
ATOM     10  C   UNL     1       6.469   4.779  17.344  0.00  0.00    +0.000 A 
ATOM     11  F   UNL     1       6.977   4.847  18.584  0.00  0.00    +0.000 F 
ENDBRANCH   3   4
BRANCH   2  12
ATOM     12  N   UNL     1       2.786   3.089  19.794  0.00  0.00    +0.000 N 
ATOM     13  C   UNL     1       3.330   2.651  21.006  0.00  0.00    +0.000 A 
ATOM     14  N   UNL     1       2.423   2.594  21.956  0.00  0.00    +0.000 NA
ATOM     15  C   UNL     1       1.297   2.978  21.315  0.00  0.00    +0.000 A 
ATOM     16  N   UNL     1       1.460   3.320  20.041  0.00  0.00    +0.000 NA
ENDBRANCH   2  12
BRANCH   3  17
ATOM     17  O   UNL     1       4.031   5.799  18.903  0.00  0.00    +0.000 OA
BRANCH  17  18
ATOM     18  C   UNL     1       3.335   6.775  18.151  0.00  0.00    +0.000 C 
BRANCH  18  19
ATOM     19  C   UNL     1       2.327   7.604  18.937  0.00  0.00    +0.000 C 
BRANCH  19  20
ATOM     20  C   UNL     1       2.124   6.963  20.325  0.00  0.00    +0.000 C 
BRANCH  20  21
ATOM     21  C   UNL     1       0.950   7.600  21.076  0.00  0.00    +0.000 C 
BRANCH  21  22
ATOM     22  O   UNL     1       1.367   8.710  21.875  0.00  0.00    +0.000 OA
BRANCH  22  23
ATOM     23  C   UNL     1       0.466   9.750  21.857  0.00  0.00    +0.000 A 
ATOM     24  C   UNL     1       0.235  10.575  20.747  0.00  0.00    +0.000 A 
ATOM     25  C   UNL     1      -0.721  11.589  20.806  0.00  0.00    +0.000 A 
ATOM     26  C   UNL     1      -1.448  11.774  21.972  0.00  0.00    +0.000 A 
ATOM     27  F   UNL     1      -2.371  12.743  22.023  0.00  0.00    +0.000 F 
ATOM     28  C   UNL     1      -1.236  10.965  23.083  0.00  0.00    +0.000 A 
ATOM     29  C   UNL     1      -0.279   9.947  23.023  0.00  0.00    +0.000 A 
ENDBRANCH  22  23
ENDBRANCH  21  22
ENDBRANCH  20  21
ENDBRANCH  19  20
ENDBRANCH  18  19
ENDBRANCH  17  18
ENDBRANCH   3  17
TORSDOF 9
ENDMDL
MODEL 6
REMARK VINA RESULT:      -7.6      3.413      5.407
REMARK  Name = 
REMARK  10 active torsions:
REMARK  status: ('A' for Active; 'I' for Inactive)
REMARK    1  A    between atoms: C_1  and  C_2
REMARK    2  A    between atoms: C_2  and  N_25
REMARK    3  A    between atoms: C_3  and  O_4
REMARK    4  A    between atoms: C_3  and  C_17
REMARK    5  A    between atoms: O_4  and  C_5
REMARK    6  A    between atoms: C_5  and  C_6
REMARK    7  A    between atoms: C_6  and  C_7
REMARK    8  A    between atoms: C_7  and  C_8
REMARK    9  A    between atoms: C_8  and  O_9
REMARK   10  A    between atoms: O_9  and  C_10
REMARK                            x       y       z     vdW  Elec       q    Type
REMARK                         _______ _______ _______ _____ _____    ______ ____
ROOT
ATOM      1  C   UNL     1       5.595   3.810  18.877  0.00  0.00    +0.000 C 
ATOM      2  C   UNL     1       4.879   4.706  17.880  0.00  0.00    +0.000 C 
ATOM      3  C   UNL     1       3.562   5.038  18.067  0.00  0.00    +0.000 C 
ENDROOT
BRANCH   3   4
ATOM      4  C   UNL     1       2.735   4.431  19.137  0.00  0.00    +0.000 A 
ATOM      5  C   UNL     1       2.848   4.885  20.462  0.00  0.00    +0.000 A 
ATOM      6  C   UNL     1       2.157   4.235  21.491  0.00  0.00    +0.000 A 
ATOM      7  C   UNL     1       1.354   3.137  21.196  0.00  0.00    +0.000 A 
ATOM      8  F   UNL     1       0.715   2.501  22.188  0.00  0.00    +0.000 F 
ATOM      9  C   UNL     1       1.218   2.681  19.892  0.00  0.00    +0.000 A 
ATOM     10  C   UNL     1       1.910   3.330  18.874  0.00  0.00    +0.000 A 
ATOM     11  F   UNL     1       1.783   2.871  17.619  0.00  0.00    +0.000 F 
ENDBRANCH   3   4
BRANCH   2  12
ATOM     12  N   UNL     1       5.685   5.064  16.756  0.00  0.00    +0.000 N 
ATOM     13  C   UNL     1       7.014   5.500  16.789  0.00  0.00    +0.000 A 
ATOM     14  N   UNL     1       7.516   5.628  15.581  0.00  0.00    +0.000 NA
ATOM     15  C   UNL     1       6.475   5.290  14.790  0.00  0.00    +0.000 A 
ATOM     16  N   UNL     1       5.375   4.910  15.432  0.00  0.00    +0.000 NA
ENDBRANCH   2  12
BRANCH   3  17
ATOM     17  O   UNL     1       2.810   6.030  17.455  0.00  0.00    +0.000 OA
BRANCH  17  18
ATOM     18  C   UNL     1       2.700   7.256  18.153  0.00  0.00    +0.000 C 
BRANCH  18  19
ATOM     19  C   UNL     1       1.630   8.207  17.632  0.00  0.00    +0.000 C 
BRANCH  19  20
ATOM     20  C   UNL     1       2.023   9.653  18.000  0.00  0.00    +0.000 C 
BRANCH  20  21
ATOM     21  C   UNL     1       1.011  10.286  18.962  0.00  0.00    +0.000 C 
BRANCH  21  22
ATOM     22  O   UNL     1       1.210   9.849  20.308  0.00  0.00    +0.000 OA
BRANCH  22  23
ATOM     23  C   UNL     1       0.262  10.342  21.176  0.00  0.00    +0.000 A 
ATOM     24  C   UNL     1      -0.016   9.792  22.435  0.00  0.00    +0.000 A 
ATOM     25  C   UNL     1      -0.974  10.374  23.265  0.00  0.00    +0.000 A 
ATOM     26  C   UNL     1      -1.650  11.507  22.838  0.00  0.00    +0.000 A 
ATOM     27  F   UNL     1      -2.563  12.069  23.640  0.00  0.00    +0.000 F 
ATOM     28  C   UNL     1      -1.386  12.069  21.593  0.00  0.00    +0.000 A 
ATOM     29  C   UNL     1      -0.424  11.486  20.762  0.00  0.00    +0.000 A 
ENDBRANCH  22  23
ENDBRANCH  21  22
ENDBRANCH  20  21
ENDBRANCH  19  20
ENDBRANCH  18  19
ENDBRANCH  17  18
ENDBRANCH   3  17
TORSDOF 9
ENDMDL
MODEL 7
REMARK VINA RESULT:      -7.6      2.171      2.559
REMARK  Name = 
REMARK  10 active torsions:
REMARK  status: ('A' for Active; 'I' for Inactive)
REMARK    1  A    between atoms: C_1  and  C_2
REMARK    2  A    between atoms: C_2  and  N_25
REMARK    3  A    between atoms: C_3  and  O_4
REMARK    4  A    between atoms: C_3  and  C_17
REMARK    5  A    between atoms: O_4  and  C_5
REMARK    6  A    between atoms: C_5  and  C_6
REMARK    7  A    between atoms: C_6  and  C_7
REMARK    8  A    between atoms: C_7  and  C_8
REMARK    9  A    between atoms: C_8  and  O_9
REMARK   10  A    between atoms: O_9  and  C_10
REMARK                            x       y       z     vdW  Elec       q    Type
REMARK                         _______ _______ _______ _____ _____    ______ ____
ROOT
ATOM      1  C   UNL     1       3.287   2.365  17.707  0.00  0.00    +0.000 C 
ATOM      2  C   UNL     1       3.388   3.486  18.730  0.00  0.00    +0.000 C 
ATOM      3  C   UNL     1       4.155   4.592  18.472  0.00  0.00    +0.000 C 
ENDROOT
BRANCH   3   4
ATOM      4  C   UNL     1       5.034   4.689  17.283  0.00  0.00    +0.000 A 
ATOM      5  C   UNL     1       4.477   4.795  15.997  0.00  0.00    +0.000 A 
ATOM      6  C   UNL     1       5.302   4.767  14.866  0.00  0.00    +0.000 A 
ATOM      7  C   UNL     1       6.680   4.635  15.021  0.00  0.00    +0.000 A 
ATOM      8  F   UNL     1       7.463   4.582  13.936  0.00  0.00    +0.000 F 
ATOM      9  C   UNL     1       7.251   4.543  16.282  0.00  0.00    +0.000 A 
ATOM     10  C   UNL     1       6.425   4.569  17.402  0.00  0.00    +0.000 A 
ATOM     11  F   UNL     1       6.988   4.464  18.617  0.00  0.00    +0.000 F 
ENDBRANCH   3   4
BRANCH   2  12
ATOM     12  N   UNL     1       2.690   3.212  19.945  0.00  0.00    +0.000 N 
ATOM     13  C   UNL     1       1.313   3.337  20.161  0.00  0.00    +0.000 A 
ATOM     14  N   UNL     1       0.962   2.887  21.345  0.00  0.00    +0.000 NA
ATOM     15  C   UNL     1       2.142   2.501  21.878  0.00  0.00    +0.000 A 
ATOM     16  N   UNL     1       3.195   2.635  21.078  0.00  0.00    +0.000 NA
ENDBRANCH   2  12
BRANCH   3  17
ATOM     17  O   UNL     1       4.174   5.820  19.118  0.00  0.00    +0.000 OA
BRANCH  17  18
ATOM     18  C   UNL     1       3.064   6.667  18.892  0.00  0.00    +0.000 C 
BRANCH  18  19
ATOM     19  C   UNL     1       3.228   7.662  17.750  0.00  0.00    +0.000 C 
BRANCH  19  20
ATOM     20  C   UNL     1       1.991   8.583  17.707  0.00  0.00    +0.000 C 
BRANCH  20  21
ATOM     21  C   UNL     1       1.461   8.883  19.113  0.00  0.00    +0.000 C 
BRANCH  21  22
ATOM     22  O   UNL     1       1.019  10.236  19.240  0.00  0.00    +0.000 OA
BRANCH  22  23
ATOM     23  C   UNL     1       0.272  10.451  20.376  0.00  0.00    +0.000 A 
ATOM     24  C   UNL     1       0.255   9.590  21.483  0.00  0.00    +0.000 A 
ATOM     25  C   UNL     1      -0.508   9.901  22.608  0.00  0.00    +0.000 A 
ATOM     26  C   UNL     1      -1.249  11.072  22.629  0.00  0.00    +0.000 A 
ATOM     27  F   UNL     1      -1.975  11.371  23.713  0.00  0.00    +0.000 F 
ATOM     28  C   UNL     1      -1.244  11.940  21.541  0.00  0.00    +0.000 A 
ATOM     29  C   UNL     1      -0.477  11.630  20.414  0.00  0.00    +0.000 A 
ENDBRANCH  22  23
ENDBRANCH  21  22
ENDBRANCH  20  21
ENDBRANCH  19  20
ENDBRANCH  18  19
ENDBRANCH  17  18
ENDBRANCH   3  17
TORSDOF 9
ENDMDL
MODEL 8
REMARK VINA RESULT:      -7.6      2.222      2.617
REMARK  Name = 
REMARK  10 active torsions:
REMARK  status: ('A' for Active; 'I' for Inactive)
REMARK    1  A    between atoms: C_1  and  C_2
REMARK    2  A    between atoms: C_2  and  N_25
REMARK    3  A    between atoms: C_3  and  O_4
REMARK    4  A    between atoms: C_3  and  C_17
REMARK    5  A    between atoms: O_4  and  C_5
REMARK    6  A    between atoms: C_5  and  C_6
REMARK    7  A    between atoms: C_6  and  C_7
REMARK    8  A    between atoms: C_7  and  C_8
REMARK    9  A    between atoms: C_8  and  O_9
REMARK   10  A    between atoms: O_9  and  C_10
REMARK                            x       y       z     vdW  Elec       q    Type
REMARK                         _______ _______ _______ _____ _____    ______ ____
ROOT
ATOM      1  C   UNL     1       3.593   2.428  17.672  0.00  0.00    +0.000 C 
ATOM      2  C   UNL     1       3.509   3.603  18.633  0.00  0.00    +0.000 C 
ATOM      3  C   UNL     1       4.187   4.764  18.367  0.00  0.00    +0.000 C 
ENDROOT
BRANCH   3   4
ATOM      4  C   UNL     1       5.142   4.887  17.241  0.00  0.00    +0.000 A 
ATOM      5  C   UNL     1       4.671   4.985  15.920  0.00  0.00    +0.000 A 
ATOM      6  C   UNL     1       5.571   4.981  14.848  0.00  0.00    +0.000 A 
ATOM      7  C   UNL     1       6.938   4.881  15.096  0.00  0.00    +0.000 A 
ATOM      8  F   UNL     1       7.794   4.851  14.066  0.00  0.00    +0.000 F 
ATOM      9  C   UNL     1       7.424   4.797  16.393  0.00  0.00    +0.000 A 
ATOM     10  C   UNL     1       6.524   4.799  17.454  0.00  0.00    +0.000 A 
ATOM     11  F   UNL     1       7.006   4.702  18.703  0.00  0.00    +0.000 F 
ENDBRANCH   3   4
BRANCH   2  12
ATOM     12  N   UNL     1       2.748   3.323  19.808  0.00  0.00    +0.000 N 
ATOM     13  C   UNL     1       1.376   3.534  19.982  0.00  0.00    +0.000 A 
ATOM     14  N   UNL     1       0.951   3.057  21.131  0.00  0.00    +0.000 NA
ATOM     15  C   UNL     1       2.081   2.565  21.685  0.00  0.00    +0.000 A 
ATOM     16  N   UNL     1       3.170   2.662  20.930  0.00  0.00    +0.000 NA
ENDBRANCH   2  12
BRANCH   3  17
ATOM     17  O   UNL     1       4.041   6.019  18.942  0.00  0.00    +0.000 OA
BRANCH  17  18
ATOM     18  C   UNL     1       2.902   6.761  18.550  0.00  0.00    +0.000 C 
BRANCH  18  19
ATOM     19  C   UNL     1       3.180   7.936  17.619  0.00  0.00    +0.000 C 
BRANCH  19  20
ATOM     20  C   UNL     1       2.412   9.172  18.131  0.00  0.00    +0.000 C 
BRANCH  20  21
ATOM     21  C   UNL     1       0.896   8.969  18.049  0.00  0.00    +0.000 C 
BRANCH  21  22
ATOM     22  O   UNL     1       0.178  10.111  18.522  0.00  0.00    +0.000 OA
BRANCH  22  23
ATOM     23  C   UNL     1       0.015  10.112  19.889  0.00  0.00    +0.000 A 
ATOM     24  C   UNL     1      -0.176  11.267  20.659  0.00  0.00    +0.000 A 
ATOM     25  C   UNL     1      -0.364  11.174  22.039  0.00  0.00    +0.000 A 
ATOM     26  C   UNL     1      -0.365   9.927  22.645  0.00  0.00    +0.000 A 
ATOM     27  F   UNL     1      -0.553   9.840  23.967  0.00  0.00    +0.000 F 
ATOM     28  C   UNL     1      -0.179   8.770  21.897  0.00  0.00    +0.000 A 
ATOM     29  C   UNL     1       0.007   8.862  20.514  0.00  0.00    +0.000 A 
ENDBRANCH  22  23
ENDBRANCH  21  22
ENDBRANCH  20  21
ENDBRANCH  19  20
ENDBRANCH  18  19
ENDBRANCH  17  18
ENDBRANCH   3  17
TORSDOF 9
ENDMDL
MODEL 9
REMARK VINA RESULT:      -7.5      0.972      1.443
REMARK  Name = 
REMARK  10 active torsions:
REMARK  status: ('A' for Active; 'I' for Inactive)
REMARK    1  A    between atoms: C_1  and  C_2
REMARK    2  A    between atoms: C_2  and  N_25
REMARK    3  A    between atoms: C_3  and  O_4
REMARK    4  A    between atoms: C_3  and  C_17
REMARK    5  A    between atoms: O_4  and  C_5
REMARK    6  A    between atoms: C_5  and  C_6
REMARK    7  A    between atoms: C_6  and  C_7
REMARK    8  A    between atoms: C_7  and  C_8
REMARK    9  A    between atoms: C_8  and  O_9
REMARK   10  A    between atoms: O_9  and  C_10
REMARK                            x       y       z     vdW  Elec       q    Type
REMARK                         _______ _______ _______ _____ _____    ______ ____
ROOT
ATOM      1  C   UNL     1       3.582   2.376  17.689  0.00  0.00    +0.000 C 
ATOM      2  C   UNL     1       3.609   3.525  18.684  0.00  0.00    +0.000 C 
ATOM      3  C   UNL     1       4.316   4.667  18.406  0.00  0.00    +0.000 C 
ENDROOT
BRANCH   3   4
ATOM      4  C   UNL     1       5.201   4.784  17.223  0.00  0.00    +0.000 A 
ATOM      5  C   UNL     1       4.652   4.820  15.929  0.00  0.00    +0.000 A 
ATOM      6  C   UNL     1       5.490   4.811  14.808  0.00  0.00    +0.000 A 
ATOM      7  C   UNL     1       6.871   4.768  14.979  0.00  0.00    +0.000 A 
ATOM      8  F   UNL     1       7.668   4.733  13.903  0.00  0.00    +0.000 F 
ATOM      9  C   UNL     1       7.433   4.746  16.247  0.00  0.00    +0.000 A 
ATOM     10  C   UNL     1       6.595   4.753  17.358  0.00  0.00    +0.000 A 
ATOM     11  F   UNL     1       7.150   4.717  18.580  0.00  0.00    +0.000 F 
ENDBRANCH   3   4
BRANCH   2  12
ATOM     12  N   UNL     1       2.915   3.241  19.899  0.00  0.00    +0.000 N 
ATOM     13  C   UNL     1       3.397   2.494  20.979  0.00  0.00    +0.000 A 
ATOM     14  N   UNL     1       2.570   2.521  22.000  0.00  0.00    +0.000 NA
ATOM     15  C   UNL     1       1.551   3.277  21.537  0.00  0.00    +0.000 A 
ATOM     16  N   UNL     1       1.719   3.762  20.311  0.00  0.00    +0.000 NA
ENDBRANCH   2  12
BRANCH   3  17
ATOM     17  O   UNL     1       4.259   5.908  19.022  0.00  0.00    +0.000 OA
BRANCH  17  18
ATOM     18  C   UNL     1       3.775   6.979  18.235  0.00  0.00    +0.000 C 
BRANCH  18  19
ATOM     19  C   UNL     1       2.304   7.322  18.438  0.00  0.00    +0.000 C 
BRANCH  19  20
ATOM     20  C   UNL     1       1.936   8.511  17.526  0.00  0.00    +0.000 C 
BRANCH  20  21
ATOM     21  C   UNL     1       1.727   9.797  18.332  0.00  0.00    +0.000 C 
BRANCH  21  22
ATOM     22  O   UNL     1       0.831   9.599  19.429  0.00  0.00    +0.000 OA
BRANCH  22  23
ATOM     23  C   UNL     1      -0.319  10.348  19.321  0.00  0.00    +0.000 A 
ATOM     24  C   UNL     1      -1.238  10.235  18.269  0.00  0.00    +0.000 A 
ATOM     25  C   UNL     1      -2.396  11.013  18.254  0.00  0.00    +0.000 A 
ATOM     26  C   UNL     1      -2.637  11.898  19.294  0.00  0.00    +0.000 A 
ATOM     27  F   UNL     1      -3.752  12.637  19.282  0.00  0.00    +0.000 F 
ATOM     28  C   UNL     1      -1.738  12.023  20.348  0.00  0.00    +0.000 A 
ATOM     29  C   UNL     1      -0.578  11.242  20.364  0.00  0.00    +0.000 A 
ENDBRANCH  22  23
ENDBRANCH  21  22
ENDBRANCH  20  21
ENDBRANCH  19  20
ENDBRANCH  18  19
ENDBRANCH  17  18
ENDBRANCH   3  17
TORSDOF 9
ENDMDL
