MODEL 1
REMARK VINA RESULT:      -7.7      0.000      0.000
REMARK  Name = 
REMARK  12 active torsions:
REMARK  status: ('A' for Active; 'I' for Inactive)
REMARK    1  A    between atoms: C_1  and  C_2
REMARK    2  A    between atoms: C_2  and  N_3
REMARK    3  A    between atoms: C_2  and  C_24
REMARK    4  A    between atoms: N_3  and  C_4
REMARK    5  A    between atoms: C_4  and  C_5
REMARK    6  A    between atoms: C_5  and  C_6
REMARK    7  A    between atoms: C_6  and  S_7
REMARK    8  A    between atoms: S_7  and  N_10
REMARK    9  A    between atoms: N_10  and  C_11
REMARK   10  A    between atoms: C_11  and  C_12
REMARK   11  A    between atoms: C_12  and  N_13
REMARK   12  A    between atoms: N_13  and  C_14
REMARK                            x       y       z     vdW  Elec       q    Type
REMARK                         _______ _______ _______ _____ _____    ______ ____
ROOT
ATOM      1  S   UNL     1       1.379   2.653  18.581  0.00  0.00    +0.000 S 
ATOM      2  O   UNL     1       0.078   1.912  18.214  0.00  0.00    +0.000 OA
ATOM      3  O   UNL     1       1.330   3.912  17.699  0.00  0.00    +0.000 OA
ENDROOT
BRANCH   1   4
ATOM      4  N   UNL     1       2.661   1.643  17.897  0.00  0.00    +0.000 NA
ATOM      5  H   UNL     1       3.023   2.165  17.064  0.00  0.00    +0.000 HD
BRANCH   4   6
ATOM      6  C   UNL     1       3.772   1.509  18.848  0.00  0.00    +0.000 C 
BRANCH   6   7
ATOM      7  C   UNL     1       4.181   2.885  19.381  0.00  0.00    +0.000 C 
BRANCH   7   8
ATOM      8  N   UNL     1       5.473   3.280  18.899  0.00  0.00    +0.000 N 
ATOM      9  H   UNL     1       6.284   2.802  19.316  0.00  0.00    +0.000 HD
BRANCH   8  10
ATOM     10  C   UNL     1       5.620   4.253  17.864  0.00  0.00    +0.000 A 
ATOM     11  C   UNL     1       4.874   4.128  16.660  0.00  0.00    +0.000 A 
ATOM     12  C   UNL     1       4.983   5.064  15.646  0.00  0.00    +0.000 A 
ATOM     13  C   UNL     1       5.829   6.159  15.793  0.00  0.00    +0.000 A 
ATOM     14  C   UNL     1       6.590   6.313  16.960  0.00  0.00    +0.000 A 
ATOM     15  C   UNL     1       7.446   7.415  17.090  0.00  0.00    +0.000 A 
ATOM     16  C   UNL     1       8.216   7.578  18.244  0.00  0.00    +0.000 A 
ATOM     17  C   UNL     1       8.142   6.642  19.270  0.00  0.00    +0.000 A 
ATOM     18  C   UNL     1       7.296   5.546  19.161  0.00  0.00    +0.000 A 
ATOM     19  C   UNL     1       6.499   5.354  18.004  0.00  0.00    +0.000 A 
ENDBRANCH   8  10
ENDBRANCH   7   8
ENDBRANCH   6   7
ENDBRANCH   4   6
ENDBRANCH   1   4
BRANCH   1  20
ATOM     20  C   UNL     1       1.540   3.092  20.330  0.00  0.00    +0.000 C 
BRANCH  20  21
ATOM     21  C   UNL     1       1.049   4.522  20.604  0.00  0.00    +0.000 C 
BRANCH  21  22
ATOM     22  C   UNL     1       2.238   5.476  20.673  0.00  0.00    +0.000 C 
BRANCH  22  23
ATOM     23  N   UNL     1       1.867   6.879  20.573  0.00  0.00    +0.000 NA
ATOM     24  H   UNL     1       0.885   6.974  20.922  0.00  0.00    +0.000 HD
BRANCH  23  26
ATOM     25  C   UNL     1       3.268   7.001  18.461  0.00  0.00    +0.000 C 
ATOM     26  C   UNL     1       1.917   7.320  19.160  0.00  0.00    +0.000 C 
BRANCH  26  27
ATOM     27  C   UNL     1       1.652   8.804  19.116  0.00  0.00    +0.000 A 
ATOM     28  C   UNL     1       0.954   9.420  20.165  0.00  0.00    +0.000 A 
ATOM     29  C   UNL     1       0.709  10.795  20.137  0.00  0.00    +0.000 A 
ATOM     30  C   UNL     1       1.157  11.565  19.061  0.00  0.00    +0.000 A 
ATOM     31  C   UNL     1       1.861  10.960  18.014  0.00  0.00    +0.000 A 
ATOM     32  C   UNL     1       2.111   9.586  18.040  0.00  0.00    +0.000 A 
ENDBRANCH  26  27
ENDBRANCH  23  26
ENDBRANCH  22  23
ENDBRANCH  21  22
ENDBRANCH  20  21
ENDBRANCH   1  20
TORSDOF 11
ENDMDL
MODEL 2
REMARK VINA RESULT:      -7.6      4.421      6.297
REMARK  Name = 
REMARK  12 active torsions:
REMARK  status: ('A' for Active; 'I' for Inactive)
REMARK    1  A    between atoms: C_1  and  C_2
REMARK    2  A    between atoms: C_2  and  N_3
REMARK    3  A    between atoms: C_2  and  C_24
REMARK    4  A    between atoms: N_3  and  C_4
REMARK    5  A    between atoms: C_4  and  C_5
REMARK    6  A    between atoms: C_5  and  C_6
REMARK    7  A    between atoms: C_6  and  S_7
REMARK    8  A    between atoms: S_7  and  N_10
REMARK    9  A    between atoms: N_10  and  C_11
REMARK   10  A    between atoms: C_11  and  C_12
REMARK   11  A    between atoms: C_12  and  N_13
REMARK   12  A    between atoms: N_13  and  C_14
REMARK                            x       y       z     vdW  Elec       q    Type
REMARK                         _______ _______ _______ _____ _____    ______ ____
ROOT
ATOM      1  S   UNL     1       6.993   5.523  16.741  0.00  0.00    +0.000 S 
ATOM      2  O   UNL     1       7.607   4.893  18.007  0.00  0.00    +0.000 OA
ATOM      3  O   UNL     1       7.669   4.748  15.597  0.00  0.00    +0.000 OA
ENDROOT
BRANCH   1   4
ATOM      4  N   UNL     1       7.686   7.150  16.687  0.00  0.00    +0.000 NA
ATOM      5  H   UNL     1       6.981   7.745  16.193  0.00  0.00    +0.000 HD
BRANCH   4   6
ATOM      6  C   UNL     1       7.841   7.689  18.045  0.00  0.00    +0.000 C 
BRANCH   6   7
ATOM      7  C   UNL     1       8.138   9.190  17.988  0.00  0.00    +0.000 C 
BRANCH   7   8
ATOM      8  N   UNL     1       9.048   9.591  19.022  0.00  0.00    +0.000 N 
ATOM      9  H   UNL     1       9.191   8.922  19.792  0.00  0.00    +0.000 HD
BRANCH   8  10
ATOM     10  C   UNL     1       9.749  10.833  18.961  0.00  0.00    +0.000 A 
ATOM     11  C   UNL     1      10.510  11.162  17.805  0.00  0.00    +0.000 A 
ATOM     12  C   UNL     1      11.188  12.366  17.710  0.00  0.00    +0.000 A 
ATOM     13  C   UNL     1      11.129  13.287  18.752  0.00  0.00    +0.000 A 
ATOM     14  C   UNL     1      10.398  12.995  19.912  0.00  0.00    +0.000 A 
ATOM     15  C   UNL     1      10.356  13.927  20.958  0.00  0.00    +0.000 A 
ATOM     16  C   UNL     1       9.638  13.647  22.123  0.00  0.00    +0.000 A 
ATOM     17  C   UNL     1       8.966  12.438  22.255  0.00  0.00    +0.000 A 
ATOM     18  C   UNL     1       8.992  11.504  21.228  0.00  0.00    +0.000 A 
ATOM     19  C   UNL     1       9.709  11.759  20.031  0.00  0.00    +0.000 A 
ENDBRANCH   8  10
ENDBRANCH   7   8
ENDBRANCH   6   7
ENDBRANCH   4   6
ENDBRANCH   1   4
BRANCH   1  20
ATOM     20  C   UNL     1       5.190   5.405  16.627  0.00  0.00    +0.000 C 
BRANCH  20  21
ATOM     21  C   UNL     1       4.646   4.212  17.427  0.00  0.00    +0.000 C 
BRANCH  21  22
ATOM     22  C   UNL     1       3.386   4.624  18.182  0.00  0.00    +0.000 C 
BRANCH  22  23
ATOM     23  N   UNL     1       3.271   6.060  18.388  0.00  0.00    +0.000 NA
ATOM     24  H   UNL     1       4.234   6.467  18.333  0.00  0.00    +0.000 HD
BRANCH  23  26
ATOM     25  C   UNL     1       1.734   5.240  20.232  0.00  0.00    +0.000 C 
ATOM     26  C   UNL     1       2.711   6.339  19.730  0.00  0.00    +0.000 C 
BRANCH  26  27
ATOM     27  C   UNL     1       2.006   7.671  19.682  0.00  0.00    +0.000 A 
ATOM     28  C   UNL     1       1.953   8.391  18.480  0.00  0.00    +0.000 A 
ATOM     29  C   UNL     1       1.298   9.623  18.424  0.00  0.00    +0.000 A 
ATOM     30  C   UNL     1       0.691  10.148  19.568  0.00  0.00    +0.000 A 
ATOM     31  C   UNL     1       0.732   9.432  20.770  0.00  0.00    +0.000 A 
ATOM     32  C   UNL     1       1.384   8.199  20.830  0.00  0.00    +0.000 A 
ENDBRANCH  26  27
ENDBRANCH  23  26
ENDBRANCH  22  23
ENDBRANCH  21  22
ENDBRANCH  20  21
ENDBRANCH   1  20
TORSDOF 11
ENDMDL
MODEL 3
REMARK VINA RESULT:      -7.6      1.922      6.832
REMARK  Name = 
REMARK  12 active torsions:
REMARK  status: ('A' for Active; 'I' for Inactive)
REMARK    1  A    between atoms: C_1  and  C_2
REMARK    2  A    between atoms: C_2  and  N_3
REMARK    3  A    between atoms: C_2  and  C_24
REMARK    4  A    between atoms: N_3  and  C_4
REMARK    5  A    between atoms: C_4  and  C_5
REMARK    6  A    between atoms: C_5  and  C_6
REMARK    7  A    between atoms: C_6  and  S_7
REMARK    8  A    between atoms: S_7  and  N_10
REMARK    9  A    between atoms: N_10  and  C_11
REMARK   10  A    between atoms: C_11  and  C_12
REMARK   11  A    between atoms: C_12  and  N_13
REMARK   12  A    between atoms: N_13  and  C_14
REMARK                            x       y       z     vdW  Elec       q    Type
REMARK                         _______ _______ _______ _____ _____    ______ ____
ROOT
ATOM      1  S   UNL     1       2.315   3.233  20.750  0.00  0.00    +0.000 S 
ATOM      2  O   UNL     1       1.639   2.716  22.036  0.00  0.00    +0.000 OA
ATOM      3  O   UNL     1       3.768   2.750  20.895  0.00  0.00    +0.000 OA
ENDROOT
BRANCH   1   4
ATOM      4  N   UNL     1       2.374   4.988  20.967  0.00  0.00    +0.000 NA
ATOM      5  H   UNL     1       3.226   5.177  21.545  0.00  0.00    +0.000 HD
BRANCH   4   6
ATOM      6  C   UNL     1       2.562   5.659  19.674  0.00  0.00    +0.000 C 
BRANCH   6   7
ATOM      7  C   UNL     1       2.674   7.173  19.876  0.00  0.00    +0.000 C 
BRANCH   7   8
ATOM      8  N   UNL     1       1.532   7.703  20.565  0.00  0.00    +0.000 N 
ATOM      9  H   UNL     1       1.188   7.159  21.369  0.00  0.00    +0.000 HD
BRANCH   8  10
ATOM     10  C   UNL     1       0.936   8.942  20.181  0.00  0.00    +0.000 A 
ATOM     11  C   UNL     1       1.087   9.421  18.851  0.00  0.00    +0.000 A 
ATOM     12  C   UNL     1       0.507  10.611  18.445  0.00  0.00    +0.000 A 
ATOM     13  C   UNL     1      -0.249  11.362  19.340  0.00  0.00    +0.000 A 
ATOM     14  C   UNL     1      -0.413  10.930  20.663  0.00  0.00    +0.000 A 
ATOM     15  C   UNL     1      -1.168  11.702  21.557  0.00  0.00    +0.000 A 
ATOM     16  C   UNL     1      -1.334  11.287  22.880  0.00  0.00    +0.000 A 
ATOM     17  C   UNL     1      -0.745  10.108  23.322  0.00  0.00    +0.000 A 
ATOM     18  C   UNL     1       0.003   9.327  22.449  0.00  0.00    +0.000 A 
ATOM     19  C   UNL     1       0.187   9.719  21.099  0.00  0.00    +0.000 A 
ENDBRANCH   8  10
ENDBRANCH   7   8
ENDBRANCH   6   7
ENDBRANCH   4   6
ENDBRANCH   1   4
BRANCH   1  20
ATOM     20  C   UNL     1       1.583   2.630  19.208  0.00  0.00    +0.000 C 
BRANCH  20  21
ATOM     21  C   UNL     1       2.290   3.215  17.976  0.00  0.00    +0.000 C 
BRANCH  21  22
ATOM     22  C   UNL     1       3.568   2.431  17.689  0.00  0.00    +0.000 C 
BRANCH  22  23
ATOM     23  N   UNL     1       4.786   3.179  17.964  0.00  0.00    +0.000 NA
ATOM     24  H   UNL     1       4.771   3.449  18.976  0.00  0.00    +0.000 HD
BRANCH  23  26
ATOM     25  C   UNL     1       5.010   4.132  15.624  0.00  0.00    +0.000 C 
ATOM     26  C   UNL     1       4.825   4.410  17.142  0.00  0.00    +0.000 C 
BRANCH  26  27
ATOM     27  C   UNL     1       5.947   5.282  17.646  0.00  0.00    +0.000 A 
ATOM     28  C   UNL     1       6.517   5.031  18.903  0.00  0.00    +0.000 A 
ATOM     29  C   UNL     1       7.560   5.829  19.376  0.00  0.00    +0.000 A 
ATOM     30  C   UNL     1       8.042   6.886  18.600  0.00  0.00    +0.000 A 
ATOM     31  C   UNL     1       7.484   7.139  17.342  0.00  0.00    +0.000 A 
ATOM     32  C   UNL     1       6.443   6.342  16.864  0.00  0.00    +0.000 A 
ENDBRANCH  26  27
ENDBRANCH  23  26
ENDBRANCH  22  23
ENDBRANCH  21  22
ENDBRANCH  20  21
ENDBRANCH   1  20
TORSDOF 11
ENDMDL
MODEL 4
REMARK VINA RESULT:      -7.5      4.785      7.063
REMARK  Name = 
REMARK  12 active torsions:
REMARK  status: ('A' for Active; 'I' for Inactive)
REMARK    1  A    between atoms: C_1  and  C_2
REMARK    2  A    between atoms: C_2  and  N_3
REMARK    3  A    between atoms: C_2  and  C_24
REMARK    4  A    between atoms: N_3  and  C_4
REMARK    5  A    between atoms: C_4  and  C_5
REMARK    6  A    between atoms: C_5  and  C_6
REMARK    7  A    between atoms: C_6  and  S_7
REMARK    8  A    between atoms: S_7  and  N_10
REMARK    9  A    between atoms: N_10  and  C_11
REMARK   10  A    between atoms: C_11  and  C_12
REMARK   11  A    between atoms: C_12  and  N_13
REMARK   12  A    between atoms: N_13  and  C_14
REMARK                            x       y       z     vdW  Elec       q    Type
REMARK                         _______ _______ _______ _____ _____    ______ ____
ROOT
ATOM      1  S   UNL     1       7.220   5.815  18.432  0.00  0.00    +0.000 S 
ATOM      2  O   UNL     1       6.564   5.414  19.769  0.00  0.00    +0.000 OA
ATOM      3  O   UNL     1       8.089   4.594  18.084  0.00  0.00    +0.000 OA
ENDROOT
BRANCH   1   4
ATOM      4  N   UNL     1       8.357   7.097  18.875  0.00  0.00    +0.000 NA
ATOM      5  H   UNL     1       9.308   6.731  18.635  0.00  0.00    +0.000 HD
BRANCH   4   6
ATOM      6  C   UNL     1       8.127   8.293  18.054  0.00  0.00    +0.000 C 
BRANCH   6   7
ATOM      7  C   UNL     1       8.820   9.506  18.682  0.00  0.00    +0.000 C 
BRANCH   7   8
ATOM      8  N   UNL     1       8.604  10.698  17.914  0.00  0.00    +0.000 N 
ATOM      9  H   UNL     1       7.716  10.755  17.395  0.00  0.00    +0.000 HD
BRANCH   8  10
ATOM     10  C   UNL     1       9.550  11.767  17.908  0.00  0.00    +0.000 A 
ATOM     11  C   UNL     1      10.943  11.481  17.929  0.00  0.00    +0.000 A 
ATOM     12  C   UNL     1      11.886  12.496  17.908  0.00  0.00    +0.000 A 
ATOM     13  C   UNL     1      11.480  13.826  17.857  0.00  0.00    +0.000 A 
ATOM     14  C   UNL     1      10.116  14.149  17.845  0.00  0.00    +0.000 A 
ATOM     15  C   UNL     1       9.722  15.494  17.805  0.00  0.00    +0.000 A 
ATOM     16  C   UNL     1       8.367  15.832  17.799  0.00  0.00    +0.000 A 
ATOM     17  C   UNL     1       7.399  14.835  17.842  0.00  0.00    +0.000 A 
ATOM     18  C   UNL     1       7.770  13.497  17.878  0.00  0.00    +0.000 A 
ATOM     19  C   UNL     1       9.138  13.121  17.880  0.00  0.00    +0.000 A 
ENDBRANCH   8  10
ENDBRANCH   7   8
ENDBRANCH   6   7
ENDBRANCH   4   6
ENDBRANCH   1   4
BRANCH   1  20
ATOM     20  C   UNL     1       6.060   6.187  17.094  0.00  0.00    +0.000 C 
BRANCH  20  21
ATOM     21  C   UNL     1       5.788   4.955  16.217  0.00  0.00    +0.000 C 
BRANCH  21  22
ATOM     22  C   UNL     1       4.955   3.938  16.992  0.00  0.00    +0.000 C 
BRANCH  22  23
ATOM     23  N   UNL     1       3.529   4.229  16.990  0.00  0.00    +0.000 NA
ATOM     24  H   UNL     1       3.407   5.218  16.669  0.00  0.00    +0.000 HD
BRANCH  23  26
ATOM     25  C   UNL     1       1.759   3.144  18.448  0.00  0.00    +0.000 C 
ATOM     26  C   UNL     1       2.980   4.101  18.360  0.00  0.00    +0.000 C 
BRANCH  26  27
ATOM     27  C   UNL     1       2.594   5.475  18.847  0.00  0.00    +0.000 A 
ATOM     28  C   UNL     1       2.697   6.577  17.985  0.00  0.00    +0.000 A 
ATOM     29  C   UNL     1       2.336   7.852  18.424  0.00  0.00    +0.000 A 
ATOM     30  C   UNL     1       1.871   8.039  19.728  0.00  0.00    +0.000 A 
ATOM     31  C   UNL     1       1.757   6.944  20.592  0.00  0.00    +0.000 A 
ATOM     32  C   UNL     1       2.115   5.667  20.156  0.00  0.00    +0.000 A 
ENDBRANCH  26  27
ENDBRANCH  23  26
ENDBRANCH  22  23
ENDBRANCH  21  22
ENDBRANCH  20  21
ENDBRANCH   1  20
TORSDOF 11
ENDMDL
MODEL 5
REMARK VINA RESULT:      -7.5      2.068      7.373
REMARK  Name = 
REMARK  12 active torsions:
REMARK  status: ('A' for Active; 'I' for Inactive)
REMARK    1  A    between atoms: C_1  and  C_2
REMARK    2  A    between atoms: C_2  and  N_3
REMARK    3  A    between atoms: C_2  and  C_24
REMARK    4  A    between atoms: N_3  and  C_4
REMARK    5  A    between atoms: C_4  and  C_5
REMARK    6  A    between atoms: C_5  and  C_6
REMARK    7  A    between atoms: C_6  and  S_7
REMARK    8  A    between atoms: S_7  and  N_10
REMARK    9  A    between atoms: N_10  and  C_11
REMARK   10  A    between atoms: C_11  and  C_12
REMARK   11  A    between atoms: C_12  and  N_13
REMARK   12  A    between atoms: N_13  and  C_14
REMARK                            x       y       z     vdW  Elec       q    Type
REMARK                         _______ _______ _______ _____ _____    ______ ____
ROOT
ATOM      1  S   UNL     1       2.162   3.276  20.725  0.00  0.00    +0.000 S 
ATOM      2  O   UNL     1       1.303   2.647  21.840  0.00  0.00    +0.000 OA
ATOM      3  O   UNL     1       3.511   2.549  20.864  0.00  0.00    +0.000 OA
ENDROOT
BRANCH   1   4
ATOM      4  N   UNL     1       2.453   4.930  21.281  0.00  0.00    +0.000 NA
ATOM      5  H   UNL     1       3.464   5.123  21.089  0.00  0.00    +0.000 HD
BRANCH   4   6
ATOM      6  C   UNL     1       1.667   5.885  20.490  0.00  0.00    +0.000 C 
BRANCH   6   7
ATOM      7  C   UNL     1       1.919   7.313  20.981  0.00  0.00    +0.000 C 
BRANCH   7   8
ATOM      8  N   UNL     1       1.068   8.260  20.319  0.00  0.00    +0.000 N 
ATOM      9  H   UNL     1       0.998   8.177  19.295  0.00  0.00    +0.000 HD
BRANCH   8  10
ATOM     10  C   UNL     1       0.326   9.237  21.050  0.00  0.00    +0.000 A 
ATOM     11  C   UNL     1       0.215   9.133  22.464  0.00  0.00    +0.000 A 
ATOM     12  C   UNL     1      -0.485  10.073  23.201  0.00  0.00    +0.000 A 
ATOM     13  C   UNL     1      -1.092  11.152  22.564  0.00  0.00    +0.000 A 
ATOM     14  C   UNL     1      -1.015  11.283  21.171  0.00  0.00    +0.000 A 
ATOM     15  C   UNL     1      -1.640  12.369  20.542  0.00  0.00    +0.000 A 
ATOM     16  C   UNL     1      -1.577  12.510  19.153  0.00  0.00    +0.000 A 
ATOM     17  C   UNL     1      -0.900  11.570  18.386  0.00  0.00    +0.000 A 
ATOM     18  C   UNL     1      -0.271  10.490  18.992  0.00  0.00    +0.000 A 
ATOM     19  C   UNL     1      -0.312  10.321  20.399  0.00  0.00    +0.000 A 
ENDBRANCH   8  10
ENDBRANCH   7   8
ENDBRANCH   6   7
ENDBRANCH   4   6
ENDBRANCH   1   4
BRANCH   1  20
ATOM     20  C   UNL     1       1.496   3.089  19.052  0.00  0.00    +0.000 C 
BRANCH  20  21
ATOM     21  C   UNL     1       2.567   2.601  18.064  0.00  0.00    +0.000 C 
BRANCH  21  22
ATOM     22  C   UNL     1       3.431   3.774  17.611  0.00  0.00    +0.000 C 
BRANCH  22  23
ATOM     23  N   UNL     1       4.720   3.375  17.067  0.00  0.00    +0.000 NA
ATOM     24  H   UNL     1       5.379   3.248  17.871  0.00  0.00    +0.000 HD
BRANCH  23  26
ATOM     25  C   UNL     1       5.975   3.880  14.922  0.00  0.00    +0.000 C 
ATOM     26  C   UNL     1       5.249   4.435  16.179  0.00  0.00    +0.000 C 
BRANCH  26  27
ATOM     27  C   UNL     1       6.192   5.297  16.979  0.00  0.00    +0.000 A 
ATOM     28  C   UNL     1       6.961   4.727  18.005  0.00  0.00    +0.000 A 
ATOM     29  C   UNL     1       7.842   5.516  18.747  0.00  0.00    +0.000 A 
ATOM     30  C   UNL     1       7.962   6.881  18.474  0.00  0.00    +0.000 A 
ATOM     31  C   UNL     1       7.205   7.456  17.448  0.00  0.00    +0.000 A 
ATOM     32  C   UNL     1       6.325   6.671  16.701  0.00  0.00    +0.000 A 
ENDBRANCH  26  27
ENDBRANCH  23  26
ENDBRANCH  22  23
ENDBRANCH  21  22
ENDBRANCH  20  21
ENDBRANCH   1  20
TORSDOF 11
ENDMDL
MODEL 6
REMARK VINA RESULT:      -7.5      4.460      7.098
REMARK  Name = 
REMARK  12 active torsions:
REMARK  status: ('A' for Active; 'I' for Inactive)
REMARK    1  A    between atoms: C_1  and  C_2
REMARK    2  A    between atoms: C_2  and  N_3
REMARK    3  A    between atoms: C_2  and  C_24
REMARK    4  A    between atoms: N_3  and  C_4
REMARK    5  A    between atoms: C_4  and  C_5
REMARK    6  A    between atoms: C_5  and  C_6
REMARK    7  A    between atoms: C_6  and  S_7
REMARK    8  A    between atoms: S_7  and  N_10
REMARK    9  A    between atoms: N_10  and  C_11
REMARK   10  A    between atoms: C_11  and  C_12
REMARK   11  A    between atoms: C_12  and  N_13
REMARK   12  A    between atoms: N_13  and  C_14
REMARK                            x       y       z     vdW  Elec       q    Type
REMARK                         _______ _______ _______ _____ _____    ______ ____
ROOT
ATOM      1  S   UNL     1       6.935   5.367  18.284  0.00  0.00    +0.000 S 
ATOM      2  O   UNL     1       7.151   5.385  19.810  0.00  0.00    +0.000 OA
ATOM      3  O   UNL     1       8.064   4.453  17.778  0.00  0.00    +0.000 OA
ENDROOT
BRANCH   1   4
ATOM      4  N   UNL     1       7.375   7.000  17.764  0.00  0.00    +0.000 NA
ATOM      5  H   UNL     1       6.502   7.572  17.847  0.00  0.00    +0.000 HD
BRANCH   4   6
ATOM      6  C   UNL     1       8.369   7.579  18.677  0.00  0.00    +0.000 C 
BRANCH   6   7
ATOM      7  C   UNL     1       8.437   9.097  18.489  0.00  0.00    +0.000 C 
BRANCH   7   8
ATOM      8  N   UNL     1       9.601   9.658  19.112  0.00  0.00    +0.000 N 
ATOM      9  H   UNL     1      10.462   9.094  19.069  0.00  0.00    +0.000 HD
BRANCH   8  10
ATOM     10  C   UNL     1       9.576  10.950  19.721  0.00  0.00    +0.000 A 
ATOM     11  C   UNL     1       9.086  11.100  21.047  0.00  0.00    +0.000 A 
ATOM     12  C   UNL     1       9.064  12.337  21.670  0.00  0.00    +0.000 A 
ATOM     13  C   UNL     1       9.533  13.465  21.002  0.00  0.00    +0.000 A 
ATOM     14  C   UNL     1      10.013  13.360  19.689  0.00  0.00    +0.000 A 
ATOM     15  C   UNL     1      10.472  14.505  19.025  0.00  0.00    +0.000 A 
ATOM     16  C   UNL     1      10.948  14.418  17.715  0.00  0.00    +0.000 A 
ATOM     17  C   UNL     1      10.962  13.193  17.058  0.00  0.00    +0.000 A 
ATOM     18  C   UNL     1      10.515  12.046  17.701  0.00  0.00    +0.000 A 
ATOM     19  C   UNL     1      10.030  12.101  19.033  0.00  0.00    +0.000 A 
ENDBRANCH   8  10
ENDBRANCH   7   8
ENDBRANCH   6   7
ENDBRANCH   4   6
ENDBRANCH   1   4
BRANCH   1  20
ATOM     20  C   UNL     1       5.318   4.754  17.749  0.00  0.00    +0.000 C 
BRANCH  20  21
ATOM     21  C   UNL     1       4.676   5.678  16.704  0.00  0.00    +0.000 C 
BRANCH  21  22
ATOM     22  C   UNL     1       3.703   6.637  17.384  0.00  0.00    +0.000 C 
BRANCH  22  23
ATOM     23  N   UNL     1       3.632   6.470  18.828  0.00  0.00    +0.000 NA
ATOM     24  H   UNL     1       4.107   5.568  19.067  0.00  0.00    +0.000 HD
BRANCH  23  26
ATOM     25  C   UNL     1       1.845   7.461  20.331  0.00  0.00    +0.000 C 
ATOM     26  C   UNL     1       2.218   6.395  19.264  0.00  0.00    +0.000 C 
BRANCH  26  27
ATOM     27  C   UNL     1       1.962   5.012  19.806  0.00  0.00    +0.000 A 
ATOM     28  C   UNL     1       1.444   4.016  18.965  0.00  0.00    +0.000 A 
ATOM     29  C   UNL     1       1.209   2.730  19.456  0.00  0.00    +0.000 A 
ATOM     30  C   UNL     1       1.486   2.428  20.791  0.00  0.00    +0.000 A 
ATOM     31  C   UNL     1       2.011   3.412  21.635  0.00  0.00    +0.000 A 
ATOM     32  C   UNL     1       2.250   4.699  21.148  0.00  0.00    +0.000 A 
ENDBRANCH  26  27
ENDBRANCH  23  26
ENDBRANCH  22  23
ENDBRANCH  21  22
ENDBRANCH  20  21
ENDBRANCH   1  20
TORSDOF 11
ENDMDL
MODEL 7
REMARK VINA RESULT:      -7.5      2.114      7.194
REMARK  Name = 
REMARK  12 active torsions:
REMARK  status: ('A' for Active; 'I' for Inactive)
REMARK    1  A    between atoms: C_1  and  C_2
REMARK    2  A    between atoms: C_2  and  N_3
REMARK    3  A    between atoms: C_2  and  C_24
REMARK    4  A    between atoms: N_3  and  C_4
REMARK    5  A    between atoms: C_4  and  C_5
REMARK    6  A    between atoms: C_5  and  C_6
REMARK    7  A    between atoms: C_6  and  S_7
REMARK    8  A    between atoms: S_7  and  N_10
REMARK    9  A    between atoms: N_10  and  C_11
REMARK   10  A    between atoms: C_11  and  C_12
REMARK   11  A    between atoms: C_12  and  N_13
REMARK   12  A    between atoms: N_13  and  C_14
REMARK                            x       y       z     vdW  Elec       q    Type
REMARK                         _______ _______ _______ _____ _____    ______ ____
ROOT
ATOM      1  S   UNL     1       3.228   2.962  18.502  0.00  0.00    +0.000 S 
ATOM      2  O   UNL     1       3.036   3.392  17.034  0.00  0.00    +0.000 OA
ATOM      3  O   UNL     1       2.869   1.467  18.482  0.00  0.00    +0.000 OA
ENDROOT
BRANCH   1   4
ATOM      4  N   UNL     1       1.905   3.758  19.365  0.00  0.00    +0.000 NA
ATOM      5  H   UNL     1       2.062   3.556  20.379  0.00  0.00    +0.000 HD
BRANCH   4   6
ATOM      6  C   UNL     1       1.980   5.215  19.191  0.00  0.00    +0.000 C 
BRANCH   6   7
ATOM      7  C   UNL     1       1.712   5.921  20.523  0.00  0.00    +0.000 C 
BRANCH   7   8
ATOM      8  N   UNL     1       2.296   7.231  20.556  0.00  0.00    +0.000 N 
ATOM      9  H   UNL     1       3.259   7.295  20.914  0.00  0.00    +0.000 HD
BRANCH   8  10
ATOM     10  C   UNL     1       1.591   8.377  20.077  0.00  0.00    +0.000 A 
ATOM     11  C   UNL     1       1.682   8.744  18.706  0.00  0.00    +0.000 A 
ATOM     12  C   UNL     1       0.998   9.840  18.209  0.00  0.00    +0.000 A 
ATOM     13  C   UNL     1       0.195  10.604  19.050  0.00  0.00    +0.000 A 
ATOM     14  C   UNL     1       0.087  10.281  20.410  0.00  0.00    +0.000 A 
ATOM     15  C   UNL     1      -0.717  11.066  21.248  0.00  0.00    +0.000 A 
ATOM     16  C   UNL     1      -0.829  10.760  22.606  0.00  0.00    +0.000 A 
ATOM     17  C   UNL     1      -0.136   9.679  23.138  0.00  0.00    +0.000 A 
ATOM     18  C   UNL     1       0.662   8.887  22.322  0.00  0.00    +0.000 A 
ATOM     19  C   UNL     1       0.793   9.168  20.938  0.00  0.00    +0.000 A 
ENDBRANCH   8  10
ENDBRANCH   7   8
ENDBRANCH   6   7
ENDBRANCH   4   6
ENDBRANCH   1   4
BRANCH   1  20
ATOM     20  C   UNL     1       4.895   3.219  19.159  0.00  0.00    +0.000 C 
BRANCH  20  21
ATOM     21  C   UNL     1       5.290   4.703  19.148  0.00  0.00    +0.000 C 
BRANCH  21  22
ATOM     22  C   UNL     1       6.537   4.903  18.293  0.00  0.00    +0.000 C 
BRANCH  22  23
ATOM     23  N   UNL     1       6.411   4.374  16.943  0.00  0.00    +0.000 NA
ATOM     24  H   UNL     1       7.247   3.770  16.759  0.00  0.00    +0.000 HD
BRANCH  23  26
ATOM     25  C   UNL     1       5.117   6.359  16.038  0.00  0.00    +0.000 C 
ATOM     26  C   UNL     1       6.397   5.481  15.960  0.00  0.00    +0.000 C 
BRANCH  26  27
ATOM     27  C   UNL     1       6.534   4.892  14.579  0.00  0.00    +0.000 A 
ATOM     28  C   UNL     1       5.619   3.924  14.138  0.00  0.00    +0.000 A 
ATOM     29  C   UNL     1       5.734   3.377  12.859  0.00  0.00    +0.000 A 
ATOM     30  C   UNL     1       6.763   3.789  12.009  0.00  0.00    +0.000 A 
ATOM     31  C   UNL     1       7.675   4.759  12.438  0.00  0.00    +0.000 A 
ATOM     32  C   UNL     1       7.563   5.312  13.715  0.00  0.00    +0.000 A 
ENDBRANCH  26  27
ENDBRANCH  23  26
ENDBRANCH  22  23
ENDBRANCH  21  22
ENDBRANCH  20  21
ENDBRANCH   1  20
TORSDOF 11
ENDMDL
MODEL 8
REMARK VINA RESULT:      -7.5      4.437      7.377
REMARK  Name = 
REMARK  12 active torsions:
REMARK  status: ('A' for Active; 'I' for Inactive)
REMARK    1  A    between atoms: C_1  and  C_2
REMARK    2  A    between atoms: C_2  and  N_3
REMARK    3  A    between atoms: C_2  and  C_24
REMARK    4  A    between atoms: N_3  and  C_4
REMARK    5  A    between atoms: C_4  and  C_5
REMARK    6  A    between atoms: C_5  and  C_6
REMARK    7  A    between atoms: C_6  and  S_7
REMARK    8  A    between atoms: S_7  and  N_10
REMARK    9  A    between atoms: N_10  and  C_11
REMARK   10  A    between atoms: C_11  and  C_12
REMARK   11  A    between atoms: C_12  and  N_13
REMARK   12  A    between atoms: N_13  and  C_14
REMARK                            x       y       z     vdW  Elec       q    Type
REMARK                         _______ _______ _______ _____ _____    ______ ____
ROOT
ATOM      1  S   UNL     1       7.410   5.765  18.447  0.00  0.00    +0.000 S 
ATOM      2  O   UNL     1       8.203   4.443  18.483  0.00  0.00    +0.000 OA
ATOM      3  O   UNL     1       6.285   5.530  19.470  0.00  0.00    +0.000 OA
ENDROOT
BRANCH   1   4
ATOM      4  N   UNL     1       6.621   5.754  16.863  0.00  0.00    +0.000 NA
ATOM      5  H   UNL     1       7.188   6.392  16.257  0.00  0.00    +0.000 HD
BRANCH   4   6
ATOM      6  C   UNL     1       6.682   4.413  16.268  0.00  0.00    +0.000 C 
BRANCH   6   7
ATOM      7  C   UNL     1       5.296   3.989  15.776  0.00  0.00    +0.000 C 
BRANCH   7   8
ATOM      8  N   UNL     1       4.249   4.647  16.504  0.00  0.00    +0.000 N 
ATOM      9  H   UNL     1       3.986   5.588  16.179  0.00  0.00    +0.000 HD
BRANCH   8  10
ATOM     10  C   UNL     1       3.581   4.011  17.593  0.00  0.00    +0.000 A 
ATOM     11  C   UNL     1       3.538   2.592  17.669  0.00  0.00    +0.000 A 
ATOM     12  C   UNL     1       2.912   1.946  18.721  0.00  0.00    +0.000 A 
ATOM     13  C   UNL     1       2.313   2.684  19.738  0.00  0.00    +0.000 A 
ATOM     14  C   UNL     1       2.323   4.085  19.694  0.00  0.00    +0.000 A 
ATOM     15  C   UNL     1       1.707   4.815  20.719  0.00  0.00    +0.000 A 
ATOM     16  C   UNL     1       1.704   6.212  20.687  0.00  0.00    +0.000 A 
ATOM     17  C   UNL     1       2.307   6.887  19.631  0.00  0.00    +0.000 A 
ATOM     18  C   UNL     1       2.927   6.180  18.609  0.00  0.00    +0.000 A 
ATOM     19  C   UNL     1       2.951   4.762  18.615  0.00  0.00    +0.000 A 
ENDBRANCH   8  10
ENDBRANCH   7   8
ENDBRANCH   6   7
ENDBRANCH   4   6
ENDBRANCH   1   4
BRANCH   1  20
ATOM     20  C   UNL     1       8.368   7.242  18.866  0.00  0.00    +0.000 C 
BRANCH  20  21
ATOM     21  C   UNL     1       8.158   8.367  17.841  0.00  0.00    +0.000 C 
BRANCH  21  22
ATOM     22  C   UNL     1       8.335   9.725  18.514  0.00  0.00    +0.000 C 
BRANCH  22  23
ATOM     23  N   UNL     1       9.330  10.570  17.871  0.00  0.00    +0.000 NA
ATOM     24  H   UNL     1       9.891   9.965  17.226  0.00  0.00    +0.000 HD
BRANCH  23  26
ATOM     25  C   UNL     1       9.630  11.170  20.318  0.00  0.00    +0.000 C 
ATOM     26  C   UNL     1      10.236  11.154  18.887  0.00  0.00    +0.000 C 
BRANCH  26  27
ATOM     27  C   UNL     1      10.585  12.557  18.460  0.00  0.00    +0.000 A 
ATOM     28  C   UNL     1      11.199  12.778  17.218  0.00  0.00    +0.000 A 
ATOM     29  C   UNL     1      11.521  14.074  16.812  0.00  0.00    +0.000 A 
ATOM     30  C   UNL     1      11.236  15.161  17.641  0.00  0.00    +0.000 A 
ATOM     31  C   UNL     1      10.616  14.951  18.878  0.00  0.00    +0.000 A 
ATOM     32  C   UNL     1      10.290  13.657  19.288  0.00  0.00    +0.000 A 
ENDBRANCH  26  27
ENDBRANCH  23  26
ENDBRANCH  22  23
ENDBRANCH  21  22
ENDBRANCH  20  21
ENDBRANCH   1  20
TORSDOF 11
ENDMDL
MODEL 9
REMARK VINA RESULT:      -7.4      4.752      6.863
REMARK  Name = 
REMARK  12 active torsions:
REMARK  status: ('A' for Active; 'I' for Inactive)
REMARK    1  A    between atoms: C_1  and  C_2
REMARK    2  A    between atoms: C_2  and  N_3
REMARK    3  A    between atoms: C_2  and  C_24
REMARK    4  A    between atoms: N_3  and  C_4
REMARK    5  A    between atoms: C_4  and  C_5
REMARK    6  A    between atoms: C_5  and  C_6
REMARK    7  A    between atoms: C_6  and  S_7
REMARK    8  A    between atoms: S_7  and  N_10
REMARK    9  A    between atoms: N_10  and  C_11
REMARK   10  A    between atoms: C_11  and  C_12
REMARK   11  A    between atoms: C_12  and  N_13
REMARK   12  A    between atoms: N_13  and  C_14
REMARK                            x       y       z     vdW  Elec       q    Type
REMARK                         _______ _______ _______ _____ _____    ______ ____
ROOT
ATOM      1  S   UNL     1       0.724  10.116  20.272  0.00  0.00    +0.000 S 
ATOM      2  O   UNL     1       1.403  11.041  21.301  0.00  0.00    +0.000 OA
ATOM      3  O   UNL     1       1.036   8.706  20.803  0.00  0.00    +0.000 OA
ENDROOT
BRANCH   1   4
ATOM      4  N   UNL     1       1.702  10.300  18.809  0.00  0.00    +0.000 NA
ATOM      5  H   UNL     1       2.699  10.264  19.125  0.00  0.00    +0.000 HD
BRANCH   4   6
ATOM      6  C   UNL     1       1.488   9.165  17.902  0.00  0.00    +0.000 C 
BRANCH   6   7
ATOM      7  C   UNL     1       2.740   8.286  17.851  0.00  0.00    +0.000 C 
BRANCH   7   8
ATOM      8  N   UNL     1       2.532   7.025  18.505  0.00  0.00    +0.000 N 
ATOM      9  H   UNL     1       1.908   7.031  19.324  0.00  0.00    +0.000 HD
BRANCH   8  10
ATOM     10  C   UNL     1       3.124   5.822  18.015  0.00  0.00    +0.000 A 
ATOM     11  C   UNL     1       4.236   5.886  17.131  0.00  0.00    +0.000 A 
ATOM     12  C   UNL     1       4.841   4.736  16.653  0.00  0.00    +0.000 A 
ATOM     13  C   UNL     1       4.371   3.485  17.040  0.00  0.00    +0.000 A 
ATOM     14  C   UNL     1       3.270   3.379  17.902  0.00  0.00    +0.000 A 
ATOM     15  C   UNL     1       2.801   2.113  18.275  0.00  0.00    +0.000 A 
ATOM     16  C   UNL     1       1.701   1.991  19.128  0.00  0.00    +0.000 A 
ATOM     17  C   UNL     1       1.060   3.129  19.606  0.00  0.00    +0.000 A 
ATOM     18  C   UNL     1       1.514   4.392  19.251  0.00  0.00    +0.000 A 
ATOM     19  C   UNL     1       2.630   4.549  18.391  0.00  0.00    +0.000 A 
ENDBRANCH   8  10
ENDBRANCH   7   8
ENDBRANCH   6   7
ENDBRANCH   4   6
ENDBRANCH   1   4
BRANCH   1  20
ATOM     20  C   UNL     1      -1.061  10.358  20.090  0.00  0.00    +0.000 C 
BRANCH  20  21
ATOM     21  C   UNL     1      -1.487  10.370  18.614  0.00  0.00    +0.000 C 
BRANCH  21  22
ATOM     22  C   UNL     1      -1.904  11.779  18.204  0.00  0.00    +0.000 C 
BRANCH  22  23
ATOM     23  N   UNL     1      -2.370  11.874  16.829  0.00  0.00    +0.000 NA
ATOM     24  H   UNL     1      -2.843  12.801  16.716  0.00  0.00    +0.000 HD
BRANCH  23  26
ATOM     25  C   UNL     1      -3.506  10.489  15.033  0.00  0.00    +0.000 C 
ATOM     26  C   UNL     1      -3.350  10.800  16.547  0.00  0.00    +0.000 C 
BRANCH  26  27
ATOM     27  C   UNL     1      -4.680  11.208  17.128  0.00  0.00    +0.000 A 
ATOM     28  C   UNL     1      -5.259  10.445  18.154  0.00  0.00    +0.000 A 
ATOM     29  C   UNL     1      -6.487  10.818  18.703  0.00  0.00    +0.000 A 
ATOM     30  C   UNL     1      -7.150  11.954  18.231  0.00  0.00    +0.000 A 
ATOM     31  C   UNL     1      -6.577  12.725  17.214  0.00  0.00    +0.000 A 
ATOM     32  C   UNL     1      -5.347  12.358  16.665  0.00  0.00    +0.000 A 
ENDBRANCH  26  27
ENDBRANCH  23  26
ENDBRANCH  22  23
ENDBRANCH  21  22
ENDBRANCH  20  21
ENDBRANCH   1  20
TORSDOF 11
ENDMDL
