MODEL 1
REMARK VINA RESULT:      -7.9      0.000      0.000
REMARK  Name = 
REMARK  3 active torsions:
REMARK  status: ('A' for Active; 'I' for Inactive)
REMARK    1  A    between atoms: C_2  and  C_3
REMARK    2  A    between atoms: C_5  and  N_6
REMARK    3  A    between atoms: C_18  and  N_19
REMARK                            x       y       z     vdW  Elec       q    Type
REMARK                         _______ _______ _______ _____ _____    ______ ____
ROOT
ATOM      1  O   UNL     1       6.337   4.379  19.873  0.00  0.00    +0.000 OA
ATOM      2  C   UNL     1       5.456   4.523  19.028  0.00  0.00    +0.000 C 
ATOM      3  N   UNL     1       5.728   4.614  17.656  0.00  0.00    +0.000 N 
ATOM      4  C   UNL     1       7.110   4.520  17.206  0.00  0.00    +0.000 C 
ATOM      5  C   UNL     1       7.457   5.602  16.177  0.00  0.00    +0.000 C 
ATOM      6  C   UNL     1       6.398   5.797  15.078  0.00  0.00    +0.000 C 
ATOM      7  C   UNL     1       4.985   5.839  15.680  0.00  0.00    +0.000 C 
ATOM      8  C   UNL     1       4.738   4.630  16.570  0.00  0.00    +0.000 C 
ENDROOT
BRANCH   2   9
ATOM      9  C   UNL     1       4.050   4.642  19.495  0.00  0.00    +0.000 A 
ATOM     10  C   UNL     1       3.558   5.922  19.781  0.00  0.00    +0.000 A 
ATOM     11  C   UNL     1       2.197   6.138  20.024  0.00  0.00    +0.000 A 
ATOM     12  C   UNL     1       1.340   5.039  20.126  0.00  0.00    +0.000 A 
ATOM     13  C   UNL     1       1.853   3.744  19.964  0.00  0.00    +0.000 A 
ATOM     14  C   UNL     1       3.201   3.540  19.636  0.00  0.00    +0.000 A 
ATOM     15 CL   UNL     1       3.709   1.910  19.382  0.00  0.00    +0.000 Cl
BRANCH  11  16
ATOM     16  N   UNL     1       1.727   7.474  20.104  0.00  0.00    +0.000 N 
ATOM     17  C   UNL     1       1.110   8.107  21.155  0.00  0.00    +0.000 A 
ATOM     18  C   UNL     1       0.829   9.393  20.748  0.00  0.00    +0.000 A 
ATOM     19  C   UNL     1       1.283   9.449  19.424  0.00  0.00    +0.000 A 
ATOM     20  N   UNL     1       1.820   8.298  19.023  0.00  0.00    +0.000 NA
ENDBRANCH  11  16
ENDBRANCH   2   9
BRANCH   6  21
ATOM     21  N   UNL     1       6.499   4.854  13.953  0.00  0.00    +0.000 N 
ATOM     22  C   UNL     1       5.470   3.924  13.550  0.00  0.00    +0.000 C 
ATOM     23  C   UNL     1       6.170   3.045  12.543  0.00  0.00    +0.000 C 
ATOM     24  C   UNL     1       7.146   3.995  11.862  0.00  0.00    +0.000 C 
ATOM     25  C   UNL     1       7.468   4.986  12.956  0.00  0.00    +0.000 C 
ATOM     26  O   UNL     1       8.382   5.793  12.926  0.00  0.00    +0.000 OA
ENDBRANCH   6  21
TORSDOF 3
ENDMDL
MODEL 2
REMARK VINA RESULT:      -6.8      2.993      7.479
REMARK  Name = 
REMARK  3 active torsions:
REMARK  status: ('A' for Active; 'I' for Inactive)
REMARK    1  A    between atoms: C_2  and  C_3
REMARK    2  A    between atoms: C_5  and  N_6
REMARK    3  A    between atoms: C_18  and  N_19
REMARK                            x       y       z     vdW  Elec       q    Type
REMARK                         _______ _______ _______ _____ _____    ______ ____
ROOT
ATOM      1  O   UNL     1       2.231   5.854  21.214  0.00  0.00    +0.000 OA
ATOM      2  C   UNL     1       2.235   6.240  20.047  0.00  0.00    +0.000 C 
ATOM      3  N   UNL     1       1.951   7.564  19.685  0.00  0.00    +0.000 N 
ATOM      4  C   UNL     1       1.653   8.531  20.732  0.00  0.00    +0.000 C 
ATOM      5  C   UNL     1       0.428   9.388  20.396  0.00  0.00    +0.000 C 
ATOM      6  C   UNL     1       0.404   9.922  18.954  0.00  0.00    +0.000 C 
ATOM      7  C   UNL     1       0.773   8.817  17.953  0.00  0.00    +0.000 C 
ATOM      8  C   UNL     1       2.082   8.148  18.343  0.00  0.00    +0.000 C 
ENDROOT
BRANCH   2   9
ATOM      9  C   UNL     1       2.516   5.243  18.981  0.00  0.00    +0.000 A 
ATOM     10  C   UNL     1       3.608   5.478  18.135  0.00  0.00    +0.000 A 
ATOM     11  C   UNL     1       4.060   4.494  17.247  0.00  0.00    +0.000 A 
ATOM     12  C   UNL     1       3.323   3.317  17.101  0.00  0.00    +0.000 A 
ATOM     13  C   UNL     1       2.157   3.132  17.857  0.00  0.00    +0.000 A 
ATOM     14  C   UNL     1       1.756   4.084  18.806  0.00  0.00    +0.000 A 
ATOM     15 CL   UNL     1       0.349   3.719  19.737  0.00  0.00    +0.000 Cl
BRANCH  11  16
ATOM     16  N   UNL     1       5.286   4.709  16.567  0.00  0.00    +0.000 N 
ATOM     17  C   UNL     1       5.497   4.973  15.236  0.00  0.00    +0.000 A 
ATOM     18  C   UNL     1       6.857   5.089  15.053  0.00  0.00    +0.000 A 
ATOM     19  C   UNL     1       7.403   4.851  16.321  0.00  0.00    +0.000 A 
ATOM     20  N   UNL     1       6.468   4.615  17.240  0.00  0.00    +0.000 NA
ENDBRANCH  11  16
ENDBRANCH   2   9
BRANCH   6  21
ATOM     21  N   UNL     1       1.182  11.153  18.741  0.00  0.00    +0.000 N 
ATOM     22  C   UNL     1       2.320  11.277  17.861  0.00  0.00    +0.000 C 
ATOM     23  C   UNL     1       2.883  12.633  18.209  0.00  0.00    +0.000 C 
ATOM     24  C   UNL     1       1.647  13.450  18.558  0.00  0.00    +0.000 C 
ATOM     25  C   UNL     1       0.704  12.410  19.115  0.00  0.00    +0.000 C 
ATOM     26  O   UNL     1      -0.323  12.650  19.730  0.00  0.00    +0.000 OA
ENDBRANCH   6  21
TORSDOF 3
ENDMDL
MODEL 3
REMARK VINA RESULT:      -6.3      6.069     10.434
REMARK  Name = 
REMARK  3 active torsions:
REMARK  status: ('A' for Active; 'I' for Inactive)
REMARK    1  A    between atoms: C_2  and  C_3
REMARK    2  A    between atoms: C_5  and  N_6
REMARK    3  A    between atoms: C_18  and  N_19
REMARK                            x       y       z     vdW  Elec       q    Type
REMARK                         _______ _______ _______ _____ _____    ______ ____
ROOT
ATOM      1  O   UNL     1      -1.992  11.863  19.557  0.00  0.00    +0.000 OA
ATOM      2  C   UNL     1      -0.875  11.928  20.065  0.00  0.00    +0.000 C 
ATOM      3  N   UNL     1      -0.126  13.113  20.101  0.00  0.00    +0.000 N 
ATOM      4  C   UNL     1      -0.698  14.323  19.528  0.00  0.00    +0.000 C 
ATOM      5  C   UNL     1       0.303  15.072  18.641  0.00  0.00    +0.000 C 
ATOM      6  C   UNL     1       1.710  15.209  19.250  0.00  0.00    +0.000 C 
ATOM      7  C   UNL     1       2.178  13.877  19.854  0.00  0.00    +0.000 C 
ATOM      8  C   UNL     1       1.139  13.323  20.817  0.00  0.00    +0.000 C 
ENDROOT
BRANCH   2   9
ATOM      9  C   UNL     1      -0.286  10.685  20.627  0.00  0.00    +0.000 A 
ATOM     10  C   UNL     1       0.420   9.841  19.760  0.00  0.00    +0.000 A 
ATOM     11  C   UNL     1       1.173   8.767  20.248  0.00  0.00    +0.000 A 
ATOM     12  C   UNL     1       1.102   8.446  21.605  0.00  0.00    +0.000 A 
ATOM     13  C   UNL     1       0.295   9.214  22.457  0.00  0.00    +0.000 A 
ATOM     14  C   UNL     1      -0.390  10.339  21.978  0.00  0.00    +0.000 A 
ATOM     15 CL   UNL     1      -1.291  11.259  23.128  0.00  0.00    +0.000 Cl
BRANCH  11  16
ATOM     16  N   UNL     1       2.027   8.077  19.350  0.00  0.00    +0.000 N 
ATOM     17  C   UNL     1       2.469   8.468  18.110  0.00  0.00    +0.000 A 
ATOM     18  C   UNL     1       3.264   7.455  17.622  0.00  0.00    +0.000 A 
ATOM     19  C   UNL     1       3.228   6.469  18.617  0.00  0.00    +0.000 A 
ATOM     20  N   UNL     1       2.482   6.830  19.660  0.00  0.00    +0.000 NA
ENDBRANCH  11  16
ENDBRANCH   2   9
BRANCH   6  21
ATOM     21  N   UNL     1       1.869  16.334  20.184  0.00  0.00    +0.000 N 
ATOM     22  C   UNL     1       1.252  16.428  21.487  0.00  0.00    +0.000 C 
ATOM     23  C   UNL     1       1.524  17.854  21.899  0.00  0.00    +0.000 C 
ATOM     24  C   UNL     1       2.887  18.146  21.283  0.00  0.00    +0.000 C 
ATOM     25  C   UNL     1       2.890  17.277  20.048  0.00  0.00    +0.000 C 
ATOM     26  O   UNL     1       3.691  17.361  19.132  0.00  0.00    +0.000 OA
ENDBRANCH   6  21
TORSDOF 3
ENDMDL
MODEL 4
REMARK VINA RESULT:      -6.1      6.949     12.452
REMARK  Name = 
REMARK  3 active torsions:
REMARK  status: ('A' for Active; 'I' for Inactive)
REMARK    1  A    between atoms: C_2  and  C_3
REMARK    2  A    between atoms: C_5  and  N_6
REMARK    3  A    between atoms: C_18  and  N_19
REMARK                            x       y       z     vdW  Elec       q    Type
REMARK                         _______ _______ _______ _____ _____    ______ ____
ROOT
ATOM      1  O   UNL     1      -2.730  11.586  17.538  0.00  0.00    +0.000 OA
ATOM      2  C   UNL     1      -2.205  11.881  18.608  0.00  0.00    +0.000 C 
ATOM      3  N   UNL     1      -2.940  12.308  19.723  0.00  0.00    +0.000 N 
ATOM      4  C   UNL     1      -4.390  12.392  19.617  0.00  0.00    +0.000 C 
ATOM      5  C   UNL     1      -4.937  13.703  20.195  0.00  0.00    +0.000 C 
ATOM      6  C   UNL     1      -4.332  14.098  21.553  0.00  0.00    +0.000 C 
ATOM      7  C   UNL     1      -2.805  13.926  21.545  0.00  0.00    +0.000 C 
ATOM      8  C   UNL     1      -2.419  12.530  21.078  0.00  0.00    +0.000 C 
ENDROOT
BRANCH   2   9
ATOM      9  C   UNL     1      -0.723  11.816  18.703  0.00  0.00    +0.000 A 
ATOM     10  C   UNL     1      -0.130  10.557  18.866  0.00  0.00    +0.000 A 
ATOM     11  C   UNL     1       1.256  10.389  18.757  0.00  0.00    +0.000 A 
ATOM     12  C   UNL     1       2.071  11.516  18.628  0.00  0.00    +0.000 A 
ATOM     13  C   UNL     1       1.488  12.791  18.590  0.00  0.00    +0.000 A 
ATOM     14  C   UNL     1       0.094  12.946  18.614  0.00  0.00    +0.000 A 
ATOM     15 CL   UNL     1      -0.519  14.555  18.484  0.00  0.00    +0.000 Cl
BRANCH  11  16
ATOM     16  N   UNL     1       1.777   9.071  18.727  0.00  0.00    +0.000 N 
ATOM     17  C   UNL     1       2.325   8.386  17.669  0.00  0.00    +0.000 A 
ATOM     18  C   UNL     1       2.672   7.135  18.129  0.00  0.00    +0.000 A 
ATOM     19  C   UNL     1       2.273   7.131  19.472  0.00  0.00    +0.000 A 
ATOM     20  N   UNL     1       1.727   8.289  19.842  0.00  0.00    +0.000 NA
ENDBRANCH  11  16
ENDBRANCH   2   9
BRANCH   6  21
ATOM     21  N   UNL     1      -4.961  13.455  22.717  0.00  0.00    +0.000 N 
ATOM     22  C   UNL     1      -4.287  13.121  23.950  0.00  0.00    +0.000 C 
ATOM     23  C   UNL     1      -5.297  12.270  24.680  0.00  0.00    +0.000 C 
ATOM     24  C   UNL     1      -6.633  12.871  24.264  0.00  0.00    +0.000 C 
ATOM     25  C   UNL     1      -6.347  13.395  22.877  0.00  0.00    +0.000 C 
ATOM     26  O   UNL     1      -7.192  13.756  22.074  0.00  0.00    +0.000 OA
ENDBRANCH   6  21
TORSDOF 3
ENDMDL
MODEL 5
REMARK VINA RESULT:      -6.1      3.749      7.630
REMARK  Name = 
REMARK  3 active torsions:
REMARK  status: ('A' for Active; 'I' for Inactive)
REMARK    1  A    between atoms: C_2  and  C_3
REMARK    2  A    between atoms: C_5  and  N_6
REMARK    3  A    between atoms: C_18  and  N_19
REMARK                            x       y       z     vdW  Elec       q    Type
REMARK                         _______ _______ _______ _____ _____    ______ ____
ROOT
ATOM      1  O   UNL     1       1.070   6.510  21.573  0.00  0.00    +0.000 OA
ATOM      2  C   UNL     1       1.601   6.873  20.526  0.00  0.00    +0.000 C 
ATOM      3  N   UNL     1       1.428   8.159  19.994  0.00  0.00    +0.000 N 
ATOM      4  C   UNL     1       0.597   9.112  20.716  0.00  0.00    +0.000 C 
ATOM      5  C   UNL     1      -0.379   9.846  19.790  0.00  0.00    +0.000 C 
ATOM      6  C   UNL     1       0.249  10.350  18.478  0.00  0.00    +0.000 C 
ATOM      7  C   UNL     1       1.130   9.266  17.840  0.00  0.00    +0.000 C 
ATOM      8  C   UNL     1       2.140   8.728  18.842  0.00  0.00    +0.000 C 
ENDROOT
BRANCH   2   9
ATOM      9  C   UNL     1       2.428   5.888  19.782  0.00  0.00    +0.000 A 
ATOM     10  C   UNL     1       3.706   6.285  19.365  0.00  0.00    +0.000 A 
ATOM     11  C   UNL     1       4.618   5.360  18.846  0.00  0.00    +0.000 A 
ATOM     12  C   UNL     1       4.198   4.049  18.605  0.00  0.00    +0.000 A 
ATOM     13  C   UNL     1       2.879   3.679  18.905  0.00  0.00    +0.000 A 
ATOM     14  C   UNL     1       1.996   4.589  19.504  0.00  0.00    +0.000 A 
ATOM     15 CL   UNL     1       0.420   4.005  19.903  0.00  0.00    +0.000 Cl
BRANCH  11  16
ATOM     16  N   UNL     1       5.957   5.776  18.633  0.00  0.00    +0.000 N 
ATOM     17  C   UNL     1       6.484   6.471  17.572  0.00  0.00    +0.000 A 
ATOM     18  C   UNL     1       7.832   6.624  17.814  0.00  0.00    +0.000 A 
ATOM     19  C   UNL     1       8.047   5.967  19.032  0.00  0.00    +0.000 A 
ATOM     20  N   UNL     1       6.928   5.446  19.532  0.00  0.00    +0.000 NA
ENDBRANCH  11  16
ENDBRANCH   2   9
BRANCH   6  21
ATOM     21  N   UNL     1       0.942  11.643  18.585  0.00  0.00    +0.000 N 
ATOM     22  C   UNL     1       2.315  11.886  18.209  0.00  0.00    +0.000 C 
ATOM     23  C   UNL     1       2.586  13.267  18.753  0.00  0.00    +0.000 C 
ATOM     24  C   UNL     1       1.245  13.975  18.606  0.00  0.00    +0.000 C 
ATOM     25  C   UNL     1       0.253  12.846  18.755  0.00  0.00    +0.000 C 
ATOM     26  O   UNL     1      -0.947  12.983  18.930  0.00  0.00    +0.000 OA
ENDBRANCH   6  21
TORSDOF 3
ENDMDL
MODEL 6
REMARK VINA RESULT:      -6.1      8.661     10.794
REMARK  Name = 
REMARK  3 active torsions:
REMARK  status: ('A' for Active; 'I' for Inactive)
REMARK    1  A    between atoms: C_2  and  C_3
REMARK    2  A    between atoms: C_5  and  N_6
REMARK    3  A    between atoms: C_18  and  N_19
REMARK                            x       y       z     vdW  Elec       q    Type
REMARK                         _______ _______ _______ _____ _____    ______ ____
ROOT
ATOM      1  O   UNL     1      -1.183   9.761  18.515  0.00  0.00    +0.000 OA
ATOM      2  C   UNL     1      -1.477  10.951  18.422  0.00  0.00    +0.000 C 
ATOM      3  N   UNL     1      -0.540  11.979  18.594  0.00  0.00    +0.000 N 
ATOM      4  C   UNL     1       0.844  11.628  18.879  0.00  0.00    +0.000 C 
ATOM      5  C   UNL     1       1.429  12.465  20.022  0.00  0.00    +0.000 C 
ATOM      6  C   UNL     1       1.116  13.969  19.931  0.00  0.00    +0.000 C 
ATOM      7  C   UNL     1      -0.363  14.201  19.586  0.00  0.00    +0.000 C 
ATOM      8  C   UNL     1      -0.762  13.411  18.350  0.00  0.00    +0.000 C 
ENDROOT
BRANCH   2   9
ATOM      9  C   UNL     1      -2.896  11.304  18.154  0.00  0.00    +0.000 A 
ATOM     10  C   UNL     1      -3.685  11.718  19.235  0.00  0.00    +0.000 A 
ATOM     11  C   UNL     1      -4.960  12.261  19.035  0.00  0.00    +0.000 A 
ATOM     12  C   UNL     1      -5.509  12.255  17.750  0.00  0.00    +0.000 A 
ATOM     13  C   UNL     1      -4.769  11.726  16.683  0.00  0.00    +0.000 A 
ATOM     14  C   UNL     1      -3.460  11.262  16.876  0.00  0.00    +0.000 A 
ATOM     15 CL   UNL     1      -2.611  10.704  15.480  0.00  0.00    +0.000 Cl
BRANCH  11  16
ATOM     16  N   UNL     1      -5.626  12.848  20.140  0.00  0.00    +0.000 N 
ATOM     17  C   UNL     1      -6.237  14.076  20.224  0.00  0.00    +0.000 A 
ATOM     18  C   UNL     1      -6.727  14.201  21.505  0.00  0.00    +0.000 A 
ATOM     19  C   UNL     1      -6.345  13.015  22.145  0.00  0.00    +0.000 A 
ATOM     20  N   UNL     1      -5.676  12.195  21.336  0.00  0.00    +0.000 NA
ENDBRANCH  11  16
ENDBRANCH   2   9
BRANCH   6  21
ATOM     21  N   UNL     1       2.021  14.734  19.059  0.00  0.00    +0.000 N 
ATOM     22  C   UNL     1       2.856  14.170  18.024  0.00  0.00    +0.000 C 
ATOM     23  C   UNL     1       3.747  15.321  17.629  0.00  0.00    +0.000 C 
ATOM     24  C   UNL     1       2.848  16.539  17.799  0.00  0.00    +0.000 C 
ATOM     25  C   UNL     1       1.925  16.120  18.919  0.00  0.00    +0.000 C 
ATOM     26  O   UNL     1       1.188  16.869  19.540  0.00  0.00    +0.000 OA
ENDBRANCH   6  21
TORSDOF 3
ENDMDL
MODEL 7
REMARK VINA RESULT:      -6.0      7.962      9.926
REMARK  Name = 
REMARK  3 active torsions:
REMARK  status: ('A' for Active; 'I' for Inactive)
REMARK    1  A    between atoms: C_2  and  C_3
REMARK    2  A    between atoms: C_5  and  N_6
REMARK    3  A    between atoms: C_18  and  N_19
REMARK                            x       y       z     vdW  Elec       q    Type
REMARK                         _______ _______ _______ _____ _____    ______ ____
ROOT
ATOM      1  O   UNL     1       0.605  11.145  21.586  0.00  0.00    +0.000 OA
ATOM      2  C   UNL     1       0.622  11.610  20.449  0.00  0.00    +0.000 C 
ATOM      3  N   UNL     1       1.428  12.699  20.087  0.00  0.00    +0.000 N 
ATOM      4  C   UNL     1       2.294  13.297  21.093  0.00  0.00    +0.000 C 
ATOM      5  C   UNL     1       2.216  14.828  21.086  0.00  0.00    +0.000 C 
ATOM      6  C   UNL     1       2.267  15.460  19.684  0.00  0.00    +0.000 C 
ATOM      7  C   UNL     1       1.342  14.713  18.712  0.00  0.00    +0.000 C 
ATOM      8  C   UNL     1       1.630  13.219  18.728  0.00  0.00    +0.000 C 
ENDROOT
BRANCH   2   9
ATOM      9  C   UNL     1      -0.282  11.011  19.433  0.00  0.00    +0.000 A 
ATOM     10  C   UNL     1      -1.628  11.398  19.441  0.00  0.00    +0.000 A 
ATOM     11  C   UNL     1      -2.490  11.041  18.397  0.00  0.00    +0.000 A 
ATOM     12  C   UNL     1      -2.038  10.165  17.408  0.00  0.00    +0.000 A 
ATOM     13  C   UNL     1      -0.725   9.675  17.465  0.00  0.00    +0.000 A 
ATOM     14  C   UNL     1       0.159  10.103  18.466  0.00  0.00    +0.000 A 
ATOM     15 CL   UNL     1       1.775   9.498  18.397  0.00  0.00    +0.000 Cl
BRANCH  11  16
ATOM     16  N   UNL     1      -3.780  11.629  18.355  0.00  0.00    +0.000 N 
ATOM     17  C   UNL     1      -4.670  11.677  17.309  0.00  0.00    +0.000 A 
ATOM     18  C   UNL     1      -5.778  12.367  17.748  0.00  0.00    +0.000 A 
ATOM     19  C   UNL     1      -5.467  12.730  19.065  0.00  0.00    +0.000 A 
ATOM     20  N   UNL     1      -4.264  12.297  19.440  0.00  0.00    +0.000 NA
ENDBRANCH  11  16
ENDBRANCH   2   9
BRANCH   6  21
ATOM     21  N   UNL     1       3.622  15.640  19.141  0.00  0.00    +0.000 N 
ATOM     22  C   UNL     1       4.211  14.842  18.090  0.00  0.00    +0.000 C 
ATOM     23  C   UNL     1       5.660  15.266  18.102  0.00  0.00    +0.000 C 
ATOM     24  C   UNL     1       5.594  16.739  18.484  0.00  0.00    +0.000 C 
ATOM     25  C   UNL     1       4.361  16.806  19.353  0.00  0.00    +0.000 C 
ATOM     26  O   UNL     1       4.052  17.748  20.063  0.00  0.00    +0.000 OA
ENDBRANCH   6  21
TORSDOF 3
ENDMDL
MODEL 8
REMARK VINA RESULT:      -6.0      9.019     10.824
REMARK  Name = 
REMARK  3 active torsions:
REMARK  status: ('A' for Active; 'I' for Inactive)
REMARK    1  A    between atoms: C_2  and  C_3
REMARK    2  A    between atoms: C_5  and  N_6
REMARK    3  A    between atoms: C_18  and  N_19
REMARK                            x       y       z     vdW  Elec       q    Type
REMARK                         _______ _______ _______ _____ _____    ______ ____
ROOT
ATOM      1  O   UNL     1      -1.060  11.475  21.406  0.00  0.00    +0.000 OA
ATOM      2  C   UNL     1      -0.994  11.942  20.271  0.00  0.00    +0.000 C 
ATOM      3  N   UNL     1      -0.183  13.039  19.947  0.00  0.00    +0.000 N 
ATOM      4  C   UNL     1       0.630  13.644  20.993  0.00  0.00    +0.000 C 
ATOM      5  C   UNL     1       0.537  15.174  20.985  0.00  0.00    +0.000 C 
ATOM      6  C   UNL     1       0.647  15.809  19.587  0.00  0.00    +0.000 C 
ATOM      7  C   UNL     1      -0.225  15.054  18.572  0.00  0.00    +0.000 C 
ATOM      8  C   UNL     1       0.077  13.564  18.600  0.00  0.00    +0.000 C 
ENDROOT
BRANCH   2   9
ATOM      9  C   UNL     1      -1.844  11.335  19.213  0.00  0.00    +0.000 A 
ATOM     10  C   UNL     1      -3.196  11.701  19.166  0.00  0.00    +0.000 A 
ATOM     11  C   UNL     1      -4.006  11.337  18.084  0.00  0.00    +0.000 A 
ATOM     12  C   UNL     1      -3.498  10.476  17.109  0.00  0.00    +0.000 A 
ATOM     13  C   UNL     1      -2.181  10.007  17.220  0.00  0.00    +0.000 A 
ATOM     14  C   UNL     1      -1.347  10.442  18.260  0.00  0.00    +0.000 A 
ATOM     15 CL   UNL     1       0.280   9.863  18.256  0.00  0.00    +0.000 Cl
BRANCH  11  16
ATOM     16  N   UNL     1      -5.303  11.905  17.991  0.00  0.00    +0.000 N 
ATOM     17  C   UNL     1      -6.346  11.818  18.880  0.00  0.00    +0.000 A 
ATOM     18  C   UNL     1      -7.401  12.521  18.341  0.00  0.00    +0.000 A 
ATOM     19  C   UNL     1      -6.923  12.979  17.106  0.00  0.00    +0.000 A 
ATOM     20  N   UNL     1      -5.664  12.609  16.881  0.00  0.00    +0.000 NA
ENDBRANCH  11  16
ENDBRANCH   2   9
BRANCH   6  21
ATOM     21  N   UNL     1       2.024  16.003  19.107  0.00  0.00    +0.000 N 
ATOM     22  C   UNL     1       3.137  15.127  19.392  0.00  0.00    +0.000 C 
ATOM     23  C   UNL     1       4.329  15.907  18.894  0.00  0.00    +0.000 C 
ATOM     24  C   UNL     1       3.781  16.662  17.691  0.00  0.00    +0.000 C 
ATOM     25  C   UNL     1       2.332  16.873  18.059  0.00  0.00    +0.000 C 
ATOM     26  O   UNL     1       1.565  17.631  17.489  0.00  0.00    +0.000 OA
ENDBRANCH   6  21
TORSDOF 3
ENDMDL
MODEL 9
REMARK VINA RESULT:      -6.0      6.051     10.241
REMARK  Name = 
REMARK  3 active torsions:
REMARK  status: ('A' for Active; 'I' for Inactive)
REMARK    1  A    between atoms: C_2  and  C_3
REMARK    2  A    between atoms: C_5  and  N_6
REMARK    3  A    between atoms: C_18  and  N_19
REMARK                            x       y       z     vdW  Elec       q    Type
REMARK                         _______ _______ _______ _____ _____    ______ ____
ROOT
ATOM      1  O   UNL     1      -1.869  12.483  19.784  0.00  0.00    +0.000 OA
ATOM      2  C   UNL     1      -0.712  12.352  20.177  0.00  0.00    +0.000 C 
ATOM      3  N   UNL     1       0.226  13.394  20.137  0.00  0.00    +0.000 N 
ATOM      4  C   UNL     1      -0.188  14.692  19.621  0.00  0.00    +0.000 C 
ATOM      5  C   UNL     1       0.833  15.275  18.638  0.00  0.00    +0.000 C 
ATOM      6  C   UNL     1       2.295  15.165  19.103  0.00  0.00    +0.000 C 
ATOM      7  C   UNL     1       2.590  13.764  19.660  0.00  0.00    +0.000 C 
ATOM      8  C   UNL     1       1.572  13.378  20.722  0.00  0.00    +0.000 C 
ENDROOT
BRANCH   2   9
ATOM      9  C   UNL     1      -0.289  11.019  20.681  0.00  0.00    +0.000 A 
ATOM     10  C   UNL     1       0.382  10.165  19.795  0.00  0.00    +0.000 A 
ATOM     11  C   UNL     1       0.991   8.988  20.246  0.00  0.00    +0.000 A 
ATOM     12  C   UNL     1       0.802   8.587  21.571  0.00  0.00    +0.000 A 
ATOM     13  C   UNL     1       0.025   9.378  22.430  0.00  0.00    +0.000 A 
ATOM     14  C   UNL     1      -0.511  10.599  21.995  0.00  0.00    +0.000 A 
ATOM     15 CL   UNL     1      -1.385  11.530  23.157  0.00  0.00    +0.000 Cl
BRANCH  11  16
ATOM     16  N   UNL     1       1.825   8.272  19.350  0.00  0.00    +0.000 N 
ATOM     17  C   UNL     1       2.356   7.013  19.489  0.00  0.00    +0.000 A 
ATOM     18  C   UNL     1       3.110   6.762  18.364  0.00  0.00    +0.000 A 
ATOM     19  C   UNL     1       3.009   7.935  17.604  0.00  0.00    +0.000 A 
ATOM     20  N   UNL     1       2.243   8.854  18.190  0.00  0.00    +0.000 NA
ENDBRANCH  11  16
ENDBRANCH   2   9
BRANCH   6  21
ATOM     21  N   UNL     1       2.733  16.233  20.015  0.00  0.00    +0.000 N 
ATOM     22  C   UNL     1       1.994  16.702  21.164  0.00  0.00    +0.000 C 
ATOM     23  C   UNL     1       2.744  17.944  21.577  0.00  0.00    +0.000 C 
ATOM     24  C   UNL     1       4.191  17.612  21.239  0.00  0.00    +0.000 C 
ATOM     25  C   UNL     1       4.054  16.682  20.057  0.00  0.00    +0.000 C 
ATOM     26  O   UNL     1       4.965  16.346  19.318  0.00  0.00    +0.000 OA
ENDBRANCH   6  21
TORSDOF 3
ENDMDL
