MODEL 1
REMARK VINA RESULT:      -7.2      0.000      0.000
REMARK  Name = 
REMARK  8 active torsions:
REMARK  status: ('A' for Active; 'I' for Inactive)
REMARK    1  A    between atoms: C_1  and  N_2
REMARK    2  A    between atoms: N_2  and  C_3
REMARK    3  A    between atoms: C_3  and  C_4
REMARK    4  A    between atoms: C_4  and  N_5
REMARK    5  A    between atoms: C_11  and  C_13
REMARK    6  A    between atoms: C_15  and  N_16
REMARK    7  A    between atoms: C_19  and  N_20
REMARK    8  A    between atoms: C_24  and  N_25
REMARK                            x       y       z     vdW  Elec       q    Type
REMARK                         _______ _______ _______ _____ _____    ______ ____
ROOT
ATOM      1  C   UNL     1       2.134   5.278  19.130  0.00  0.00    +0.000 A 
ATOM      2  C   UNL     1       2.319   6.607  18.738  0.00  0.00    +0.000 A 
ATOM      3  C   UNL     1       1.949   7.722  19.516  0.00  0.00    +0.000 A 
ATOM      4  C   UNL     1       1.342   7.464  20.740  0.00  0.00    +0.000 A 
ATOM      5  C   UNL     1       1.258   6.158  21.251  0.00  0.00    +0.000 A 
ATOM      6  C   UNL     1       1.686   5.085  20.443  0.00  0.00    +0.000 A 
ENDROOT
BRANCH   1   9
ATOM      7  C   UNL     1       3.972   2.508  17.232  0.00  0.00    +0.000 C 
ATOM      8  N   UNL     1       3.848   3.661  18.117  0.00  0.00    +0.000 N 
ATOM      9  C   UNL     1       2.518   4.154  18.226  0.00  0.00    +0.000 C 
ATOM     10  O   UNL     1       1.598   3.665  17.572  0.00  0.00    +0.000 OA
BRANCH   8  11
ATOM     11  C   UNL     1       4.891   3.857  19.143  0.00  0.00    +0.000 C 
BRANCH  11  12
ATOM     12  C   UNL     1       5.734   5.148  19.138  0.00  0.00    +0.000 C 
BRANCH  12  13
ATOM     13  N   UNL     1       7.144   4.948  18.720  0.00  0.00    +0.000 NA
ATOM     14  C   UNL     1       7.887   6.233  18.794  0.00  0.00    +0.000 C 
ATOM     15  C   UNL     1       7.482   7.241  17.700  0.00  0.00    +0.000 C 
ATOM     16  O   UNL     1       7.628   6.683  16.387  0.00  0.00    +0.000 OA
ATOM     17  C   UNL     1       6.898   5.458  16.253  0.00  0.00    +0.000 C 
ATOM     18  C   UNL     1       7.308   4.444  17.334  0.00  0.00    +0.000 C 
ENDBRANCH  12  13
ENDBRANCH  11  12
ENDBRANCH   8  11
ENDBRANCH   1   9
BRANCH   3  19
ATOM     19  N   UNL     1       2.231   8.981  18.945  0.00  0.00    +0.000 N 
ATOM     20  C   UNL     1       2.407   9.224  17.529  0.00  0.00    +0.000 C 
ATOM     21  C   UNL     1       1.124   9.611  18.210  0.00  0.00    +0.000 C 
ENDBRANCH   3  19
BRANCH   4  22
ATOM     22  N   UNL     1       0.780   8.540  21.529  0.00  0.00    +0.000 N 
ATOM     23  O   UNL     1       1.540   9.130  22.309  0.00  0.00    +0.000 OA
ATOM     24  O   UNL     1      -0.414   8.805  21.343  0.00  0.00    +0.000 OA
ENDBRANCH   4  22
BRANCH   6  25
ATOM     25  N   UNL     1       1.722   3.780  21.073  0.00  0.00    +0.000 N 
ATOM     26  O   UNL     1       0.878   2.956  20.703  0.00  0.00    +0.000 OA
ATOM     27  O   UNL     1       2.524   3.649  22.010  0.00  0.00    +0.000 OA
ENDBRANCH   6  25
TORSDOF 7
ENDMDL
MODEL 2
REMARK VINA RESULT:      -6.8      1.774      6.650
REMARK  Name = 
REMARK  8 active torsions:
REMARK  status: ('A' for Active; 'I' for Inactive)
REMARK    1  A    between atoms: C_1  and  N_2
REMARK    2  A    between atoms: N_2  and  C_3
REMARK    3  A    between atoms: C_3  and  C_4
REMARK    4  A    between atoms: C_4  and  N_5
REMARK    5  A    between atoms: C_11  and  C_13
REMARK    6  A    between atoms: C_15  and  N_16
REMARK    7  A    between atoms: C_19  and  N_20
REMARK    8  A    between atoms: C_24  and  N_25
REMARK                            x       y       z     vdW  Elec       q    Type
REMARK                         _______ _______ _______ _____ _____    ______ ____
ROOT
ATOM      1  C   UNL     1       4.360   4.015  18.604  0.00  0.00    +0.000 A 
ATOM      2  C   UNL     1       5.587   4.684  18.620  0.00  0.00    +0.000 A 
ATOM      3  C   UNL     1       6.367   4.937  17.474  0.00  0.00    +0.000 A 
ATOM      4  C   UNL     1       5.879   4.461  16.261  0.00  0.00    +0.000 A 
ATOM      5  C   UNL     1       4.592   3.910  16.159  0.00  0.00    +0.000 A 
ATOM      6  C   UNL     1       3.839   3.723  17.337  0.00  0.00    +0.000 A 
ENDROOT
BRANCH   1   9
ATOM      7  C   UNL     1       2.131   4.235  21.709  0.00  0.00    +0.000 C 
ATOM      8  N   UNL     1       2.829   4.738  20.531  0.00  0.00    +0.000 N 
ATOM      9  C   UNL     1       3.615   3.753  19.871  0.00  0.00    +0.000 C 
ATOM     10  O   UNL     1       3.718   2.612  20.317  0.00  0.00    +0.000 OA
BRANCH   8  11
ATOM     11  C   UNL     1       2.290   5.945  19.873  0.00  0.00    +0.000 C 
BRANCH  11  12
ATOM     12  C   UNL     1       1.338   6.877  20.651  0.00  0.00    +0.000 C 
BRANCH  12  13
ATOM     13  N   UNL     1       1.814   8.279  20.753  0.00  0.00    +0.000 NA
ATOM     14  C   UNL     1       1.410   8.862  22.059  0.00  0.00    +0.000 C 
ATOM     15  C   UNL     1      -0.101   9.144  22.166  0.00  0.00    +0.000 C 
ATOM     16  O   UNL     1      -0.557   9.994  21.104  0.00  0.00    +0.000 OA
ATOM     17  C   UNL     1      -0.224   9.455  19.820  0.00  0.00    +0.000 C 
ATOM     18  C   UNL     1       1.285   9.185  19.704  0.00  0.00    +0.000 C 
ENDBRANCH  12  13
ENDBRANCH  11  12
ENDBRANCH   8  11
ENDBRANCH   1   9
BRANCH   3  19
ATOM     19  N   UNL     1       7.570   5.638  17.701  0.00  0.00    +0.000 N 
ATOM     20  C   UNL     1       7.654   7.036  18.067  0.00  0.00    +0.000 C 
ATOM     21  C   UNL     1       7.863   5.967  19.104  0.00  0.00    +0.000 C 
ENDBRANCH   3  19
BRANCH   4  22
ATOM     22  N   UNL     1       6.687   4.527  15.062  0.00  0.00    +0.000 N 
ATOM     23  O   UNL     1       6.458   3.694  14.175  0.00  0.00    +0.000 OA
ATOM     24  O   UNL     1       7.530   5.431  15.005  0.00  0.00    +0.000 OA
ENDBRANCH   4  22
BRANCH   6  25
ATOM     25  N   UNL     1       2.465   3.295  17.161  0.00  0.00    +0.000 N 
ATOM     26  O   UNL     1       1.607   4.182  17.088  0.00  0.00    +0.000 OA
ATOM     27  O   UNL     1       2.264   2.072  17.218  0.00  0.00    +0.000 OA
ENDBRANCH   6  25
TORSDOF 7
ENDMDL
MODEL 3
REMARK VINA RESULT:      -6.5      0.779      1.399
REMARK  Name = 
REMARK  8 active torsions:
REMARK  status: ('A' for Active; 'I' for Inactive)
REMARK    1  A    between atoms: C_1  and  N_2
REMARK    2  A    between atoms: N_2  and  C_3
REMARK    3  A    between atoms: C_3  and  C_4
REMARK    4  A    between atoms: C_4  and  N_5
REMARK    5  A    between atoms: C_11  and  C_13
REMARK    6  A    between atoms: C_15  and  N_16
REMARK    7  A    between atoms: C_19  and  N_20
REMARK    8  A    between atoms: C_24  and  N_25
REMARK                            x       y       z     vdW  Elec       q    Type
REMARK                         _______ _______ _______ _____ _____    ______ ____
ROOT
ATOM      1  C   UNL     1       2.017   4.946  19.230  0.00  0.00    +0.000 A 
ATOM      2  C   UNL     1       2.258   6.226  18.722  0.00  0.00    +0.000 A 
ATOM      3  C   UNL     1       2.010   7.419  19.429  0.00  0.00    +0.000 A 
ATOM      4  C   UNL     1       1.468   7.296  20.704  0.00  0.00    +0.000 A 
ATOM      5  C   UNL     1       1.337   6.042  21.322  0.00  0.00    +0.000 A 
ATOM      6  C   UNL     1       1.644   4.884  20.579  0.00  0.00    +0.000 A 
ENDROOT
BRANCH   1   9
ATOM      7  C   UNL     1       3.570   1.973  17.385  0.00  0.00    +0.000 C 
ATOM      8  N   UNL     1       3.571   3.208  18.161  0.00  0.00    +0.000 N 
ATOM      9  C   UNL     1       2.271   3.733  18.399  0.00  0.00    +0.000 C 
ATOM     10  O   UNL     1       1.269   3.199  17.925  0.00  0.00    +0.000 OA
BRANCH   8  11
ATOM     11  C   UNL     1       4.744   3.484  19.015  0.00  0.00    +0.000 C 
BRANCH  11  12
ATOM     12  C   UNL     1       5.752   4.574  18.597  0.00  0.00    +0.000 C 
BRANCH  12  13
ATOM     13  N   UNL     1       5.301   5.413  17.459  0.00  0.00    +0.000 NA
ATOM     14  C   UNL     1       5.705   4.789  16.172  0.00  0.00    +0.000 C 
ATOM     15  C   UNL     1       7.221   4.864  15.902  0.00  0.00    +0.000 C 
ATOM     16  O   UNL     1       7.700   6.215  15.947  0.00  0.00    +0.000 OA
ATOM     17  C   UNL     1       7.367   6.850  17.186  0.00  0.00    +0.000 C 
ATOM     18  C   UNL     1       5.854   6.790  17.454  0.00  0.00    +0.000 C 
ENDBRANCH  12  13
ENDBRANCH  11  12
ENDBRANCH   8  11
ENDBRANCH   1   9
BRANCH   3  19
ATOM     19  N   UNL     1       2.332   8.609  18.744  0.00  0.00    +0.000 N 
ATOM     20  C   UNL     1       2.577   8.700  17.320  0.00  0.00    +0.000 C 
ATOM     21  C   UNL     1       1.268   9.165  17.894  0.00  0.00    +0.000 C 
ENDBRANCH   3  19
BRANCH   4  22
ATOM     22  N   UNL     1       1.027   8.464  21.437  0.00  0.00    +0.000 N 
ATOM     23  O   UNL     1      -0.126   8.866  21.227  0.00  0.00    +0.000 OA
ATOM     24  O   UNL     1       1.830   8.957  22.239  0.00  0.00    +0.000 OA
ENDBRANCH   4  22
BRANCH   6  25
ATOM     25  N   UNL     1       1.639   3.631  21.308  0.00  0.00    +0.000 N 
ATOM     26  O   UNL     1       0.696   2.861  21.094  0.00  0.00    +0.000 OA
ATOM     27  O   UNL     1       2.523   3.499  22.169  0.00  0.00    +0.000 OA
ENDBRANCH   6  25
TORSDOF 7
ENDMDL
MODEL 4
REMARK VINA RESULT:      -6.3      2.046      6.713
REMARK  Name = 
REMARK  8 active torsions:
REMARK  status: ('A' for Active; 'I' for Inactive)
REMARK    1  A    between atoms: C_1  and  N_2
REMARK    2  A    between atoms: N_2  and  C_3
REMARK    3  A    between atoms: C_3  and  C_4
REMARK    4  A    between atoms: C_4  and  N_5
REMARK    5  A    between atoms: C_11  and  C_13
REMARK    6  A    between atoms: C_15  and  N_16
REMARK    7  A    between atoms: C_19  and  N_20
REMARK    8  A    between atoms: C_24  and  N_25
REMARK                            x       y       z     vdW  Elec       q    Type
REMARK                         _______ _______ _______ _____ _____    ______ ____
ROOT
ATOM      1  C   UNL     1       3.963   5.124  18.422  0.00  0.00    +0.000 A 
ATOM      2  C   UNL     1       5.115   5.886  18.203  0.00  0.00    +0.000 A 
ATOM      3  C   UNL     1       5.995   5.697  17.119  0.00  0.00    +0.000 A 
ATOM      4  C   UNL     1       5.695   4.668  16.234  0.00  0.00    +0.000 A 
ATOM      5  C   UNL     1       4.483   3.964  16.319  0.00  0.00    +0.000 A 
ATOM      6  C   UNL     1       3.620   4.227  17.402  0.00  0.00    +0.000 A 
ENDROOT
BRANCH   1   9
ATOM      7  C   UNL     1       1.617   6.584  21.071  0.00  0.00    +0.000 C 
ATOM      8  N   UNL     1       2.467   6.606  19.886  0.00  0.00    +0.000 N 
ATOM      9  C   UNL     1       3.105   5.363  19.620  0.00  0.00    +0.000 C 
ATOM     10  O   UNL     1       2.975   4.401  20.376  0.00  0.00    +0.000 OA
BRANCH   8  11
ATOM     11  C   UNL     1       2.193   7.633  18.861  0.00  0.00    +0.000 C 
BRANCH  11  12
ATOM     12  C   UNL     1       1.514   8.956  19.269  0.00  0.00    +0.000 C 
BRANCH  12  13
ATOM     13  N   UNL     1       1.125   9.815  18.122  0.00  0.00    +0.000 NA
ATOM     14  C   UNL     1       1.804  11.133  18.217  0.00  0.00    +0.000 C 
ATOM     15  C   UNL     1       1.256  12.027  19.347  0.00  0.00    +0.000 C 
ATOM     16  O   UNL     1      -0.158  12.229  19.223  0.00  0.00    +0.000 OA
ATOM     17  C   UNL     1      -0.863  10.984  19.165  0.00  0.00    +0.000 C 
ATOM     18  C   UNL     1      -0.330  10.094  18.030  0.00  0.00    +0.000 C 
ENDBRANCH  12  13
ENDBRANCH  11  12
ENDBRANCH   8  11
ENDBRANCH   1   9
BRANCH   3  19
ATOM     19  N   UNL     1       7.096   6.578  17.071  0.00  0.00    +0.000 N 
ATOM     20  C   UNL     1       7.122   7.900  17.662  0.00  0.00    +0.000 C 
ATOM     21  C   UNL     1       7.829   6.755  18.334  0.00  0.00    +0.000 C 
ENDBRANCH   3  19
BRANCH   4  22
ATOM     22  N   UNL     1       6.626   4.294  15.190  0.00  0.00    +0.000 N 
ATOM     23  O   UNL     1       7.829   4.506  15.397  0.00  0.00    +0.000 OA
ATOM     24  O   UNL     1       6.149   3.766  14.178  0.00  0.00    +0.000 OA
ENDBRANCH   4  22
BRANCH   6  25
ATOM     25  N   UNL     1       2.320   3.588  17.360  0.00  0.00    +0.000 N 
ATOM     26  O   UNL     1       2.304   2.352  17.313  0.00  0.00    +0.000 OA
ATOM     27  O   UNL     1       1.344   4.346  17.256  0.00  0.00    +0.000 OA
ENDBRANCH   6  25
TORSDOF 7
ENDMDL
MODEL 5
REMARK VINA RESULT:      -6.3      1.892      6.725
REMARK  Name = 
REMARK  8 active torsions:
REMARK  status: ('A' for Active; 'I' for Inactive)
REMARK    1  A    between atoms: C_1  and  N_2
REMARK    2  A    between atoms: N_2  and  C_3
REMARK    3  A    between atoms: C_3  and  C_4
REMARK    4  A    between atoms: C_4  and  N_5
REMARK    5  A    between atoms: C_11  and  C_13
REMARK    6  A    between atoms: C_15  and  N_16
REMARK    7  A    between atoms: C_19  and  N_20
REMARK    8  A    between atoms: C_24  and  N_25
REMARK                            x       y       z     vdW  Elec       q    Type
REMARK                         _______ _______ _______ _____ _____    ______ ____
ROOT
ATOM      1  C   UNL     1       4.315   4.422  18.389  0.00  0.00    +0.000 A 
ATOM      2  C   UNL     1       5.488   5.178  18.302  0.00  0.00    +0.000 A 
ATOM      3  C   UNL     1       6.272   5.293  17.137  0.00  0.00    +0.000 A 
ATOM      4  C   UNL     1       5.848   4.584  16.018  0.00  0.00    +0.000 A 
ATOM      5  C   UNL     1       4.608   3.925  15.999  0.00  0.00    +0.000 A 
ATOM      6  C   UNL     1       3.846   3.881  17.184  0.00  0.00    +0.000 A 
ENDROOT
BRANCH   1   9
ATOM      7  C   UNL     1       2.091   5.037  21.443  0.00  0.00    +0.000 C 
ATOM      8  N   UNL     1       2.800   5.390  20.218  0.00  0.00    +0.000 N 
ATOM      9  C   UNL     1       3.565   4.320  19.675  0.00  0.00    +0.000 C 
ATOM     10  O   UNL     1       3.644   3.234  20.247  0.00  0.00    +0.000 OA
BRANCH   8  11
ATOM     11  C   UNL     1       2.286   6.525  19.427  0.00  0.00    +0.000 C 
BRANCH  11  12
ATOM     12  C   UNL     1       2.097   7.900  20.100  0.00  0.00    +0.000 C 
BRANCH  12  13
ATOM     13  N   UNL     1       0.679   8.321  20.228  0.00  0.00    +0.000 NA
ATOM     14  C   UNL     1       0.513   9.717  19.745  0.00  0.00    +0.000 C 
ATOM     15  C   UNL     1       1.133  10.770  20.684  0.00  0.00    +0.000 C 
ATOM     16  O   UNL     1       0.611  10.664  22.016  0.00  0.00    +0.000 OA
ATOM     17  C   UNL     1       0.780   9.343  22.542  0.00  0.00    +0.000 C 
ATOM     18  C   UNL     1       0.152   8.289  21.615  0.00  0.00    +0.000 C 
ENDBRANCH  12  13
ENDBRANCH  11  12
ENDBRANCH   8  11
ENDBRANCH   1   9
BRANCH   3  19
ATOM     19  N   UNL     1       7.414   6.113  17.252  0.00  0.00    +0.000 N 
ATOM     20  C   UNL     1       7.389   7.519  17.596  0.00  0.00    +0.000 C 
ATOM     21  C   UNL     1       7.791   6.496  18.621  0.00  0.00    +0.000 C 
ENDBRANCH   3  19
BRANCH   4  22
ATOM     22  N   UNL     1       6.675   4.509  14.832  0.00  0.00    +0.000 N 
ATOM     23  O   UNL     1       6.366   3.671  13.974  0.00  0.00    +0.000 OA
ATOM     24  O   UNL     1       7.615   5.311  14.754  0.00  0.00    +0.000 OA
ENDBRANCH   4  22
BRANCH   6  25
ATOM     25  N   UNL     1       2.512   3.325  17.072  0.00  0.00    +0.000 N 
ATOM     26  O   UNL     1       1.574   4.127  17.008  0.00  0.00    +0.000 OA
ATOM     27  O   UNL     1       2.427   2.091  17.168  0.00  0.00    +0.000 OA
ENDBRANCH   6  25
TORSDOF 7
ENDMDL
MODEL 6
REMARK VINA RESULT:      -6.2      1.698      2.855
REMARK  Name = 
REMARK  8 active torsions:
REMARK  status: ('A' for Active; 'I' for Inactive)
REMARK    1  A    between atoms: C_1  and  N_2
REMARK    2  A    between atoms: N_2  and  C_3
REMARK    3  A    between atoms: C_3  and  C_4
REMARK    4  A    between atoms: C_4  and  N_5
REMARK    5  A    between atoms: C_11  and  C_13
REMARK    6  A    between atoms: C_15  and  N_16
REMARK    7  A    between atoms: C_19  and  N_20
REMARK    8  A    between atoms: C_24  and  N_25
REMARK                            x       y       z     vdW  Elec       q    Type
REMARK                         _______ _______ _______ _____ _____    ______ ____
ROOT
ATOM      1  C   UNL     1       2.522   5.458  19.646  0.00  0.00    +0.000 A 
ATOM      2  C   UNL     1       2.289   6.618  20.391  0.00  0.00    +0.000 A 
ATOM      3  C   UNL     1       1.899   7.852  19.834  0.00  0.00    +0.000 A 
ATOM      4  C   UNL     1       1.765   7.906  18.451  0.00  0.00    +0.000 A 
ATOM      5  C   UNL     1       1.845   6.746  17.665  0.00  0.00    +0.000 A 
ATOM      6  C   UNL     1       2.196   5.529  18.285  0.00  0.00    +0.000 A 
ENDROOT
BRANCH   1   9
ATOM      7  C   UNL     1       4.355   2.258  20.672  0.00  0.00    +0.000 C 
ATOM      8  N   UNL     1       4.039   3.397  19.818  0.00  0.00    +0.000 N 
ATOM      9  C   UNL     1       2.973   4.200  20.311  0.00  0.00    +0.000 C 
ATOM     10  O   UNL     1       2.361   3.894  21.333  0.00  0.00    +0.000 OA
BRANCH   8  11
ATOM     11  C   UNL     1       5.091   3.886  18.906  0.00  0.00    +0.000 C 
BRANCH  11  12
ATOM     12  C   UNL     1       5.913   5.134  19.288  0.00  0.00    +0.000 C 
BRANCH  12  13
ATOM     13  N   UNL     1       7.334   5.078  18.862  0.00  0.00    +0.000 NA
ATOM     14  C   UNL     1       7.907   6.447  18.807  0.00  0.00    +0.000 C 
ATOM     15  C   UNL     1       7.369   7.293  17.636  0.00  0.00    +0.000 C 
ATOM     16  O   UNL     1       7.574   6.641  16.375  0.00  0.00    +0.000 OA
ATOM     17  C   UNL     1       7.005   5.327  16.364  0.00  0.00    +0.000 C 
ATOM     18  C   UNL     1       7.549   4.475  17.523  0.00  0.00    +0.000 C 
ENDBRANCH  12  13
ENDBRANCH  11  12
ENDBRANCH   8  11
ENDBRANCH   1   9
BRANCH   3  19
ATOM     19  N   UNL     1       1.703   8.900  20.758  0.00  0.00    +0.000 N 
ATOM     20  C   UNL     1       0.419   9.489  21.077  0.00  0.00    +0.000 C 
ATOM     21  C   UNL     1       1.066   8.521  22.029  0.00  0.00    +0.000 C 
ENDBRANCH   3  19
BRANCH   4  22
ATOM     22  N   UNL     1       1.531   9.167  17.779  0.00  0.00    +0.000 N 
ATOM     23  O   UNL     1       0.354   9.519  17.623  0.00  0.00    +0.000 OA
ATOM     24  O   UNL     1       2.530   9.811  17.435  0.00  0.00    +0.000 OA
ENDBRANCH   4  22
BRANCH   6  25
ATOM     25  N   UNL     1       2.116   4.340  17.461  0.00  0.00    +0.000 N 
ATOM     26  O   UNL     1       3.074   4.110  16.714  0.00  0.00    +0.000 OA
ATOM     27  O   UNL     1       1.040   3.724  17.497  0.00  0.00    +0.000 OA
ENDBRANCH   6  25
TORSDOF 7
ENDMDL
MODEL 7
REMARK VINA RESULT:      -6.2      1.834      6.084
REMARK  Name = 
REMARK  8 active torsions:
REMARK  status: ('A' for Active; 'I' for Inactive)
REMARK    1  A    between atoms: C_1  and  N_2
REMARK    2  A    between atoms: N_2  and  C_3
REMARK    3  A    between atoms: C_3  and  C_4
REMARK    4  A    between atoms: C_4  and  N_5
REMARK    5  A    between atoms: C_11  and  C_13
REMARK    6  A    between atoms: C_15  and  N_16
REMARK    7  A    between atoms: C_19  and  N_20
REMARK    8  A    between atoms: C_24  and  N_25
REMARK                            x       y       z     vdW  Elec       q    Type
REMARK                         _______ _______ _______ _____ _____    ______ ____
ROOT
ATOM      1  C   UNL     1       4.421   3.622  18.714  0.00  0.00    +0.000 A 
ATOM      2  C   UNL     1       5.621   4.337  18.724  0.00  0.00    +0.000 A 
ATOM      3  C   UNL     1       6.309   4.748  17.565  0.00  0.00    +0.000 A 
ATOM      4  C   UNL     1       5.753   4.389  16.341  0.00  0.00    +0.000 A 
ATOM      5  C   UNL     1       4.482   3.798  16.263  0.00  0.00    +0.000 A 
ATOM      6  C   UNL     1       3.822   3.449  17.459  0.00  0.00    +0.000 A 
ENDROOT
BRANCH   1   9
ATOM      7  C   UNL     1       2.157   3.217  21.775  0.00  0.00    +0.000 C 
ATOM      8  N   UNL     1       2.667   3.863  20.571  0.00  0.00    +0.000 N 
ATOM      9  C   UNL     1       3.778   3.189  19.990  0.00  0.00    +0.000 C 
ATOM     10  O   UNL     1       4.270   2.193  20.518  0.00  0.00    +0.000 OA
BRANCH   8  11
ATOM     11  C   UNL     1       1.752   4.748  19.823  0.00  0.00    +0.000 C 
BRANCH  11  12
ATOM     12  C   UNL     1       1.322   6.096  20.437  0.00  0.00    +0.000 C 
BRANCH  12  13
ATOM     13  N   UNL     1       2.344   7.166  20.323  0.00  0.00    +0.000 NA
ATOM     14  C   UNL     1       1.787   8.459  20.799  0.00  0.00    +0.000 C 
ATOM     15  C   UNL     1       0.740   9.065  19.845  0.00  0.00    +0.000 C 
ATOM     16  O   UNL     1       1.264   9.232  18.520  0.00  0.00    +0.000 OA
ATOM     17  C   UNL     1       1.782   8.002  18.001  0.00  0.00    +0.000 C 
ATOM     18  C   UNL     1       2.837   7.400  18.943  0.00  0.00    +0.000 C 
ENDBRANCH  12  13
ENDBRANCH  11  12
ENDBRANCH   8  11
ENDBRANCH   1   9
BRANCH   3  19
ATOM     19  N   UNL     1       7.500   5.471  17.789  0.00  0.00    +0.000 N 
ATOM     20  C   UNL     1       7.560   6.876  18.130  0.00  0.00    +0.000 C 
ATOM     21  C   UNL     1       7.776   5.830  19.188  0.00  0.00    +0.000 C 
ENDBRANCH   3  19
BRANCH   4  22
ATOM     22  N   UNL     1       6.471   4.622  15.106  0.00  0.00    +0.000 N 
ATOM     23  O   UNL     1       6.565   3.674  14.315  0.00  0.00    +0.000 OA
ATOM     24  O   UNL     1       6.915   5.763  14.923  0.00  0.00    +0.000 OA
ENDBRANCH   4  22
BRANCH   6  25
ATOM     25  N   UNL     1       2.455   2.985  17.328  0.00  0.00    +0.000 N 
ATOM     26  O   UNL     1       2.235   1.802  17.610  0.00  0.00    +0.000 OA
ATOM     27  O   UNL     1       1.652   3.790  16.832  0.00  0.00    +0.000 OA
ENDBRANCH   6  25
TORSDOF 7
ENDMDL
MODEL 8
REMARK VINA RESULT:      -6.1      2.067      6.766
REMARK  Name = 
REMARK  8 active torsions:
REMARK  status: ('A' for Active; 'I' for Inactive)
REMARK    1  A    between atoms: C_1  and  N_2
REMARK    2  A    between atoms: N_2  and  C_3
REMARK    3  A    between atoms: C_3  and  C_4
REMARK    4  A    between atoms: C_4  and  N_5
REMARK    5  A    between atoms: C_11  and  C_13
REMARK    6  A    between atoms: C_15  and  N_16
REMARK    7  A    between atoms: C_19  and  N_20
REMARK    8  A    between atoms: C_24  and  N_25
REMARK                            x       y       z     vdW  Elec       q    Type
REMARK                         _______ _______ _______ _____ _____    ______ ____
ROOT
ATOM      1  C   UNL     1       3.902   5.305  18.494  0.00  0.00    +0.000 A 
ATOM      2  C   UNL     1       5.048   6.057  18.219  0.00  0.00    +0.000 A 
ATOM      3  C   UNL     1       5.936   5.790  17.159  0.00  0.00    +0.000 A 
ATOM      4  C   UNL     1       5.652   4.689  16.359  0.00  0.00    +0.000 A 
ATOM      5  C   UNL     1       4.446   3.982  16.495  0.00  0.00    +0.000 A 
ATOM      6  C   UNL     1       3.574   4.324  17.549  0.00  0.00    +0.000 A 
ENDROOT
BRANCH   1   9
ATOM      7  C   UNL     1       1.481   6.927  20.976  0.00  0.00    +0.000 C 
ATOM      8  N   UNL     1       2.325   6.859  19.789  0.00  0.00    +0.000 N 
ATOM      9  C   UNL     1       3.034   5.632  19.663  0.00  0.00    +0.000 C 
ATOM     10  O   UNL     1       2.962   4.760  20.527  0.00  0.00    +0.000 OA
BRANCH   8  11
ATOM     11  C   UNL     1       1.990   7.742  18.654  0.00  0.00    +0.000 C 
BRANCH  11  12
ATOM     12  C   UNL     1       1.931   9.269  18.866  0.00  0.00    +0.000 C 
BRANCH  12  13
ATOM     13  N   UNL     1       0.554   9.820  18.913  0.00  0.00    +0.000 NA
ATOM     14  C   UNL     1       0.561  11.250  18.509  0.00  0.00    +0.000 C 
ATOM     15  C   UNL     1       1.198  12.182  19.558  0.00  0.00    +0.000 C 
ATOM     16  O   UNL     1       0.562  12.053  20.837  0.00  0.00    +0.000 OA
ATOM     17  C   UNL     1       0.562  10.694  21.289  0.00  0.00    +0.000 C 
ATOM     18  C   UNL     1      -0.085   9.762  20.251  0.00  0.00    +0.000 C 
ENDBRANCH  12  13
ENDBRANCH  11  12
ENDBRANCH   8  11
ENDBRANCH   1   9
BRANCH   3  19
ATOM     19  N   UNL     1       7.029   6.675  17.045  0.00  0.00    +0.000 N 
ATOM     20  C   UNL     1       7.091   7.991  17.645  0.00  0.00    +0.000 C 
ATOM     21  C   UNL     1       7.845   6.843  18.257  0.00  0.00    +0.000 C 
ENDBRANCH   3  19
BRANCH   4  22
ATOM     22  N   UNL     1       6.593   4.240  15.354  0.00  0.00    +0.000 N 
ATOM     23  O   UNL     1       6.126   3.765  14.310  0.00  0.00    +0.000 OA
ATOM     24  O   UNL     1       7.794   4.392  15.607  0.00  0.00    +0.000 OA
ENDBRANCH   4  22
BRANCH   6  25
ATOM     25  N   UNL     1       2.280   3.671  17.552  0.00  0.00    +0.000 N 
ATOM     26  O   UNL     1       2.270   2.448  17.730  0.00  0.00    +0.000 OA
ATOM     27  O   UNL     1       1.309   4.385  17.258  0.00  0.00    +0.000 OA
ENDBRANCH   6  25
TORSDOF 7
ENDMDL
MODEL 9
REMARK VINA RESULT:      -6.0      2.080      6.846
REMARK  Name = 
REMARK  8 active torsions:
REMARK  status: ('A' for Active; 'I' for Inactive)
REMARK    1  A    between atoms: C_1  and  N_2
REMARK    2  A    between atoms: N_2  and  C_3
REMARK    3  A    between atoms: C_3  and  C_4
REMARK    4  A    between atoms: C_4  and  N_5
REMARK    5  A    between atoms: C_11  and  C_13
REMARK    6  A    between atoms: C_15  and  N_16
REMARK    7  A    between atoms: C_19  and  N_20
REMARK    8  A    between atoms: C_24  and  N_25
REMARK                            x       y       z     vdW  Elec       q    Type
REMARK                         _______ _______ _______ _____ _____    ______ ____
ROOT
ATOM      1  C   UNL     1       3.763   5.521  18.509  0.00  0.00    +0.000 A 
ATOM      2  C   UNL     1       4.912   6.257  18.205  0.00  0.00    +0.000 A 
ATOM      3  C   UNL     1       5.820   5.922  17.181  0.00  0.00    +0.000 A 
ATOM      4  C   UNL     1       5.552   4.769  16.452  0.00  0.00    +0.000 A 
ATOM      5  C   UNL     1       4.345   4.069  16.613  0.00  0.00    +0.000 A 
ATOM      6  C   UNL     1       3.454   4.478  17.626  0.00  0.00    +0.000 A 
ENDROOT
BRANCH   1   9
ATOM      7  C   UNL     1       1.412   7.364  20.903  0.00  0.00    +0.000 C 
ATOM      8  N   UNL     1       2.311   7.223  19.763  0.00  0.00    +0.000 N 
ATOM      9  C   UNL     1       2.873   5.922  19.638  0.00  0.00    +0.000 C 
ATOM     10  O   UNL     1       2.646   5.044  20.469  0.00  0.00    +0.000 OA
BRANCH   8  11
ATOM     11  C   UNL     1       2.152   8.168  18.639  0.00  0.00    +0.000 C 
BRANCH  11  12
ATOM     12  C   UNL     1       1.028   9.222  18.682  0.00  0.00    +0.000 C 
BRANCH  12  13
ATOM     13  N   UNL     1       1.440  10.523  19.268  0.00  0.00    +0.000 NA
ATOM     14  C   UNL     1       0.926  10.645  20.657  0.00  0.00    +0.000 C 
ATOM     15  C   UNL     1      -0.599  10.852  20.733  0.00  0.00    +0.000 C 
ATOM     16  O   UNL     1      -1.016  11.993  19.970  0.00  0.00    +0.000 OA
ATOM     17  C   UNL     1      -0.577  11.905  18.610  0.00  0.00    +0.000 C 
ATOM     18  C   UNL     1       0.947  11.712  18.529  0.00  0.00    +0.000 C 
ENDBRANCH  12  13
ENDBRANCH  11  12
ENDBRANCH   8  11
ENDBRANCH   1   9
BRANCH   3  19
ATOM     19  N   UNL     1       6.913   6.801  17.027  0.00  0.00    +0.000 N 
ATOM     20  C   UNL     1       7.018   8.103  17.652  0.00  0.00    +0.000 C 
ATOM     21  C   UNL     1       7.794   6.936  18.197  0.00  0.00    +0.000 C 
ENDBRANCH   3  19
BRANCH   4  22
ATOM     22  N   UNL     1       6.512   4.257  15.496  0.00  0.00    +0.000 N 
ATOM     23  O   UNL     1       6.076   3.871  14.403  0.00  0.00    +0.000 OA
ATOM     24  O   UNL     1       7.701   4.271  15.837  0.00  0.00    +0.000 OA
ENDBRANCH   4  22
BRANCH   6  25
ATOM     25  N   UNL     1       2.162   3.821  17.650  0.00  0.00    +0.000 N 
ATOM     26  O   UNL     1       1.189   4.484  17.270  0.00  0.00    +0.000 OA
ATOM     27  O   UNL     1       2.135   2.691  18.160  0.00  0.00    +0.000 OA
ENDBRANCH   6  25
TORSDOF 7
ENDMDL
