MODEL 1
REMARK VINA RESULT:      -7.6      0.000      0.000
REMARK  Name = 
REMARK  5 active torsions:
REMARK  status: ('A' for Active; 'I' for Inactive)
REMARK    1  A    between atoms: C_1  and  C_2
REMARK    2  A    between atoms: C_5  and  C_6
REMARK    3  A    between atoms: N_8  and  O_9
REMARK    4  A    between atoms: O_9  and  C_10
REMARK    5  A    between atoms: C_10  and  C_12
REMARK                            x       y       z     vdW  Elec       q    Type
REMARK                         _______ _______ _______ _____ _____    ______ ____
ROOT
ATOM      1  C   UNL     1       5.391   4.752  17.699  0.00  0.00    +0.000 C 
ATOM      2  N   UNL     1       5.671   3.736  18.584  0.00  0.00    +0.000 N 
ATOM      3  N   UNL     1       4.728   5.819  18.043  0.00  0.00    +0.000 NA
ATOM      4  H   UNL     1       6.482   3.153  18.429  0.00  0.00    +0.000 HD
ATOM      5  H   UNL     1       5.539   3.993  19.555  0.00  0.00    +0.000 HD
ENDROOT
BRANCH   1  10
ATOM      6  C   UNL     1       7.243   4.419  12.175  0.00  0.00    +0.000 C 
ATOM      7  C   UNL     1       6.778   4.514  13.594  0.00  0.00    +0.000 A 
ATOM      8  C   UNL     1       7.619   4.986  14.607  0.00  0.00    +0.000 A 
ATOM      9  C   UNL     1       7.159   5.055  15.931  0.00  0.00    +0.000 A 
ATOM     10  C   UNL     1       5.854   4.661  16.265  0.00  0.00    +0.000 A 
ATOM     11  C   UNL     1       5.014   4.200  15.251  0.00  0.00    +0.000 A 
ATOM     12  C   UNL     1       5.482   4.127  13.936  0.00  0.00    +0.000 A 
ATOM     13  F   UNL     1       4.654   3.673  12.985  0.00  0.00    +0.000 F 
ENDBRANCH   1  10
BRANCH   3  14
ATOM     14  O   UNL     1       4.345   5.814  19.401  0.00  0.00    +0.000 OA
BRANCH  14  15
ATOM     15  C   UNL     1       3.008   6.088  19.496  0.00  0.00    +0.000 C 
ATOM     16  O   UNL     1       2.474   7.188  19.544  0.00  0.00    +0.000 OA
BRANCH  15  17
ATOM     17  C   UNL     1       2.211   4.825  19.542  0.00  0.00    +0.000 A 
ATOM     18  C   UNL     1       1.943   4.263  20.802  0.00  0.00    +0.000 A 
ATOM     19  C   UNL     1       1.236   3.064  20.910  0.00  0.00    +0.000 A 
ATOM     20  C   UNL     1       0.790   2.414  19.763  0.00  0.00    +0.000 A 
ATOM     21  C   UNL     1       1.043   2.966  18.507  0.00  0.00    +0.000 A 
ATOM     22  C   UNL     1       1.750   4.168  18.393  0.00  0.00    +0.000 A 
ENDBRANCH  15  17
ENDBRANCH  14  15
ENDBRANCH   3  14
TORSDOF 4
ENDMDL
MODEL 2
REMARK VINA RESULT:      -7.6      0.115      1.085
REMARK  Name = 
REMARK  5 active torsions:
REMARK  status: ('A' for Active; 'I' for Inactive)
REMARK    1  A    between atoms: C_1  and  C_2
REMARK    2  A    between atoms: C_5  and  C_6
REMARK    3  A    between atoms: N_8  and  O_9
REMARK    4  A    between atoms: O_9  and  C_10
REMARK    5  A    between atoms: C_10  and  C_12
REMARK                            x       y       z     vdW  Elec       q    Type
REMARK                         _______ _______ _______ _____ _____    ______ ____
ROOT
ATOM      1  C   UNL     1       5.382   4.759  17.801  0.00  0.00    +0.000 C 
ATOM      2  N   UNL     1       5.635   3.727  18.676  0.00  0.00    +0.000 N 
ATOM      3  N   UNL     1       4.737   5.834  18.153  0.00  0.00    +0.000 NA
ATOM      4  H   UNL     1       6.436   3.130  18.520  0.00  0.00    +0.000 HD
ATOM      5  H   UNL     1       5.499   3.974  19.648  0.00  0.00    +0.000 HD
ENDROOT
BRANCH   1  10
ATOM      6  C   UNL     1       7.278   4.461  12.289  0.00  0.00    +0.000 C 
ATOM      7  C   UNL     1       6.802   4.546  13.706  0.00  0.00    +0.000 A 
ATOM      8  C   UNL     1       7.645   4.983  14.733  0.00  0.00    +0.000 A 
ATOM      9  C   UNL     1       7.174   5.044  16.054  0.00  0.00    +0.000 A 
ATOM     10  C   UNL     1       5.857   4.677  16.370  0.00  0.00    +0.000 A 
ATOM     11  C   UNL     1       5.016   4.252  15.342  0.00  0.00    +0.000 A 
ATOM     12  C   UNL     1       5.494   4.187  14.031  0.00  0.00    +0.000 A 
ATOM     13  F   UNL     1       4.664   3.767  13.065  0.00  0.00    +0.000 F 
ENDBRANCH   1  10
BRANCH   3  14
ATOM     14  O   UNL     1       4.341   5.818  19.507  0.00  0.00    +0.000 OA
BRANCH  14  15
ATOM     15  C   UNL     1       2.996   6.051  19.589  0.00  0.00    +0.000 C 
ATOM     16  O   UNL     1       2.425   7.134  19.592  0.00  0.00    +0.000 OA
BRANCH  15  17
ATOM     17  C   UNL     1       2.242   4.765  19.686  0.00  0.00    +0.000 A 
ATOM     18  C   UNL     1       1.761   4.194  18.496  0.00  0.00    +0.000 A 
ATOM     19  C   UNL     1       1.016   3.013  18.523  0.00  0.00    +0.000 A 
ATOM     20  C   UNL     1       0.746   2.389  19.738  0.00  0.00    +0.000 A 
ATOM     21  C   UNL     1       1.227   2.941  20.925  0.00  0.00    +0.000 A 
ATOM     22  C   UNL     1       1.973   4.125  20.903  0.00  0.00    +0.000 A 
ENDBRANCH  15  17
ENDBRANCH  14  15
ENDBRANCH   3  14
TORSDOF 4
ENDMDL
MODEL 3
REMARK VINA RESULT:      -7.5      1.058      1.488
REMARK  Name = 
REMARK  5 active torsions:
REMARK  status: ('A' for Active; 'I' for Inactive)
REMARK    1  A    between atoms: C_1  and  C_2
REMARK    2  A    between atoms: C_5  and  C_6
REMARK    3  A    between atoms: N_8  and  O_9
REMARK    4  A    between atoms: O_9  and  C_10
REMARK    5  A    between atoms: C_10  and  C_12
REMARK                            x       y       z     vdW  Elec       q    Type
REMARK                         _______ _______ _______ _____ _____    ______ ____
ROOT
ATOM      1  C   UNL     1       5.620   4.808  17.516  0.00  0.00    +0.000 C 
ATOM      2  N   UNL     1       6.253   4.076  18.494  0.00  0.00    +0.000 N 
ATOM      3  N   UNL     1       4.710   5.700  17.786  0.00  0.00    +0.000 NA
ATOM      4  H   UNL     1       7.181   3.715  18.320  0.00  0.00    +0.000 HD
ATOM      5  H   UNL     1       6.135   4.453  19.426  0.00  0.00    +0.000 HD
ENDROOT
BRANCH   1  10
ATOM      6  C   UNL     1       6.909   3.957  11.888  0.00  0.00    +0.000 C 
ATOM      7  C   UNL     1       6.571   4.163  13.331  0.00  0.00    +0.000 A 
ATOM      8  C   UNL     1       5.463   3.541  13.917  0.00  0.00    +0.000 A 
ATOM      9  C   UNL     1       5.164   3.761  15.271  0.00  0.00    +0.000 A 
ATOM     10  C   UNL     1       5.967   4.597  16.062  0.00  0.00    +0.000 A 
ATOM     11  C   UNL     1       7.077   5.208  15.478  0.00  0.00    +0.000 A 
ATOM     12  C   UNL     1       7.364   4.990  14.128  0.00  0.00    +0.000 A 
ATOM     13  F   UNL     1       8.433   5.597  13.593  0.00  0.00    +0.000 F 
ENDBRANCH   1  10
BRANCH   3  14
ATOM     14  O   UNL     1       4.460   5.828  19.169  0.00  0.00    +0.000 OA
BRANCH  14  15
ATOM     15  C   UNL     1       3.138   6.119  19.366  0.00  0.00    +0.000 C 
ATOM     16  O   UNL     1       2.602   7.219  19.319  0.00  0.00    +0.000 OA
BRANCH  15  17
ATOM     17  C   UNL     1       2.363   4.879  19.669  0.00  0.00    +0.000 A 
ATOM     18  C   UNL     1       2.340   4.427  21.000  0.00  0.00    +0.000 A 
ATOM     19  C   UNL     1       1.665   3.253  21.341  0.00  0.00    +0.000 A 
ATOM     20  C   UNL     1       1.006   2.520  20.359  0.00  0.00    +0.000 A 
ATOM     21  C   UNL     1       1.013   2.963  19.036  0.00  0.00    +0.000 A 
ATOM     22  C   UNL     1       1.688   4.139  18.689  0.00  0.00    +0.000 A 
ENDBRANCH  15  17
ENDBRANCH  14  15
ENDBRANCH   3  14
TORSDOF 4
ENDMDL
MODEL 4
REMARK VINA RESULT:      -7.5      1.031      1.823
REMARK  Name = 
REMARK  5 active torsions:
REMARK  status: ('A' for Active; 'I' for Inactive)
REMARK    1  A    between atoms: C_1  and  C_2
REMARK    2  A    between atoms: C_5  and  C_6
REMARK    3  A    between atoms: N_8  and  O_9
REMARK    4  A    between atoms: O_9  and  C_10
REMARK    5  A    between atoms: C_10  and  C_12
REMARK                            x       y       z     vdW  Elec       q    Type
REMARK                         _______ _______ _______ _____ _____    ______ ____
ROOT
ATOM      1  C   UNL     1       5.486   4.852  17.454  0.00  0.00    +0.000 C 
ATOM      2  N   UNL     1       5.967   4.024  18.442  0.00  0.00    +0.000 N 
ATOM      3  N   UNL     1       4.687   5.850  17.702  0.00  0.00    +0.000 NA
ATOM      4  H   UNL     1       6.848   3.548  18.305  0.00  0.00    +0.000 HD
ATOM      5  H   UNL     1       5.850   4.394  19.378  0.00  0.00    +0.000 HD
ENDROOT
BRANCH   1  10
ATOM      6  C   UNL     1       6.951   3.943  11.878  0.00  0.00    +0.000 C 
ATOM      7  C   UNL     1       6.569   4.165  13.308  0.00  0.00    +0.000 A 
ATOM      8  C   UNL     1       5.439   3.552  13.864  0.00  0.00    +0.000 A 
ATOM      9  C   UNL     1       5.099   3.785  15.205  0.00  0.00    +0.000 A 
ATOM     10  C   UNL     1       5.879   4.626  16.014  0.00  0.00    +0.000 A 
ATOM     11  C   UNL     1       7.009   5.227  15.460  0.00  0.00    +0.000 A 
ATOM     12  C   UNL     1       7.339   4.996  14.122  0.00  0.00    +0.000 A 
ATOM     13  F   UNL     1       8.427   5.593  13.616  0.00  0.00    +0.000 F 
ENDBRANCH   1  10
BRANCH   3  14
ATOM     14  O   UNL     1       4.383   5.982  19.074  0.00  0.00    +0.000 OA
BRANCH  14  15
ATOM     15  C   UNL     1       3.047   6.233  19.221  0.00  0.00    +0.000 C 
ATOM     16  O   UNL     1       2.477   7.313  19.137  0.00  0.00    +0.000 OA
BRANCH  15  17
ATOM     17  C   UNL     1       2.302   4.972  19.518  0.00  0.00    +0.000 A 
ATOM     18  C   UNL     1       1.798   4.235  18.433  0.00  0.00    +0.000 A 
ATOM     19  C   UNL     1       1.060   3.069  18.646  0.00  0.00    +0.000 A 
ATOM     20  C   UNL     1       0.820   2.626  19.943  0.00  0.00    +0.000 A 
ATOM     21  C   UNL     1       1.324   3.343  21.029  0.00  0.00    +0.000 A 
ATOM     22  C   UNL     1       2.064   4.513  20.820  0.00  0.00    +0.000 A 
ENDBRANCH  15  17
ENDBRANCH  14  15
ENDBRANCH   3  14
TORSDOF 4
ENDMDL
MODEL 5
REMARK VINA RESULT:      -7.4      2.402      7.014
REMARK  Name = 
REMARK  5 active torsions:
REMARK  status: ('A' for Active; 'I' for Inactive)
REMARK    1  A    between atoms: C_1  and  C_2
REMARK    2  A    between atoms: C_5  and  C_6
REMARK    3  A    between atoms: N_8  and  O_9
REMARK    4  A    between atoms: O_9  and  C_10
REMARK    5  A    between atoms: C_10  and  C_12
REMARK                            x       y       z     vdW  Elec       q    Type
REMARK                         _______ _______ _______ _____ _____    ______ ____
ROOT
ATOM      1  C   UNL     1       3.871   5.774  17.608  0.00  0.00    +0.000 C 
ATOM      2  N   UNL     1       3.656   7.132  17.554  0.00  0.00    +0.000 N 
ATOM      3  N   UNL     1       4.647   5.152  16.767  0.00  0.00    +0.000 NA
ATOM      4  H   UNL     1       3.406   7.628  18.399  0.00  0.00    +0.000 HD
ATOM      5  H   UNL     1       4.324   7.628  16.978  0.00  0.00    +0.000 HD
ENDROOT
BRANCH   1  10
ATOM      6  C   UNL     1       1.274   2.599  21.760  0.00  0.00    +0.000 C 
ATOM      7  C   UNL     1       1.945   3.422  20.705  0.00  0.00    +0.000 A 
ATOM      8  C   UNL     1       2.271   4.765  20.925  0.00  0.00    +0.000 A 
ATOM      9  C   UNL     1       2.890   5.515  19.914  0.00  0.00    +0.000 A 
ATOM     10  C   UNL     1       3.201   4.938  18.673  0.00  0.00    +0.000 A 
ATOM     11  C   UNL     1       2.884   3.597  18.460  0.00  0.00    +0.000 A 
ATOM     12  C   UNL     1       2.260   2.858  19.468  0.00  0.00    +0.000 A 
ATOM     13  F   UNL     1       1.961   1.573  19.232  0.00  0.00    +0.000 F 
ENDBRANCH   1  10
BRANCH   3  14
ATOM     14  O   UNL     1       5.231   6.018  15.817  0.00  0.00    +0.000 OA
BRANCH  14  15
ATOM     15  C   UNL     1       6.508   5.605  15.552  0.00  0.00    +0.000 C 
ATOM     16  O   UNL     1       7.503   5.772  16.244  0.00  0.00    +0.000 OA
BRANCH  15  17
ATOM     17  C   UNL     1       6.570   4.886  14.244  0.00  0.00    +0.000 A 
ATOM     18  C   UNL     1       7.582   5.254  13.340  0.00  0.00    +0.000 A 
ATOM     19  C   UNL     1       7.670   4.646  12.086  0.00  0.00    +0.000 A 
ATOM     20  C   UNL     1       6.752   3.666  11.722  0.00  0.00    +0.000 A 
ATOM     21  C   UNL     1       5.749   3.286  12.614  0.00  0.00    +0.000 A 
ATOM     22  C   UNL     1       5.656   3.892  13.872  0.00  0.00    +0.000 A 
ENDBRANCH  15  17
ENDBRANCH  14  15
ENDBRANCH   3  14
TORSDOF 4
ENDMDL
MODEL 6
REMARK VINA RESULT:      -7.4      2.731      7.065
REMARK  Name = 
REMARK  5 active torsions:
REMARK  status: ('A' for Active; 'I' for Inactive)
REMARK    1  A    between atoms: C_1  and  C_2
REMARK    2  A    between atoms: C_5  and  C_6
REMARK    3  A    between atoms: N_8  and  O_9
REMARK    4  A    between atoms: O_9  and  C_10
REMARK    5  A    between atoms: C_10  and  C_12
REMARK                            x       y       z     vdW  Elec       q    Type
REMARK                         _______ _______ _______ _____ _____    ______ ____
ROOT
ATOM      1  C   UNL     1       5.293   5.374  18.170  0.00  0.00    +0.000 C 
ATOM      2  N   UNL     1       6.376   6.013  18.728  0.00  0.00    +0.000 N 
ATOM      3  N   UNL     1       5.105   5.305  16.884  0.00  0.00    +0.000 NA
ATOM      4  H   UNL     1       6.708   5.724  19.638  0.00  0.00    +0.000 HD
ATOM      5  H   UNL     1       7.121   6.204  18.069  0.00  0.00    +0.000 HD
ENDROOT
BRANCH   1  10
ATOM      6  C   UNL     1       1.339   2.771  21.584  0.00  0.00    +0.000 C 
ATOM      7  C   UNL     1       2.356   3.426  20.704  0.00  0.00    +0.000 A 
ATOM      8  C   UNL     1       3.457   2.717  20.208  0.00  0.00    +0.000 A 
ATOM      9  C   UNL     1       4.401   3.360  19.392  0.00  0.00    +0.000 A 
ATOM     10  C   UNL     1       4.260   4.715  19.053  0.00  0.00    +0.000 A 
ATOM     11  C   UNL     1       3.158   5.416  19.541  0.00  0.00    +0.000 A 
ATOM     12  C   UNL     1       2.226   4.771  20.358  0.00  0.00    +0.000 A 
ATOM     13  F   UNL     1       1.180   5.474  20.817  0.00  0.00    +0.000 F 
ENDBRANCH   1  10
BRANCH   3  14
ATOM     14  O   UNL     1       6.124   5.944  16.145  0.00  0.00    +0.000 OA
BRANCH  14  15
ATOM     15  C   UNL     1       7.076   5.026  15.797  0.00  0.00    +0.000 C 
ATOM     16  O   UNL     1       7.953   4.554  16.509  0.00  0.00    +0.000 OA
BRANCH  15  17
ATOM     17  C   UNL     1       6.931   4.632  14.363  0.00  0.00    +0.000 A 
ATOM     18  C   UNL     1       7.752   5.273  13.419  0.00  0.00    +0.000 A 
ATOM     19  C   UNL     1       7.638   4.977  12.060  0.00  0.00    +0.000 A 
ATOM     20  C   UNL     1       6.705   4.039  11.628  0.00  0.00    +0.000 A 
ATOM     21  C   UNL     1       5.890   3.390  12.556  0.00  0.00    +0.000 A 
ATOM     22  C   UNL     1       6.001   3.682  13.920  0.00  0.00    +0.000 A 
ENDBRANCH  15  17
ENDBRANCH  14  15
ENDBRANCH   3  14
TORSDOF 4
ENDMDL
MODEL 7
REMARK VINA RESULT:      -7.4      2.426      7.093
REMARK  Name = 
REMARK  5 active torsions:
REMARK  status: ('A' for Active; 'I' for Inactive)
REMARK    1  A    between atoms: C_1  and  C_2
REMARK    2  A    between atoms: C_5  and  C_6
REMARK    3  A    between atoms: N_8  and  O_9
REMARK    4  A    between atoms: O_9  and  C_10
REMARK    5  A    between atoms: C_10  and  C_12
REMARK                            x       y       z     vdW  Elec       q    Type
REMARK                         _______ _______ _______ _____ _____    ______ ____
ROOT
ATOM      1  C   UNL     1       4.020   5.605  17.634  0.00  0.00    +0.000 C 
ATOM      2  N   UNL     1       3.992   6.981  17.638  0.00  0.00    +0.000 N 
ATOM      3  N   UNL     1       4.667   4.918  16.737  0.00  0.00    +0.000 NA
ATOM      4  H   UNL     1       3.848   7.472  18.509  0.00  0.00    +0.000 HD
ATOM      5  H   UNL     1       4.698   7.404  17.048  0.00  0.00    +0.000 HD
ENDROOT
BRANCH   1  10
ATOM      6  C   UNL     1       1.173   2.651  21.785  0.00  0.00    +0.000 C 
ATOM      7  C   UNL     1       1.907   3.417  20.730  0.00  0.00    +0.000 A 
ATOM      8  C   UNL     1       2.265   4.757  20.918  0.00  0.00    +0.000 A 
ATOM      9  C   UNL     1       2.945   5.454  19.908  0.00  0.00    +0.000 A 
ATOM     10  C   UNL     1       3.284   4.826  18.699  0.00  0.00    +0.000 A 
ATOM     11  C   UNL     1       2.936   3.488  18.519  0.00  0.00    +0.000 A 
ATOM     12  C   UNL     1       2.252   2.802  19.526  0.00  0.00    +0.000 A 
ATOM     13  F   UNL     1       1.925   1.519  19.321  0.00  0.00    +0.000 F 
ENDBRANCH   1  10
BRANCH   3  14
ATOM     14  O   UNL     1       5.325   5.734  15.791  0.00  0.00    +0.000 OA
BRANCH  14  15
ATOM     15  C   UNL     1       6.574   5.231  15.550  0.00  0.00    +0.000 C 
ATOM     16  O   UNL     1       7.508   5.144  16.336  0.00  0.00    +0.000 OA
BRANCH  15  17
ATOM     17  C   UNL     1       6.693   4.770  14.133  0.00  0.00    +0.000 A 
ATOM     18  C   UNL     1       5.812   3.767  13.692  0.00  0.00    +0.000 A 
ATOM     19  C   UNL     1       5.898   3.266  12.392  0.00  0.00    +0.000 A 
ATOM     20  C   UNL     1       6.861   3.762  11.518  0.00  0.00    +0.000 A 
ATOM     21  C   UNL     1       7.735   4.764  11.941  0.00  0.00    +0.000 A 
ATOM     22  C   UNL     1       7.653   5.269  13.244  0.00  0.00    +0.000 A 
ENDBRANCH  15  17
ENDBRANCH  14  15
ENDBRANCH   3  14
TORSDOF 4
ENDMDL
MODEL 8
REMARK VINA RESULT:      -7.3      3.038      6.713
REMARK  Name = 
REMARK  5 active torsions:
REMARK  status: ('A' for Active; 'I' for Inactive)
REMARK    1  A    between atoms: C_1  and  C_2
REMARK    2  A    between atoms: C_5  and  C_6
REMARK    3  A    between atoms: N_8  and  O_9
REMARK    4  A    between atoms: O_9  and  C_10
REMARK    5  A    between atoms: C_10  and  C_12
REMARK                            x       y       z     vdW  Elec       q    Type
REMARK                         _______ _______ _______ _____ _____    ______ ____
ROOT
ATOM      1  C   UNL     1       3.831   5.156  17.456  0.00  0.00    +0.000 C 
ATOM      2  N   UNL     1       3.698   6.519  17.321  0.00  0.00    +0.000 N 
ATOM      3  N   UNL     1       4.501   4.428  16.609  0.00  0.00    +0.000 NA
ATOM      4  H   UNL     1       3.544   7.086  18.143  0.00  0.00    +0.000 HD
ATOM      5  H   UNL     1       4.352   6.929  16.665  0.00  0.00    +0.000 HD
ENDROOT
BRANCH   1  10
ATOM      6  C   UNL     1       1.294   2.421  21.945  0.00  0.00    +0.000 C 
ATOM      7  C   UNL     1       1.935   3.132  20.795  0.00  0.00    +0.000 A 
ATOM      8  C   UNL     1       1.215   4.032  20.001  0.00  0.00    +0.000 A 
ATOM      9  C   UNL     1       1.839   4.677  18.922  0.00  0.00    +0.000 A 
ATOM     10  C   UNL     1       3.190   4.441  18.622  0.00  0.00    +0.000 A 
ATOM     11  C   UNL     1       3.908   3.552  19.421  0.00  0.00    +0.000 A 
ATOM     12  C   UNL     1       3.278   2.907  20.489  0.00  0.00    +0.000 A 
ATOM     13  F   UNL     1       3.992   2.053  21.234  0.00  0.00    +0.000 F 
ENDBRANCH   1  10
BRANCH   3  14
ATOM     14  O   UNL     1       5.066   5.186  15.561  0.00  0.00    +0.000 OA
BRANCH  14  15
ATOM     15  C   UNL     1       6.420   4.992  15.540  0.00  0.00    +0.000 C 
ATOM     16  O   UNL     1       7.072   4.372  14.711  0.00  0.00    +0.000 OA
BRANCH  15  17
ATOM     17  C   UNL     1       7.067   5.655  16.713  0.00  0.00    +0.000 A 
ATOM     18  C   UNL     1       7.480   4.842  17.782  0.00  0.00    +0.000 A 
ATOM     19  C   UNL     1       8.056   5.405  18.923  0.00  0.00    +0.000 A 
ATOM     20  C   UNL     1       8.227   6.784  19.007  0.00  0.00    +0.000 A 
ATOM     21  C   UNL     1       7.829   7.601  17.949  0.00  0.00    +0.000 A 
ATOM     22  C   UNL     1       7.251   7.041  16.803  0.00  0.00    +0.000 A 
ENDBRANCH  15  17
ENDBRANCH  14  15
ENDBRANCH   3  14
TORSDOF 4
ENDMDL
MODEL 9
REMARK VINA RESULT:      -7.3      1.480      2.226
REMARK  Name = 
REMARK  5 active torsions:
REMARK  status: ('A' for Active; 'I' for Inactive)
REMARK    1  A    between atoms: C_1  and  C_2
REMARK    2  A    between atoms: C_5  and  C_6
REMARK    3  A    between atoms: N_8  and  O_9
REMARK    4  A    between atoms: O_9  and  C_10
REMARK    5  A    between atoms: C_10  and  C_12
REMARK                            x       y       z     vdW  Elec       q    Type
REMARK                         _______ _______ _______ _____ _____    ______ ____
ROOT
ATOM      1  C   UNL     1       5.385   4.695  17.637  0.00  0.00    +0.000 C 
ATOM      2  N   UNL     1       4.575   5.724  18.060  0.00  0.00    +0.000 N 
ATOM      3  N   UNL     1       5.781   3.741  18.430  0.00  0.00    +0.000 NA
ATOM      4  H   UNL     1       3.978   6.192  17.392  0.00  0.00    +0.000 HD
ATOM      5  H   UNL     1       4.124   5.547  18.949  0.00  0.00    +0.000 HD
ENDROOT
BRANCH   1  10
ATOM      6  C   UNL     1       7.256   4.488  12.112  0.00  0.00    +0.000 C 
ATOM      7  C   UNL     1       6.786   4.551  13.531  0.00  0.00    +0.000 A 
ATOM      8  C   UNL     1       7.621   5.008  14.557  0.00  0.00    +0.000 A 
ATOM      9  C   UNL     1       7.157   5.046  15.881  0.00  0.00    +0.000 A 
ATOM     10  C   UNL     1       5.854   4.637  16.202  0.00  0.00    +0.000 A 
ATOM     11  C   UNL     1       5.020   4.192  15.177  0.00  0.00    +0.000 A 
ATOM     12  C   UNL     1       5.491   4.149  13.862  0.00  0.00    +0.000 A 
ATOM     13  F   UNL     1       4.669   3.710  12.899  0.00  0.00    +0.000 F 
ENDBRANCH   1  10
BRANCH   3  14
ATOM     14  O   UNL     1       5.287   3.881  19.745  0.00  0.00    +0.000 OA
BRANCH  14  15
ATOM     15  C   UNL     1       4.649   2.729  20.114  0.00  0.00    +0.000 C 
ATOM     16  O   UNL     1       5.157   1.695  20.530  0.00  0.00    +0.000 OA
BRANCH  15  17
ATOM     17  C   UNL     1       3.171   2.865  19.945  0.00  0.00    +0.000 A 
ATOM     18  C   UNL     1       2.557   2.130  18.916  0.00  0.00    +0.000 A 
ATOM     19  C   UNL     1       1.185   2.244  18.682  0.00  0.00    +0.000 A 
ATOM     20  C   UNL     1       0.413   3.090  19.472  0.00  0.00    +0.000 A 
ATOM     21  C   UNL     1       1.009   3.818  20.502  0.00  0.00    +0.000 A 
ATOM     22  C   UNL     1       2.384   3.707  20.741  0.00  0.00    +0.000 A 
ENDBRANCH  15  17
ENDBRANCH  14  15
ENDBRANCH   3  14
TORSDOF 4
ENDMDL
