MODEL 1
REMARK VINA RESULT:      -7.4      0.000      0.000
REMARK  Name = 
REMARK  4 active torsions:
REMARK  status: ('A' for Active; 'I' for Inactive)
REMARK    1  A    between atoms: C_2  and  C_4
REMARK    2  A    between atoms: C_10  and  C_11
REMARK    3  A    between atoms: C_11  and  O_13
REMARK    4  A    between atoms: C_16  and  N_17
REMARK                            x       y       z     vdW  Elec       q    Type
REMARK                         _______ _______ _______ _____ _____    ______ ____
ROOT
ATOM      1  C   UNL     1       3.010   3.681  19.810  0.00  0.00    +0.000 A 
ATOM      2  S   UNL     1       2.854   5.369  19.444  0.00  0.00    +0.000 S 
ATOM      3  C   UNL     1       3.874   5.212  18.127  0.00  0.00    +0.000 A 
ATOM      4  N   UNL     1       4.152   6.298  17.347  0.00  0.00    +0.000 N 
ATOM      5  C   UNL     1       4.978   6.139  16.259  0.00  0.00    +0.000 A 
ATOM      6  O   UNL     1       5.256   7.079  15.515  0.00  0.00    +0.000 OA
ATOM      7  C   UNL     1       5.543   4.775  15.987  0.00  0.00    +0.000 A 
ATOM      8  C   UNL     1       5.227   3.752  16.812  0.00  0.00    +0.000 A 
ATOM      9  C   UNL     1       4.357   3.951  17.927  0.00  0.00    +0.000 A 
ATOM     10  C   UNL     1       3.861   3.051  18.906  0.00  0.00    +0.000 A 
ATOM     11  H   UNL     1       3.756   7.206  17.552  0.00  0.00    +0.000 HD
ENDROOT
BRANCH   1  13
ATOM     12  N   UNL     1       0.926   3.137  20.882  0.00  0.00    +0.000 N 
ATOM     13  C   UNL     1       2.295   3.094  20.931  0.00  0.00    +0.000 C 
ATOM     14  O   UNL     1       2.833   2.555  21.897  0.00  0.00    +0.000 OA
ATOM     15  H   UNL     1       0.409   2.696  21.630  0.00  0.00    +0.000 HD
ATOM     16  H   UNL     1       0.433   3.509  20.085  0.00  0.00    +0.000 HD
ENDBRANCH   1  13
BRANCH  10  17
ATOM     17  N   UNL     1       4.164   1.738  18.949  0.00  0.00    +0.000 N 
ATOM     18  H   UNL     1       4.682   1.291  19.699  0.00  0.00    +0.000 HD
ATOM     19  H   UNL     1       3.974   1.125  18.152  0.00  0.00    +0.000 HD
ENDBRANCH  10  17
BRANCH   7  20
ATOM     20  C   UNL     1       6.432   4.499  14.837  0.00  0.00    +0.000 C 
ATOM     21  O   UNL     1       6.192   3.645  13.997  0.00  0.00    +0.000 OA
BRANCH  20  22
ATOM     22  O   UNL     1       7.540   5.270  14.775  0.00  0.00    +0.000 OA
ATOM     23  H   UNL     1       7.391   6.227  14.966  0.00  0.00    +0.000 HD
ENDBRANCH  20  22
ENDBRANCH   7  20
TORSDOF 4
ENDMDL
MODEL 2
REMARK VINA RESULT:      -7.3      2.400      6.009
REMARK  Name = 
REMARK  4 active torsions:
REMARK  status: ('A' for Active; 'I' for Inactive)
REMARK    1  A    between atoms: C_2  and  C_4
REMARK    2  A    between atoms: C_10  and  C_11
REMARK    3  A    between atoms: C_11  and  O_13
REMARK    4  A    between atoms: C_16  and  N_17
REMARK                            x       y       z     vdW  Elec       q    Type
REMARK                         _______ _______ _______ _____ _____    ______ ____
ROOT
ATOM      1  C   UNL     1       5.988   5.033  16.981  0.00  0.00    +0.000 A 
ATOM      2  S   UNL     1       4.703   4.368  16.024  0.00  0.00    +0.000 S 
ATOM      3  C   UNL     1       3.888   3.875  17.399  0.00  0.00    +0.000 A 
ATOM      4  N   UNL     1       2.682   3.246  17.288  0.00  0.00    +0.000 N 
ATOM      5  C   UNL     1       2.024   2.868  18.434  0.00  0.00    +0.000 A 
ATOM      6  O   UNL     1       0.928   2.307  18.396  0.00  0.00    +0.000 OA
ATOM      7  C   UNL     1       2.671   3.157  19.756  0.00  0.00    +0.000 A 
ATOM      8  C   UNL     1       3.873   3.776  19.782  0.00  0.00    +0.000 A 
ATOM      9  C   UNL     1       4.524   4.165  18.572  0.00  0.00    +0.000 A 
ATOM     10  C   UNL     1       5.751   4.838  18.339  0.00  0.00    +0.000 A 
ATOM     11  H   UNL     1       2.266   3.065  16.384  0.00  0.00    +0.000 HD
ENDROOT
BRANCH   1  13
ATOM     12  N   UNL     1       7.562   5.172  15.166  0.00  0.00    +0.000 N 
ATOM     13  C   UNL     1       7.118   5.697  16.352  0.00  0.00    +0.000 C 
ATOM     14  O   UNL     1       7.682   6.693  16.802  0.00  0.00    +0.000 OA
ATOM     15  H   UNL     1       8.318   5.643  14.690  0.00  0.00    +0.000 HD
ATOM     16  H   UNL     1       7.097   4.395  14.720  0.00  0.00    +0.000 HD
ENDBRANCH   1  13
BRANCH  10  17
ATOM     17  N   UNL     1       6.584   5.253  19.314  0.00  0.00    +0.000 N 
ATOM     18  H   UNL     1       6.981   4.651  20.028  0.00  0.00    +0.000 HD
ATOM     19  H   UNL     1       6.780   6.249  19.453  0.00  0.00    +0.000 HD
ENDBRANCH  10  17
BRANCH   7  20
ATOM     20  C   UNL     1       2.039   2.799  21.045  0.00  0.00    +0.000 C 
ATOM     21  O   UNL     1       2.678   2.465  22.032  0.00  0.00    +0.000 OA
BRANCH  20  22
ATOM     22  O   UNL     1       0.690   2.874  21.060  0.00  0.00    +0.000 OA
ATOM     23  H   UNL     1       0.265   2.866  20.169  0.00  0.00    +0.000 HD
ENDBRANCH  20  22
ENDBRANCH   7  20
TORSDOF 4
ENDMDL
MODEL 3
REMARK VINA RESULT:      -7.2      1.335      1.335
REMARK  Name = 
REMARK  4 active torsions:
REMARK  status: ('A' for Active; 'I' for Inactive)
REMARK    1  A    between atoms: C_2  and  C_4
REMARK    2  A    between atoms: C_10  and  C_11
REMARK    3  A    between atoms: C_11  and  O_13
REMARK    4  A    between atoms: C_16  and  N_17
REMARK                            x       y       z     vdW  Elec       q    Type
REMARK                         _______ _______ _______ _____ _____    ______ ____
ROOT
ATOM      1  C   UNL     1       2.064   3.657  18.880  0.00  0.00    +0.000 A 
ATOM      2  S   UNL     1       2.513   5.311  19.144  0.00  0.00    +0.000 S 
ATOM      3  C   UNL     1       3.708   5.207  17.978  0.00  0.00    +0.000 A 
ATOM      4  N   UNL     1       4.472   6.301  17.685  0.00  0.00    +0.000 N 
ATOM      5  C   UNL     1       5.434   6.194  16.709  0.00  0.00    +0.000 A 
ATOM      6  O   UNL     1       6.145   7.149  16.394  0.00  0.00    +0.000 OA
ATOM      7  C   UNL     1       5.606   4.873  16.018  0.00  0.00    +0.000 A 
ATOM      8  C   UNL     1       4.817   3.835  16.372  0.00  0.00    +0.000 A 
ATOM      9  C   UNL     1       3.819   3.983  17.383  0.00  0.00    +0.000 A 
ATOM     10  C   UNL     1       2.866   3.071  17.905  0.00  0.00    +0.000 A 
ATOM     11  H   UNL     1       4.333   7.180  18.164  0.00  0.00    +0.000 HD
ENDROOT
BRANCH   1  13
ATOM     12  N   UNL     1       0.912   3.329  20.967  0.00  0.00    +0.000 N 
ATOM     13  C   UNL     1       0.970   3.055  19.625  0.00  0.00    +0.000 C 
ATOM     14  O   UNL     1       0.099   2.340  19.133  0.00  0.00    +0.000 OA
ATOM     15  H   UNL     1       0.136   2.955  21.496  0.00  0.00    +0.000 HD
ATOM     16  H   UNL     1       1.563   3.959  21.411  0.00  0.00    +0.000 HD
ENDBRANCH   1  13
BRANCH  10  17
ATOM     17  N   UNL     1       2.739   1.792  17.496  0.00  0.00    +0.000 N 
ATOM     18  H   UNL     1       1.852   1.317  17.357  0.00  0.00    +0.000 HD
ATOM     19  H   UNL     1       3.556   1.183  17.406  0.00  0.00    +0.000 HD
ENDBRANCH  10  17
BRANCH   7  20
ATOM     20  C   UNL     1       6.606   4.661  14.949  0.00  0.00    +0.000 C 
ATOM     21  O   UNL     1       6.442   3.875  14.027  0.00  0.00    +0.000 OA
BRANCH  20  22
ATOM     22  O   UNL     1       7.727   5.408  15.058  0.00  0.00    +0.000 OA
ATOM     23  H   UNL     1       8.151   5.391  15.949  0.00  0.00    +0.000 HD
ENDBRANCH  20  22
ENDBRANCH   7  20
TORSDOF 4
ENDMDL
MODEL 4
REMARK VINA RESULT:      -7.2      2.451      3.066
REMARK  Name = 
REMARK  4 active torsions:
REMARK  status: ('A' for Active; 'I' for Inactive)
REMARK    1  A    between atoms: C_2  and  C_4
REMARK    2  A    between atoms: C_10  and  C_11
REMARK    3  A    between atoms: C_11  and  O_13
REMARK    4  A    between atoms: C_16  and  N_17
REMARK                            x       y       z     vdW  Elec       q    Type
REMARK                         _______ _______ _______ _____ _____    ______ ____
ROOT
ATOM      1  C   UNL     1       2.739   3.414  19.035  0.00  0.00    +0.000 A 
ATOM      2  S   UNL     1       3.614   2.567  17.800  0.00  0.00    +0.000 S 
ATOM      3  C   UNL     1       4.788   3.758  17.768  0.00  0.00    +0.000 A 
ATOM      4  N   UNL     1       5.857   3.639  16.927  0.00  0.00    +0.000 N 
ATOM      5  C   UNL     1       6.818   4.623  16.933  0.00  0.00    +0.000 A 
ATOM      6  O   UNL     1       7.809   4.564  16.205  0.00  0.00    +0.000 OA
ATOM      7  C   UNL     1       6.638   5.788  17.861  0.00  0.00    +0.000 A 
ATOM      8  C   UNL     1       5.546   5.839  18.656  0.00  0.00    +0.000 A 
ATOM      9  C   UNL     1       4.573   4.794  18.632  0.00  0.00    +0.000 A 
ATOM     10  C   UNL     1       3.379   4.603  19.373  0.00  0.00    +0.000 A 
ATOM     11  H   UNL     1       5.955   2.841  16.313  0.00  0.00    +0.000 HD
ENDROOT
BRANCH   1  13
ATOM     12  N   UNL     1       0.807   2.000  18.791  0.00  0.00    +0.000 N 
ATOM     13  C   UNL     1       1.512   2.865  19.588  0.00  0.00    +0.000 C 
ATOM     14  O   UNL     1       1.081   3.111  20.713  0.00  0.00    +0.000 OA
ATOM     15  H   UNL     1      -0.026   1.574  19.171  0.00  0.00    +0.000 HD
ATOM     16  H   UNL     1       1.147   1.715  17.884  0.00  0.00    +0.000 HD
ENDBRANCH   1  13
BRANCH  10  17
ATOM     17  N   UNL     1       2.922   5.463  20.307  0.00  0.00    +0.000 N 
ATOM     18  H   UNL     1       3.416   6.294  20.616  0.00  0.00    +0.000 HD
ATOM     19  H   UNL     1       2.075   5.258  20.845  0.00  0.00    +0.000 HD
ENDBRANCH  10  17
BRANCH   7  20
ATOM     20  C   UNL     1       7.620   6.892  17.949  0.00  0.00    +0.000 C 
ATOM     21  O   UNL     1       7.721   7.765  17.100  0.00  0.00    +0.000 OA
BRANCH  20  22
ATOM     22  O   UNL     1       8.404   6.872  19.049  0.00  0.00    +0.000 OA
ATOM     23  H   UNL     1       8.738   5.978  19.304  0.00  0.00    +0.000 HD
ENDBRANCH  20  22
ENDBRANCH   7  20
TORSDOF 4
ENDMDL
MODEL 5
REMARK VINA RESULT:      -7.0      1.061      1.119
REMARK  Name = 
REMARK  4 active torsions:
REMARK  status: ('A' for Active; 'I' for Inactive)
REMARK    1  A    between atoms: C_2  and  C_4
REMARK    2  A    between atoms: C_10  and  C_11
REMARK    3  A    between atoms: C_11  and  O_13
REMARK    4  A    between atoms: C_16  and  N_17
REMARK                            x       y       z     vdW  Elec       q    Type
REMARK                         _______ _______ _______ _____ _____    ______ ____
ROOT
ATOM      1  C   UNL     1       2.891   3.645  20.164  0.00  0.00    +0.000 A 
ATOM      2  S   UNL     1       2.231   5.042  19.377  0.00  0.00    +0.000 S 
ATOM      3  C   UNL     1       3.611   5.212  18.447  0.00  0.00    +0.000 A 
ATOM      4  N   UNL     1       3.696   6.220  17.530  0.00  0.00    +0.000 N 
ATOM      5  C   UNL     1       4.833   6.326  16.764  0.00  0.00    +0.000 A 
ATOM      6  O   UNL     1       4.961   7.208  15.915  0.00  0.00    +0.000 OA
ATOM      7  C   UNL     1       5.934   5.330  16.982  0.00  0.00    +0.000 A 
ATOM      8  C   UNL     1       5.778   4.366  17.917  0.00  0.00    +0.000 A 
ATOM      9  C   UNL     1       4.578   4.279  18.687  0.00  0.00    +0.000 A 
ATOM     10  C   UNL     1       4.169   3.362  19.689  0.00  0.00    +0.000 A 
ATOM     11  H   UNL     1       2.937   6.877  17.401  0.00  0.00    +0.000 HD
ENDROOT
BRANCH   1  13
ATOM     12  N   UNL     1       0.767   2.874  20.991  0.00  0.00    +0.000 N 
ATOM     13  C   UNL     1       2.125   2.925  21.168  0.00  0.00    +0.000 C 
ATOM     14  O   UNL     1       2.613   2.355  22.143  0.00  0.00    +0.000 OA
ATOM     15  H   UNL     1       0.220   2.344  21.654  0.00  0.00    +0.000 HD
ATOM     16  H   UNL     1       0.321   3.270  20.177  0.00  0.00    +0.000 HD
ENDBRANCH   1  13
BRANCH  10  17
ATOM     17  N   UNL     1       4.919   2.329  20.123  0.00  0.00    +0.000 N 
ATOM     18  H   UNL     1       4.641   1.354  20.073  0.00  0.00    +0.000 HD
ATOM     19  H   UNL     1       5.790   2.488  20.638  0.00  0.00    +0.000 HD
ENDBRANCH  10  17
BRANCH   7  20
ATOM     20  C   UNL     1       7.191   5.354  16.203  0.00  0.00    +0.000 C 
ATOM     21  O   UNL     1       7.635   4.375  15.621  0.00  0.00    +0.000 OA
BRANCH  20  22
ATOM     22  O   UNL     1       7.822   6.548  16.171  0.00  0.00    +0.000 OA
ATOM     23  H   UNL     1       8.522   6.629  15.480  0.00  0.00    +0.000 HD
ENDBRANCH  20  22
ENDBRANCH   7  20
TORSDOF 4
ENDMDL
MODEL 6
REMARK VINA RESULT:      -7.0      2.131      2.551
REMARK  Name = 
REMARK  4 active torsions:
REMARK  status: ('A' for Active; 'I' for Inactive)
REMARK    1  A    between atoms: C_2  and  C_4
REMARK    2  A    between atoms: C_10  and  C_11
REMARK    3  A    between atoms: C_11  and  O_13
REMARK    4  A    between atoms: C_16  and  N_17
REMARK                            x       y       z     vdW  Elec       q    Type
REMARK                         _______ _______ _______ _____ _____    ______ ____
ROOT
ATOM      1  C   UNL     1       2.248   3.231  19.269  0.00  0.00    +0.000 A 
ATOM      2  S   UNL     1       3.738   2.794  20.042  0.00  0.00    +0.000 S 
ATOM      3  C   UNL     1       4.618   3.643  18.900  0.00  0.00    +0.000 A 
ATOM      4  N   UNL     1       5.980   3.696  18.990  0.00  0.00    +0.000 N 
ATOM      5  C   UNL     1       6.678   4.416  18.050  0.00  0.00    +0.000 A 
ATOM      6  O   UNL     1       7.905   4.509  18.086  0.00  0.00    +0.000 OA
ATOM      7  C   UNL     1       5.908   5.104  16.961  0.00  0.00    +0.000 A 
ATOM      8  C   UNL     1       4.560   4.995  16.935  0.00  0.00    +0.000 A 
ATOM      9  C   UNL     1       3.866   4.248  17.934  0.00  0.00    +0.000 A 
ATOM     10  C   UNL     1       2.482   4.011  18.139  0.00  0.00    +0.000 A 
ATOM     11  H   UNL     1       6.475   3.225  19.735  0.00  0.00    +0.000 HD
ENDROOT
BRANCH   1  13
ATOM     12  N   UNL     1       0.814   2.895  21.172  0.00  0.00    +0.000 N 
ATOM     13  C   UNL     1       0.972   2.797  19.814  0.00  0.00    +0.000 C 
ATOM     14  O   UNL     1       0.035   2.369  19.142  0.00  0.00    +0.000 OA
ATOM     15  H   UNL     1      -0.079   2.639  21.567  0.00  0.00    +0.000 HD
ATOM     16  H   UNL     1       1.526   3.298  21.763  0.00  0.00    +0.000 HD
ENDBRANCH   1  13
BRANCH  10  17
ATOM     17  N   UNL     1       1.505   4.494  17.345  0.00  0.00    +0.000 N 
ATOM     18  H   UNL     1       0.536   4.193  17.375  0.00  0.00    +0.000 HD
ATOM     19  H   UNL     1       1.718   5.133  16.574  0.00  0.00    +0.000 HD
ENDBRANCH  10  17
BRANCH   7  20
ATOM     20  C   UNL     1       6.566   5.910  15.910  0.00  0.00    +0.000 C 
ATOM     21  O   UNL     1       6.246   5.860  14.731  0.00  0.00    +0.000 OA
BRANCH  20  22
ATOM     22  O   UNL     1       7.554   6.722  16.347  0.00  0.00    +0.000 OA
ATOM     23  H   UNL     1       7.968   7.284  15.648  0.00  0.00    +0.000 HD
ENDBRANCH  20  22
ENDBRANCH   7  20
TORSDOF 4
ENDMDL
MODEL 7
REMARK VINA RESULT:      -7.0      1.848      2.111
REMARK  Name = 
REMARK  4 active torsions:
REMARK  status: ('A' for Active; 'I' for Inactive)
REMARK    1  A    between atoms: C_2  and  C_4
REMARK    2  A    between atoms: C_10  and  C_11
REMARK    3  A    between atoms: C_11  and  O_13
REMARK    4  A    between atoms: C_16  and  N_17
REMARK                            x       y       z     vdW  Elec       q    Type
REMARK                         _______ _______ _______ _____ _____    ______ ____
ROOT
ATOM      1  C   UNL     1       2.859   3.748  19.622  0.00  0.00    +0.000 A 
ATOM      2  S   UNL     1       4.486   3.744  20.224  0.00  0.00    +0.000 S 
ATOM      3  C   UNL     1       5.093   3.976  18.682  0.00  0.00    +0.000 A 
ATOM      4  N   UNL     1       6.440   4.084  18.489  0.00  0.00    +0.000 N 
ATOM      5  C   UNL     1       6.911   4.294  17.214  0.00  0.00    +0.000 A 
ATOM      6  O   UNL     1       8.115   4.410  16.981  0.00  0.00    +0.000 OA
ATOM      7  C   UNL     1       5.919   4.383  16.093  0.00  0.00    +0.000 A 
ATOM      8  C   UNL     1       4.601   4.256  16.364  0.00  0.00    +0.000 A 
ATOM      9  C   UNL     1       4.145   4.050  17.702  0.00  0.00    +0.000 A 
ATOM     10  C   UNL     1       2.839   3.915  18.240  0.00  0.00    +0.000 A 
ATOM     11  H   UNL     1       7.087   4.023  19.263  0.00  0.00    +0.000 HD
ENDROOT
BRANCH   1  13
ATOM     12  N   UNL     1       2.011   3.178  21.800  0.00  0.00    +0.000 N 
ATOM     13  C   UNL     1       1.731   3.600  20.527  0.00  0.00    +0.000 C 
ATOM     14  O   UNL     1       0.562   3.840  20.230  0.00  0.00    +0.000 OA
ATOM     15  H   UNL     1       1.247   3.109  22.458  0.00  0.00    +0.000 HD
ATOM     16  H   UNL     1       2.957   3.028  22.116  0.00  0.00    +0.000 HD
ENDBRANCH   1  13
BRANCH  10  17
ATOM     17  N   UNL     1       1.709   3.958  17.505  0.00  0.00    +0.000 N 
ATOM     18  H   UNL     1       1.429   3.247  16.837  0.00  0.00    +0.000 HD
ATOM     19  H   UNL     1       1.109   4.788  17.506  0.00  0.00    +0.000 HD
ENDBRANCH  10  17
BRANCH   7  20
ATOM     20  C   UNL     1       6.325   4.616  14.689  0.00  0.00    +0.000 C 
ATOM     21  O   UNL     1       5.750   4.114  13.735  0.00  0.00    +0.000 OA
BRANCH  20  22
ATOM     22  O   UNL     1       7.386   5.438  14.531  0.00  0.00    +0.000 OA
ATOM     23  H   UNL     1       7.373   5.977  13.704  0.00  0.00    +0.000 HD
ENDBRANCH  20  22
ENDBRANCH   7  20
TORSDOF 4
ENDMDL
MODEL 8
REMARK VINA RESULT:      -6.7      2.189      5.936
REMARK  Name = 
REMARK  4 active torsions:
REMARK  status: ('A' for Active; 'I' for Inactive)
REMARK    1  A    between atoms: C_2  and  C_4
REMARK    2  A    between atoms: C_10  and  C_11
REMARK    3  A    between atoms: C_11  and  O_13
REMARK    4  A    between atoms: C_16  and  N_17
REMARK                            x       y       z     vdW  Elec       q    Type
REMARK                         _______ _______ _______ _____ _____    ______ ____
ROOT
ATOM      1  C   UNL     1       5.834   6.057  17.543  0.00  0.00    +0.000 A 
ATOM      2  S   UNL     1       4.390   7.012  17.647  0.00  0.00    +0.000 S 
ATOM      3  C   UNL     1       3.689   5.900  18.682  0.00  0.00    +0.000 A 
ATOM      4  N   UNL     1       2.436   6.124  19.176  0.00  0.00    +0.000 N 
ATOM      5  C   UNL     1       1.890   5.204  20.040  0.00  0.00    +0.000 A 
ATOM      6  O   UNL     1       0.769   5.359  20.525  0.00  0.00    +0.000 OA
ATOM      7  C   UNL     1       2.698   3.990  20.392  0.00  0.00    +0.000 A 
ATOM      8  C   UNL     1       3.928   3.835  19.853  0.00  0.00    +0.000 A 
ATOM      9  C   UNL     1       4.469   4.816  18.967  0.00  0.00    +0.000 A 
ATOM     10  C   UNL     1       5.721   4.897  18.305  0.00  0.00    +0.000 A 
ATOM     11  H   UNL     1       1.914   6.953  18.924  0.00  0.00    +0.000 HD
ENDROOT
BRANCH   1  13
ATOM     12  N   UNL     1       7.505   7.721  17.064  0.00  0.00    +0.000 N 
ATOM     13  C   UNL     1       6.965   6.502  16.745  0.00  0.00    +0.000 C 
ATOM     14  O   UNL     1       7.469   5.858  15.827  0.00  0.00    +0.000 OA
ATOM     15  H   UNL     1       8.318   8.030  16.551  0.00  0.00    +0.000 HD
ATOM     16  H   UNL     1       7.172   8.262  17.848  0.00  0.00    +0.000 HD
ENDBRANCH   1  13
BRANCH  10  17
ATOM     17  N   UNL     1       6.694   3.970  18.410  0.00  0.00    +0.000 N 
ATOM     18  H   UNL     1       6.682   3.067  17.947  0.00  0.00    +0.000 HD
ATOM     19  H   UNL     1       7.470   4.090  19.068  0.00  0.00    +0.000 HD
ENDBRANCH  10  17
BRANCH   7  20
ATOM     20  C   UNL     1       2.203   2.949  21.319  0.00  0.00    +0.000 C 
ATOM     21  O   UNL     1       2.939   2.302  22.051  0.00  0.00    +0.000 OA
BRANCH  20  22
ATOM     22  O   UNL     1       0.865   2.762  21.308  0.00  0.00    +0.000 OA
ATOM     23  H   UNL     1       0.340   3.507  21.687  0.00  0.00    +0.000 HD
ENDBRANCH  20  22
ENDBRANCH   7  20
TORSDOF 4
ENDMDL
MODEL 9
REMARK VINA RESULT:      -6.6      1.678      2.521
REMARK  Name = 
REMARK  4 active torsions:
REMARK  status: ('A' for Active; 'I' for Inactive)
REMARK    1  A    between atoms: C_2  and  C_4
REMARK    2  A    between atoms: C_10  and  C_11
REMARK    3  A    between atoms: C_11  and  O_13
REMARK    4  A    between atoms: C_16  and  N_17
REMARK                            x       y       z     vdW  Elec       q    Type
REMARK                         _______ _______ _______ _____ _____    ______ ____
ROOT
ATOM      1  C   UNL     1       2.636   3.434  19.810  0.00  0.00    +0.000 A 
ATOM      2  S   UNL     1       3.135   2.298  18.599  0.00  0.00    +0.000 S 
ATOM      3  C   UNL     1       4.195   3.413  17.942  0.00  0.00    +0.000 A 
ATOM      4  N   UNL     1       4.968   3.070  16.869  0.00  0.00    +0.000 N 
ATOM      5  C   UNL     1       5.845   3.999  16.361  0.00  0.00    +0.000 A 
ATOM      6  O   UNL     1       6.574   3.743  15.402  0.00  0.00    +0.000 OA
ATOM      7  C   UNL     1       5.903   5.353  17.006  0.00  0.00    +0.000 A 
ATOM      8  C   UNL     1       5.098   5.618  18.059  0.00  0.00    +0.000 A 
ATOM      9  C   UNL     1       4.206   4.626  18.569  0.00  0.00    +0.000 A 
ATOM     10  C   UNL     1       3.298   4.649  19.658  0.00  0.00    +0.000 A 
ATOM     11  H   UNL     1       4.910   2.150  16.455  0.00  0.00    +0.000 HD
ENDROOT
BRANCH   1  13
ATOM     12  N   UNL     1       0.379   2.821  20.377  0.00  0.00    +0.000 N 
ATOM     13  C   UNL     1       1.654   3.065  20.817  0.00  0.00    +0.000 C 
ATOM     14  O   UNL     1       1.895   2.944  22.017  0.00  0.00    +0.000 OA
ATOM     15  H   UNL     1      -0.309   2.522  21.054  0.00  0.00    +0.000 HD
ATOM     16  H   UNL     1       0.140   2.844  19.397  0.00  0.00    +0.000 HD
ENDBRANCH   1  13
BRANCH  10  17
ATOM     17  N   UNL     1       3.106   5.715  20.462  0.00  0.00    +0.000 N 
ATOM     18  H   UNL     1       2.350   5.801  21.134  0.00  0.00    +0.000 HD
ATOM     19  H   UNL     1       3.669   6.564  20.357  0.00  0.00    +0.000 HD
ENDBRANCH  10  17
BRANCH   7  20
ATOM     20  C   UNL     1       6.820   6.416  16.539  0.00  0.00    +0.000 C 
ATOM     21  O   UNL     1       6.782   7.563  16.960  0.00  0.00    +0.000 OA
BRANCH  20  22
ATOM     22  O   UNL     1       7.717   6.027  15.606  0.00  0.00    +0.000 OA
ATOM     23  H   UNL     1       7.374   5.380  14.945  0.00  0.00    +0.000 HD
ENDBRANCH  20  22
ENDBRANCH   7  20
TORSDOF 4
ENDMDL
