MODEL 1
REMARK VINA RESULT:      -8.9      0.000      0.000
REMARK  Name = 
REMARK  6 active torsions:
REMARK  status: ('A' for Active; 'I' for Inactive)
REMARK    1  A    between atoms: C_1  and  O_2
REMARK    2  A    between atoms: O_2  and  C_3
REMARK    3  A    between atoms: C_8  and  C_9
REMARK    4  A    between atoms: C_11  and  O_12
REMARK    5  A    between atoms: O_12  and  C_13
REMARK    6  A    between atoms: C_13  and  C_14
REMARK                            x       y       z     vdW  Elec       q    Type
REMARK                         _______ _______ _______ _____ _____    ______ ____
ROOT
ATOM      1  C   UNL     1       6.492   5.860  16.591  0.00  0.00    +0.000 A 
ATOM      2  C   UNL     1       6.500   4.534  16.177  0.00  0.00    +0.000 A 
ATOM      3  C   UNL     1       5.409   3.708  16.464  0.00  0.00    +0.000 A 
ATOM      4  C   UNL     1       4.303   4.167  17.159  0.00  0.00    +0.000 A 
ATOM      5  N   UNL     1       3.311   3.299  17.402  0.00  0.00    +0.000 NA
ATOM      6  C   UNL     1       2.230   3.727  18.086  0.00  0.00    +0.000 A 
ATOM      7  C   UNL     1       1.150   2.721  18.350  0.00  0.00    +0.000 C 
ATOM      8  C   UNL     1       2.098   5.031  18.541  0.00  0.00    +0.000 A 
ATOM      9  C   UNL     1       3.125   5.939  18.287  0.00  0.00    +0.000 A 
ATOM     10  C   UNL     1       4.273   5.511  17.581  0.00  0.00    +0.000 A 
ATOM     11  C   UNL     1       5.379   6.345  17.283  0.00  0.00    +0.000 A 
ENDROOT
BRANCH   1  13
ATOM     12  C   UNL     1       7.705   7.732  17.402  0.00  0.00    +0.000 C 
ATOM     13  O   UNL     1       7.497   6.763  16.381  0.00  0.00    +0.000 OA
ENDBRANCH   1  13
BRANCH   9  14
ATOM     14  O   UNL     1       3.105   7.255  18.688  0.00  0.00    +0.000 OA
BRANCH  14  15
ATOM     15  C   UNL     1       2.292   8.153  17.935  0.00  0.00    +0.000 C 
BRANCH  15  16
ATOM     16  C   UNL     1       1.510   9.038  18.874  0.00  0.00    +0.000 A 
ATOM     17  C   UNL     1       0.890  10.202  18.408  0.00  0.00    +0.000 A 
ATOM     18  C   UNL     1       0.112  10.982  19.265  0.00  0.00    +0.000 A 
ATOM     19  C   UNL     1      -0.070  10.611  20.605  0.00  0.00    +0.000 A 
ATOM     20  C   UNL     1      -0.878  11.369  21.470  0.00  0.00    +0.000 A 
ATOM     21  C   UNL     1      -1.059  10.980  22.798  0.00  0.00    +0.000 A 
ATOM     22  C   UNL     1      -0.424   9.841  23.283  0.00  0.00    +0.000 A 
ATOM     23  C   UNL     1       0.386   9.081  22.437  0.00  0.00    +0.000 A 
ATOM     24  C   UNL     1       0.565   9.447  21.093  0.00  0.00    +0.000 A 
ATOM     25  C   UNL     1       1.352   8.677  20.222  0.00  0.00    +0.000 A 
ENDBRANCH  15  16
ENDBRANCH  14  15
ENDBRANCH   9  14
TORSDOF 4
ENDMDL
MODEL 2
REMARK VINA RESULT:      -8.9      1.473      3.531
REMARK  Name = 
REMARK  6 active torsions:
REMARK  status: ('A' for Active; 'I' for Inactive)
REMARK    1  A    between atoms: C_1  and  O_2
REMARK    2  A    between atoms: O_2  and  C_3
REMARK    3  A    between atoms: C_8  and  C_9
REMARK    4  A    between atoms: C_11  and  O_12
REMARK    5  A    between atoms: O_12  and  C_13
REMARK    6  A    between atoms: C_13  and  C_14
REMARK                            x       y       z     vdW  Elec       q    Type
REMARK                         _______ _______ _______ _____ _____    ______ ____
ROOT
ATOM      1  C   UNL     1       2.197   3.572  19.618  0.00  0.00    +0.000 A 
ATOM      2  C   UNL     1       2.698   2.437  18.994  0.00  0.00    +0.000 A 
ATOM      3  C   UNL     1       3.601   2.564  17.933  0.00  0.00    +0.000 A 
ATOM      4  C   UNL     1       4.021   3.800  17.473  0.00  0.00    +0.000 A 
ATOM      5  N   UNL     1       4.877   3.826  16.442  0.00  0.00    +0.000 NA
ATOM      6  C   UNL     1       5.290   5.022  15.973  0.00  0.00    +0.000 A 
ATOM      7  C   UNL     1       6.235   5.006  14.809  0.00  0.00    +0.000 C 
ATOM      8  C   UNL     1       4.873   6.226  16.520  0.00  0.00    +0.000 A 
ATOM      9  C   UNL     1       3.986   6.205  17.596  0.00  0.00    +0.000 A 
ATOM     10  C   UNL     1       3.531   4.964  18.097  0.00  0.00    +0.000 A 
ATOM     11  C   UNL     1       2.620   4.828  19.175  0.00  0.00    +0.000 A 
ENDROOT
BRANCH   1  13
ATOM     12  C   UNL     1       1.490   2.589  21.659  0.00  0.00    +0.000 C 
ATOM     13  O   UNL     1       1.306   3.580  20.655  0.00  0.00    +0.000 OA
ENDBRANCH   1  13
BRANCH   9  14
ATOM     14  O   UNL     1       3.505   7.333  18.219  0.00  0.00    +0.000 OA
BRANCH  14  15
ATOM     15  C   UNL     1       2.482   8.063  17.546  0.00  0.00    +0.000 C 
BRANCH  15  16
ATOM     16  C   UNL     1       1.682   8.858  18.548  0.00  0.00    +0.000 A 
ATOM     17  C   UNL     1       0.871   9.920  18.134  0.00  0.00    +0.000 A 
ATOM     18  C   UNL     1       0.081  10.610  19.055  0.00  0.00    +0.000 A 
ATOM     19  C   UNL     1       0.079  10.248  20.411  0.00  0.00    +0.000 A 
ATOM     20  C   UNL     1      -0.736  10.912  21.342  0.00  0.00    +0.000 A 
ATOM     21  C   UNL     1      -0.736  10.533  22.686  0.00  0.00    +0.000 A 
ATOM     22  C   UNL     1       0.089   9.498  23.117  0.00  0.00    +0.000 A 
ATOM     23  C   UNL     1       0.908   8.833  22.203  0.00  0.00    +0.000 A 
ATOM     24  C   UNL     1       0.908   9.189  20.845  0.00  0.00    +0.000 A 
ATOM     25  C   UNL     1       1.703   8.510  19.908  0.00  0.00    +0.000 A 
ENDBRANCH  15  16
ENDBRANCH  14  15
ENDBRANCH   9  14
TORSDOF 4
ENDMDL
MODEL 3
REMARK VINA RESULT:      -8.7      0.616      1.502
REMARK  Name = 
REMARK  6 active torsions:
REMARK  status: ('A' for Active; 'I' for Inactive)
REMARK    1  A    between atoms: C_1  and  O_2
REMARK    2  A    between atoms: O_2  and  C_3
REMARK    3  A    between atoms: C_8  and  C_9
REMARK    4  A    between atoms: C_11  and  O_12
REMARK    5  A    between atoms: O_12  and  C_13
REMARK    6  A    between atoms: C_13  and  C_14
REMARK                            x       y       z     vdW  Elec       q    Type
REMARK                         _______ _______ _______ _____ _____    ______ ____
ROOT
ATOM      1  C   UNL     1       6.716   6.209  16.732  0.00  0.00    +0.000 A 
ATOM      2  C   UNL     1       6.745   4.873  16.352  0.00  0.00    +0.000 A 
ATOM      3  C   UNL     1       5.624   4.064  16.560  0.00  0.00    +0.000 A 
ATOM      4  C   UNL     1       4.466   4.551  17.141  0.00  0.00    +0.000 A 
ATOM      5  N   UNL     1       3.446   3.698  17.314  0.00  0.00    +0.000 NA
ATOM      6  C   UNL     1       2.313   4.153  17.889  0.00  0.00    +0.000 A 
ATOM      7  C   UNL     1       1.202   3.163  18.078  0.00  0.00    +0.000 C 
ATOM      8  C   UNL     1       2.156   5.468  18.299  0.00  0.00    +0.000 A 
ATOM      9  C   UNL     1       3.212   6.360  18.117  0.00  0.00    +0.000 A 
ATOM     10  C   UNL     1       4.413   5.904  17.527  0.00  0.00    +0.000 A 
ATOM     11  C   UNL     1       5.551   6.721  17.309  0.00  0.00    +0.000 A 
ENDROOT
BRANCH   1  13
ATOM     12  C   UNL     1       7.838   8.124  17.572  0.00  0.00    +0.000 C 
ATOM     13  O   UNL     1       7.746   7.097  16.591  0.00  0.00    +0.000 OA
ENDBRANCH   1  13
BRANCH   9  14
ATOM     14  O   UNL     1       3.171   7.686  18.482  0.00  0.00    +0.000 OA
BRANCH  14  15
ATOM     15  C   UNL     1       1.994   8.418  18.149  0.00  0.00    +0.000 C 
BRANCH  15  16
ATOM     16  C   UNL     1       1.290   8.850  19.411  0.00  0.00    +0.000 A 
ATOM     17  C   UNL     1       1.534   8.196  20.624  0.00  0.00    +0.000 A 
ATOM     18  C   UNL     1       0.931   8.641  21.802  0.00  0.00    +0.000 A 
ATOM     19  C   UNL     1       0.078   9.754  21.795  0.00  0.00    +0.000 A 
ATOM     20  C   UNL     1      -0.508  10.233  22.979  0.00  0.00    +0.000 A 
ATOM     21  C   UNL     1      -1.346  11.349  22.957  0.00  0.00    +0.000 A 
ATOM     22  C   UNL     1      -1.621  11.990  21.754  0.00  0.00    +0.000 A 
ATOM     23  C   UNL     1      -1.050  11.523  20.569  0.00  0.00    +0.000 A 
ATOM     24  C   UNL     1      -0.191  10.412  20.574  0.00  0.00    +0.000 A 
ATOM     25  C   UNL     1       0.416   9.948  19.396  0.00  0.00    +0.000 A 
ENDBRANCH  15  16
ENDBRANCH  14  15
ENDBRANCH   9  14
TORSDOF 4
ENDMDL
MODEL 4
REMARK VINA RESULT:      -8.5      1.523      3.820
REMARK  Name = 
REMARK  6 active torsions:
REMARK  status: ('A' for Active; 'I' for Inactive)
REMARK    1  A    between atoms: C_1  and  O_2
REMARK    2  A    between atoms: O_2  and  C_3
REMARK    3  A    between atoms: C_8  and  C_9
REMARK    4  A    between atoms: C_11  and  O_12
REMARK    5  A    between atoms: O_12  and  C_13
REMARK    6  A    between atoms: C_13  and  C_14
REMARK                            x       y       z     vdW  Elec       q    Type
REMARK                         _______ _______ _______ _____ _____    ______ ____
ROOT
ATOM      1  C   UNL     1       2.031   3.458  19.430  0.00  0.00    +0.000 A 
ATOM      2  C   UNL     1       2.456   2.368  18.681  0.00  0.00    +0.000 A 
ATOM      3  C   UNL     1       3.361   2.554  17.631  0.00  0.00    +0.000 A 
ATOM      4  C   UNL     1       3.857   3.804  17.303  0.00  0.00    +0.000 A 
ATOM      5  N   UNL     1       4.709   3.888  16.271  0.00  0.00    +0.000 NA
ATOM      6  C   UNL     1       5.194   5.100  15.930  0.00  0.00    +0.000 A 
ATOM      7  C   UNL     1       6.132   5.152  14.760  0.00  0.00    +0.000 C 
ATOM      8  C   UNL     1       4.855   6.261  16.608  0.00  0.00    +0.000 A 
ATOM      9  C   UNL     1       3.974   6.179  17.685  0.00  0.00    +0.000 A 
ATOM     10  C   UNL     1       3.444   4.921  18.054  0.00  0.00    +0.000 A 
ATOM     11  C   UNL     1       2.530   4.726  19.121  0.00  0.00    +0.000 A 
ENDROOT
BRANCH   1  13
ATOM     12  C   UNL     1       1.535   2.636  21.601  0.00  0.00    +0.000 C 
ATOM     13  O   UNL     1       1.146   3.409  20.471  0.00  0.00    +0.000 OA
ENDBRANCH   1  13
BRANCH   9  14
ATOM     14  O   UNL     1       3.567   7.260  18.432  0.00  0.00    +0.000 OA
BRANCH  14  15
ATOM     15  C   UNL     1       2.434   7.987  17.962  0.00  0.00    +0.000 C 
BRANCH  15  16
ATOM     16  C   UNL     1       1.663   8.539  19.135  0.00  0.00    +0.000 A 
ATOM     17  C   UNL     1       1.751   7.937  20.395  0.00  0.00    +0.000 A 
ATOM     18  C   UNL     1       1.089   8.490  21.492  0.00  0.00    +0.000 A 
ATOM     19  C   UNL     1       0.331   9.662  21.357  0.00  0.00    +0.000 A 
ATOM     20  C   UNL     1      -0.312  10.248  22.460  0.00  0.00    +0.000 A 
ATOM     21  C   UNL     1      -1.054  11.420  22.311  0.00  0.00    +0.000 A 
ATOM     22  C   UNL     1      -1.175  12.014  21.058  0.00  0.00    +0.000 A 
ATOM     23  C   UNL     1      -0.546  11.440  19.952  0.00  0.00    +0.000 A 
ATOM     24  C   UNL     1       0.219  10.270  20.086  0.00  0.00    +0.000 A 
ATOM     25  C   UNL     1       0.883   9.698  18.990  0.00  0.00    +0.000 A 
ENDBRANCH  15  16
ENDBRANCH  14  15
ENDBRANCH   9  14
TORSDOF 4
ENDMDL
MODEL 5
REMARK VINA RESULT:      -8.4      1.201      1.355
REMARK  Name = 
REMARK  6 active torsions:
REMARK  status: ('A' for Active; 'I' for Inactive)
REMARK    1  A    between atoms: C_1  and  O_2
REMARK    2  A    between atoms: O_2  and  C_3
REMARK    3  A    between atoms: C_8  and  C_9
REMARK    4  A    between atoms: C_11  and  O_12
REMARK    5  A    between atoms: O_12  and  C_13
REMARK    6  A    between atoms: C_13  and  C_14
REMARK                            x       y       z     vdW  Elec       q    Type
REMARK                         _______ _______ _______ _____ _____    ______ ____
ROOT
ATOM      1  C   UNL     1       5.362   5.183  16.229  0.00  0.00    +0.000 A 
ATOM      2  C   UNL     1       5.204   3.806  16.325  0.00  0.00    +0.000 A 
ATOM      3  C   UNL     1       4.303   3.270  17.250  0.00  0.00    +0.000 A 
ATOM      4  C   UNL     1       3.550   4.073  18.090  0.00  0.00    +0.000 A 
ATOM      5  N   UNL     1       2.722   3.470  18.955  0.00  0.00    +0.000 NA
ATOM      6  C   UNL     1       1.988   4.236  19.788  0.00  0.00    +0.000 A 
ATOM      7  C   UNL     1       1.086   3.522  20.751  0.00  0.00    +0.000 C 
ATOM      8  C   UNL     1       2.046   5.622  19.780  0.00  0.00    +0.000 A 
ATOM      9  C   UNL     1       2.901   6.254  18.878  0.00  0.00    +0.000 A 
ATOM     10  C   UNL     1       3.689   5.472  18.003  0.00  0.00    +0.000 A 
ATOM     11  C   UNL     1       4.601   6.010  17.060  0.00  0.00    +0.000 A 
ENDROOT
BRANCH   1  13
ATOM     12  C   UNL     1       6.923   5.011  14.450  0.00  0.00    +0.000 C 
ATOM     13  O   UNL     1       6.214   5.827  15.375  0.00  0.00    +0.000 OA
ENDBRANCH   1  13
BRANCH   9  14
ATOM     14  O   UNL     1       3.042   7.619  18.778  0.00  0.00    +0.000 OA
BRANCH  14  15
ATOM     15  C   UNL     1       2.044   8.325  18.044  0.00  0.00    +0.000 C 
BRANCH  15  16
ATOM     16  C   UNL     1       1.311   9.270  18.962  0.00  0.00    +0.000 A 
ATOM     17  C   UNL     1       0.862  10.512  18.499  0.00  0.00    +0.000 A 
ATOM     18  C   UNL     1       0.126  11.355  19.333  0.00  0.00    +0.000 A 
ATOM     19  C   UNL     1      -0.185  10.972  20.646  0.00  0.00    +0.000 A 
ATOM     20  C   UNL     1      -0.954  11.796  21.485  0.00  0.00    +0.000 A 
ATOM     21  C   UNL     1      -1.265  11.396  22.785  0.00  0.00    +0.000 A 
ATOM     22  C   UNL     1      -0.800  10.177  23.269  0.00  0.00    +0.000 A 
ATOM     23  C   UNL     1      -0.030   9.350  22.449  0.00  0.00    +0.000 A 
ATOM     24  C   UNL     1       0.277   9.728  21.132  0.00  0.00    +0.000 A 
ATOM     25  C   UNL     1       1.024   8.894  20.284  0.00  0.00    +0.000 A 
ENDBRANCH  15  16
ENDBRANCH  14  15
ENDBRANCH   9  14
TORSDOF 4
ENDMDL
MODEL 6
REMARK VINA RESULT:      -8.4      1.774      3.952
REMARK  Name = 
REMARK  6 active torsions:
REMARK  status: ('A' for Active; 'I' for Inactive)
REMARK    1  A    between atoms: C_1  and  O_2
REMARK    2  A    between atoms: O_2  and  C_3
REMARK    3  A    between atoms: C_8  and  C_9
REMARK    4  A    between atoms: C_11  and  O_12
REMARK    5  A    between atoms: O_12  and  C_13
REMARK    6  A    between atoms: C_13  and  C_14
REMARK                            x       y       z     vdW  Elec       q    Type
REMARK                         _______ _______ _______ _____ _____    ______ ____
ROOT
ATOM      1  C   UNL     1       2.602   3.193  19.717  0.00  0.00    +0.000 A 
ATOM      2  C   UNL     1       3.859   2.616  19.846  0.00  0.00    +0.000 A 
ATOM      3  C   UNL     1       4.986   3.281  19.355  0.00  0.00    +0.000 A 
ATOM      4  C   UNL     1       4.896   4.515  18.733  0.00  0.00    +0.000 A 
ATOM      5  N   UNL     1       6.029   5.072  18.280  0.00  0.00    +0.000 NA
ATOM      6  C   UNL     1       5.959   6.269  17.662  0.00  0.00    +0.000 A 
ATOM      7  C   UNL     1       7.246   6.850  17.157  0.00  0.00    +0.000 C 
ATOM      8  C   UNL     1       4.765   6.952  17.484  0.00  0.00    +0.000 A 
ATOM      9  C   UNL     1       3.585   6.380  17.957  0.00  0.00    +0.000 A 
ATOM     10  C   UNL     1       3.632   5.121  18.599  0.00  0.00    +0.000 A 
ATOM     11  C   UNL     1       2.494   4.444  19.103  0.00  0.00    +0.000 A 
ENDROOT
BRANCH   1  13
ATOM     12  C   UNL     1       1.142   2.753  21.536  0.00  0.00    +0.000 C 
ATOM     13  O   UNL     1       1.427   2.641  20.146  0.00  0.00    +0.000 OA
ENDBRANCH   1  13
BRANCH   9  14
ATOM     14  O   UNL     1       2.345   6.964  17.839  0.00  0.00    +0.000 OA
BRANCH  14  15
ATOM     15  C   UNL     1       2.271   8.377  18.013  0.00  0.00    +0.000 C 
BRANCH  15  16
ATOM     16  C   UNL     1       1.532   8.694  19.289  0.00  0.00    +0.000 A 
ATOM     17  C   UNL     1       1.657   7.868  20.411  0.00  0.00    +0.000 A 
ATOM     18  C   UNL     1       1.025   8.201  21.610  0.00  0.00    +0.000 A 
ATOM     19  C   UNL     1       0.259   9.371  21.716  0.00  0.00    +0.000 A 
ATOM     20  C   UNL     1      -0.355   9.735  22.926  0.00  0.00    +0.000 A 
ATOM     21  C   UNL     1      -1.105  10.909  23.019  0.00  0.00    +0.000 A 
ATOM     22  C   UNL     1      -1.263  11.724  21.903  0.00  0.00    +0.000 A 
ATOM     23  C   UNL     1      -0.663  11.373  20.692  0.00  0.00    +0.000 A 
ATOM     24  C   UNL     1       0.109  10.205  20.585  0.00  0.00    +0.000 A 
ATOM     25  C   UNL     1       0.744   9.853  19.384  0.00  0.00    +0.000 A 
ENDBRANCH  15  16
ENDBRANCH  14  15
ENDBRANCH   9  14
TORSDOF 4
ENDMDL
MODEL 7
REMARK VINA RESULT:      -8.3      2.648      6.414
REMARK  Name = 
REMARK  6 active torsions:
REMARK  status: ('A' for Active; 'I' for Inactive)
REMARK    1  A    between atoms: C_1  and  O_2
REMARK    2  A    between atoms: O_2  and  C_3
REMARK    3  A    between atoms: C_8  and  C_9
REMARK    4  A    between atoms: C_11  and  O_12
REMARK    5  A    between atoms: O_12  and  C_13
REMARK    6  A    between atoms: C_13  and  C_14
REMARK                            x       y       z     vdW  Elec       q    Type
REMARK                         _______ _______ _______ _____ _____    ______ ____
ROOT
ATOM      1  C   UNL     1       2.280   7.664  18.510  0.00  0.00    +0.000 A 
ATOM      2  C   UNL     1       1.966   7.916  19.840  0.00  0.00    +0.000 A 
ATOM      3  C   UNL     1       1.779   6.850  20.726  0.00  0.00    +0.000 A 
ATOM      4  C   UNL     1       1.895   5.531  20.322  0.00  0.00    +0.000 A 
ATOM      5  N   UNL     1       1.684   4.575  21.238  0.00  0.00    +0.000 NA
ATOM      6  C   UNL     1       1.783   3.284  20.860  0.00  0.00    +0.000 A 
ATOM      7  C   UNL     1       1.524   2.246  21.911  0.00  0.00    +0.000 C 
ATOM      8  C   UNL     1       2.103   2.904  19.565  0.00  0.00    +0.000 A 
ATOM      9  C   UNL     1       2.328   3.894  18.610  0.00  0.00    +0.000 A 
ATOM     10  C   UNL     1       2.219   5.254  18.980  0.00  0.00    +0.000 A 
ATOM     11  C   UNL     1       2.413   6.338  18.087  0.00  0.00    +0.000 A 
ENDROOT
BRANCH   1  13
ATOM     12  C   UNL     1       1.920   9.899  17.800  0.00  0.00    +0.000 C 
ATOM     13  O   UNL     1       2.477   8.614  17.547  0.00  0.00    +0.000 OA
ENDBRANCH   1  13
BRANCH   9  14
ATOM     14  O   UNL     1       2.653   3.638  17.298  0.00  0.00    +0.000 OA
BRANCH  14  15
ATOM     15  C   UNL     1       3.972   3.166  17.033  0.00  0.00    +0.000 C 
BRANCH  15  16
ATOM     16  C   UNL     1       4.935   4.327  17.023  0.00  0.00    +0.000 A 
ATOM     17  C   UNL     1       4.903   5.273  15.992  0.00  0.00    +0.000 A 
ATOM     18  C   UNL     1       5.750   6.382  16.022  0.00  0.00    +0.000 A 
ATOM     19  C   UNL     1       6.642   6.575  17.088  0.00  0.00    +0.000 A 
ATOM     20  C   UNL     1       7.476   7.704  17.147  0.00  0.00    +0.000 A 
ATOM     21  C   UNL     1       8.350   7.887  18.220  0.00  0.00    +0.000 A 
ATOM     22  C   UNL     1       8.413   6.940  19.237  0.00  0.00    +0.000 A 
ATOM     23  C   UNL     1       7.594   5.811  19.189  0.00  0.00    +0.000 A 
ATOM     24  C   UNL     1       6.696   5.618  18.126  0.00  0.00    +0.000 A 
ATOM     25  C   UNL     1       5.844   4.503  18.078  0.00  0.00    +0.000 A 
ENDBRANCH  15  16
ENDBRANCH  14  15
ENDBRANCH   9  14
TORSDOF 4
ENDMDL
MODEL 8
REMARK VINA RESULT:      -8.3      2.733      4.997
REMARK  Name = 
REMARK  6 active torsions:
REMARK  status: ('A' for Active; 'I' for Inactive)
REMARK    1  A    between atoms: C_1  and  O_2
REMARK    2  A    between atoms: O_2  and  C_3
REMARK    3  A    between atoms: C_8  and  C_9
REMARK    4  A    between atoms: C_11  and  O_12
REMARK    5  A    between atoms: O_12  and  C_13
REMARK    6  A    between atoms: C_13  and  C_14
REMARK                            x       y       z     vdW  Elec       q    Type
REMARK                         _______ _______ _______ _____ _____    ______ ____
ROOT
ATOM      1  C   UNL     1       5.797   3.481  12.702  0.00  0.00    +0.000 A 
ATOM      2  C   UNL     1       6.990   4.150  12.454  0.00  0.00    +0.000 A 
ATOM      3  C   UNL     1       7.564   4.944  13.452  0.00  0.00    +0.000 A 
ATOM      4  C   UNL     1       6.980   5.093  14.698  0.00  0.00    +0.000 A 
ATOM      5  N   UNL     1       7.595   5.887  15.587  0.00  0.00    +0.000 NA
ATOM      6  C   UNL     1       7.034   6.052  16.803  0.00  0.00    +0.000 A 
ATOM      7  C   UNL     1       7.746   6.960  17.762  0.00  0.00    +0.000 C 
ATOM      8  C   UNL     1       5.853   5.428  17.175  0.00  0.00    +0.000 A 
ATOM      9  C   UNL     1       5.212   4.598  16.256  0.00  0.00    +0.000 A 
ATOM     10  C   UNL     1       5.774   4.418  14.972  0.00  0.00    +0.000 A 
ATOM     11  C   UNL     1       5.199   3.611  13.959  0.00  0.00    +0.000 A 
ENDROOT
BRANCH   1  13
ATOM     12  C   UNL     1       4.013   3.266  11.153  0.00  0.00    +0.000 C 
ATOM     13  O   UNL     1       5.133   2.686  11.810  0.00  0.00    +0.000 OA
ENDBRANCH   1  13
BRANCH   9  14
ATOM     14  O   UNL     1       4.039   3.927  16.513  0.00  0.00    +0.000 OA
BRANCH  14  15
ATOM     15  C   UNL     1       3.808   3.507  17.856  0.00  0.00    +0.000 C 
BRANCH  15  16
ATOM     16  C   UNL     1       3.110   4.605  18.619  0.00  0.00    +0.000 A 
ATOM     17  C   UNL     1       2.752   4.428  19.960  0.00  0.00    +0.000 A 
ATOM     18  C   UNL     1       2.167   5.469  20.681  0.00  0.00    +0.000 A 
ATOM     19  C   UNL     1       1.933   6.715  20.080  0.00  0.00    +0.000 A 
ATOM     20  C   UNL     1       1.376   7.782  20.803  0.00  0.00    +0.000 A 
ATOM     21  C   UNL     1       1.159   9.019  20.194  0.00  0.00    +0.000 A 
ATOM     22  C   UNL     1       1.482   9.201  18.853  0.00  0.00    +0.000 A 
ATOM     23  C   UNL     1       2.032   8.148  18.120  0.00  0.00    +0.000 A 
ATOM     24  C   UNL     1       2.272   6.902  18.721  0.00  0.00    +0.000 A 
ATOM     25  C   UNL     1       2.853   5.842  18.006  0.00  0.00    +0.000 A 
ENDBRANCH  15  16
ENDBRANCH  14  15
ENDBRANCH   9  14
TORSDOF 4
ENDMDL
MODEL 9
REMARK VINA RESULT:      -8.2      5.475      9.343
REMARK  Name = 
REMARK  6 active torsions:
REMARK  status: ('A' for Active; 'I' for Inactive)
REMARK    1  A    between atoms: C_1  and  O_2
REMARK    2  A    between atoms: O_2  and  C_3
REMARK    3  A    between atoms: C_8  and  C_9
REMARK    4  A    between atoms: C_11  and  O_12
REMARK    5  A    between atoms: O_12  and  C_13
REMARK    6  A    between atoms: C_13  and  C_14
REMARK                            x       y       z     vdW  Elec       q    Type
REMARK                         _______ _______ _______ _____ _____    ______ ____
ROOT
ATOM      1  C   UNL     1       8.700  11.838  22.366  0.00  0.00    +0.000 A 
ATOM      2  C   UNL     1       9.262  13.109  22.373  0.00  0.00    +0.000 A 
ATOM      3  C   UNL     1       9.928  13.583  21.238  0.00  0.00    +0.000 A 
ATOM      4  C   UNL     1      10.051  12.822  20.089  0.00  0.00    +0.000 A 
ATOM      5  N   UNL     1      10.719  13.353  19.055  0.00  0.00    +0.000 NA
ATOM      6  C   UNL     1      10.858  12.622  17.930  0.00  0.00    +0.000 A 
ATOM      7  C   UNL     1      11.625  13.247  16.802  0.00  0.00    +0.000 C 
ATOM      8  C   UNL     1      10.331  11.346  17.795  0.00  0.00    +0.000 A 
ATOM      9  C   UNL     1       9.631  10.790  18.865  0.00  0.00    +0.000 A 
ATOM     10  C   UNL     1       9.482  11.534  20.059  0.00  0.00    +0.000 A 
ATOM     11  C   UNL     1       8.805  11.060  21.210  0.00  0.00    +0.000 A 
ENDROOT
BRANCH   1  13
ATOM     12  C   UNL     1       6.900  11.958  23.907  0.00  0.00    +0.000 C 
ATOM     13  O   UNL     1       8.035  11.259  23.411  0.00  0.00    +0.000 OA
ENDBRANCH   1  13
BRANCH   9  14
ATOM     14  O   UNL     1       9.065   9.537  18.847  0.00  0.00    +0.000 OA
BRANCH  14  15
ATOM     15  C   UNL     1       8.307   9.181  17.692  0.00  0.00    +0.000 C 
BRANCH  15  16
ATOM     16  C   UNL     1       7.653   7.839  17.909  0.00  0.00    +0.000 A 
ATOM     17  C   UNL     1       8.194   6.917  18.812  0.00  0.00    +0.000 A 
ATOM     18  C   UNL     1       7.549   5.705  19.058  0.00  0.00    +0.000 A 
ATOM     19  C   UNL     1       6.343   5.389  18.414  0.00  0.00    +0.000 A 
ATOM     20  C   UNL     1       5.666   4.188  18.679  0.00  0.00    +0.000 A 
ATOM     21  C   UNL     1       4.462   3.893  18.038  0.00  0.00    +0.000 A 
ATOM     22  C   UNL     1       3.927   4.788  17.116  0.00  0.00    +0.000 A 
ATOM     23  C   UNL     1       4.592   5.983  16.839  0.00  0.00    +0.000 A 
ATOM     24  C   UNL     1       5.795   6.304  17.487  0.00  0.00    +0.000 A 
ATOM     25  C   UNL     1       6.460   7.516  17.242  0.00  0.00    +0.000 A 
ENDBRANCH  15  16
ENDBRANCH  14  15
ENDBRANCH   9  14
TORSDOF 4
ENDMDL
