MODEL 1
REMARK VINA RESULT:      -6.4      0.000      0.000
REMARK  Name = 
REMARK  5 active torsions:
REMARK  status: ('A' for Active; 'I' for Inactive)
REMARK    1  A    between atoms: C_1  and  O_2
REMARK    2  A    between atoms: O_2  and  C_3
REMARK    3  A    between atoms: N_12  and  N_13
REMARK    4  A    between atoms: N_13  and  C_14
REMARK    5  A    between atoms: C_14  and  N_15
REMARK                            x       y       z     vdW  Elec       q    Type
REMARK                         _______ _______ _______ _____ _____    ______ ____
ROOT
ATOM      1  C   UNL     1       2.117   3.687  19.398  0.00  0.00    +0.000 A 
ATOM      2  C   UNL     1       3.000   2.752  18.827  0.00  0.00    +0.000 A 
ATOM      3  C   UNL     1       4.016   3.166  17.964  0.00  0.00    +0.000 A 
ATOM      4  C   UNL     1       4.119   4.517  17.698  0.00  0.00    +0.000 A 
ATOM      5  C   UNL     1       3.266   5.462  18.252  0.00  0.00    +0.000 A 
ATOM      6  C   UNL     1       2.254   5.054  19.109  0.00  0.00    +0.000 A 
ATOM      7  C   UNL     1       3.566   6.846  17.773  0.00  0.00    +0.000 C 
ATOM      8  C   UNL     1       4.856   6.689  16.946  0.00  0.00    +0.000 C 
ATOM      9  C   UNL     1       5.077   5.198  16.845  0.00  0.00    +0.000 C 
ATOM     10  N   UNL     1       5.963   4.553  16.152  0.00  0.00    +0.000 NA
ENDROOT
BRANCH   1  12
ATOM     11  C   UNL     1       1.453   2.852  21.517  0.00  0.00    +0.000 C 
ATOM     12  O   UNL     1       1.086   3.375  20.245  0.00  0.00    +0.000 OA
ENDBRANCH   1  12
BRANCH  10  13
ATOM     13  N   UNL     1       6.824   5.284  15.390  0.00  0.00    +0.000 N 
ATOM     14  H   UNL     1       7.295   6.101  15.769  0.00  0.00    +0.000 HD
BRANCH  13  15
ATOM     15  C   UNL     1       7.076   4.948  14.089  0.00  0.00    +0.000 C 
ATOM     16  S   UNL     1       6.205   3.787  13.288  0.00  0.00    +0.000 S 
BRANCH  15  17
ATOM     17  N   UNL     1       8.084   5.626  13.492  0.00  0.00    +0.000 N 
ATOM     18  H   UNL     1       8.194   6.601  13.743  0.00  0.00    +0.000 HD
ATOM     19  H   UNL     1       8.714   5.181  12.842  0.00  0.00    +0.000 HD
ENDBRANCH  15  17
ENDBRANCH  13  15
ENDBRANCH  10  13
TORSDOF 4
ENDMDL
MODEL 2
REMARK VINA RESULT:      -6.3      3.022      3.725
REMARK  Name = 
REMARK  5 active torsions:
REMARK  status: ('A' for Active; 'I' for Inactive)
REMARK    1  A    between atoms: C_1  and  O_2
REMARK    2  A    between atoms: O_2  and  C_3
REMARK    3  A    between atoms: N_12  and  N_13
REMARK    4  A    between atoms: N_13  and  C_14
REMARK    5  A    between atoms: C_14  and  N_15
REMARK                            x       y       z     vdW  Elec       q    Type
REMARK                         _______ _______ _______ _____ _____    ______ ____
ROOT
ATOM      1  C   UNL     1       2.291   3.994  17.598  0.00  0.00    +0.000 A 
ATOM      2  C   UNL     1       2.287   5.322  18.062  0.00  0.00    +0.000 A 
ATOM      3  C   UNL     1       3.415   6.132  17.915  0.00  0.00    +0.000 A 
ATOM      4  C   UNL     1       4.522   5.582  17.299  0.00  0.00    +0.000 A 
ATOM      5  C   UNL     1       4.551   4.277  16.826  0.00  0.00    +0.000 A 
ATOM      6  C   UNL     1       3.432   3.469  16.973  0.00  0.00    +0.000 A 
ATOM      7  C   UNL     1       5.878   3.916  16.241  0.00  0.00    +0.000 C 
ATOM      8  C   UNL     1       6.666   5.239  16.247  0.00  0.00    +0.000 C 
ATOM      9  C   UNL     1       5.805   6.204  17.026  0.00  0.00    +0.000 C 
ATOM     10  N   UNL     1       6.081   7.411  17.411  0.00  0.00    +0.000 NA
ENDROOT
BRANCH   1  12
ATOM     11  C   UNL     1       1.181   2.353  18.904  0.00  0.00    +0.000 C 
ATOM     12  O   UNL     1       1.238   3.123  17.708  0.00  0.00    +0.000 OA
ENDBRANCH   1  12
BRANCH  10  13
ATOM     13  N   UNL     1       7.310   7.910  17.097  0.00  0.00    +0.000 N 
ATOM     14  H   UNL     1       7.626   7.956  16.133  0.00  0.00    +0.000 HD
BRANCH  13  15
ATOM     15  C   UNL     1       8.160   8.356  18.070  0.00  0.00    +0.000 C 
ATOM     16  S   UNL     1       8.694   9.925  18.131  0.00  0.00    +0.000 S 
BRANCH  15  17
ATOM     17  N   UNL     1       8.540   7.435  18.985  0.00  0.00    +0.000 N 
ATOM     18  H   UNL     1       8.241   6.480  18.829  0.00  0.00    +0.000 HD
ATOM     19  H   UNL     1       9.114   7.677  19.778  0.00  0.00    +0.000 HD
ENDBRANCH  15  17
ENDBRANCH  13  15
ENDBRANCH  10  13
TORSDOF 4
ENDMDL
MODEL 3
REMARK VINA RESULT:      -6.3      1.075      1.247
REMARK  Name = 
REMARK  5 active torsions:
REMARK  status: ('A' for Active; 'I' for Inactive)
REMARK    1  A    between atoms: C_1  and  O_2
REMARK    2  A    between atoms: O_2  and  C_3
REMARK    3  A    between atoms: N_12  and  N_13
REMARK    4  A    between atoms: N_13  and  C_14
REMARK    5  A    between atoms: C_14  and  N_15
REMARK                            x       y       z     vdW  Elec       q    Type
REMARK                         _______ _______ _______ _____ _____    ______ ____
ROOT
ATOM      1  C   UNL     1       1.980   3.676  19.395  0.00  0.00    +0.000 A 
ATOM      2  C   UNL     1       1.859   3.506  18.004  0.00  0.00    +0.000 A 
ATOM      3  C   UNL     1       2.896   3.879  17.148  0.00  0.00    +0.000 A 
ATOM      4  C   UNL     1       4.036   4.412  17.717  0.00  0.00    +0.000 A 
ATOM      5  C   UNL     1       4.185   4.585  19.086  0.00  0.00    +0.000 A 
ATOM      6  C   UNL     1       3.155   4.218  19.940  0.00  0.00    +0.000 A 
ATOM      7  C   UNL     1       5.492   5.219  19.438  0.00  0.00    +0.000 C 
ATOM      8  C   UNL     1       6.254   5.283  18.101  0.00  0.00    +0.000 C 
ATOM      9  C   UNL     1       5.244   4.874  17.055  0.00  0.00    +0.000 C 
ATOM     10  N   UNL     1       5.362   4.882  15.764  0.00  0.00    +0.000 NA
ENDROOT
BRANCH   1  12
ATOM     11  C   UNL     1       1.475   2.854  21.563  0.00  0.00    +0.000 C 
ATOM     12  O   UNL     1       1.014   3.351  20.311  0.00  0.00    +0.000 OA
ENDBRANCH   1  12
BRANCH  10  13
ATOM     13  N   UNL     1       6.539   5.324  15.239  0.00  0.00    +0.000 N 
ATOM     14  H   UNL     1       7.136   5.964  15.756  0.00  0.00    +0.000 HD
BRANCH  13  15
ATOM     15  C   UNL     1       6.953   4.928  13.998  0.00  0.00    +0.000 C 
ATOM     16  S   UNL     1       6.183   3.730  13.147  0.00  0.00    +0.000 S 
BRANCH  15  17
ATOM     17  N   UNL     1       8.032   5.578  13.504  0.00  0.00    +0.000 N 
ATOM     18  H   UNL     1       8.940   5.282  13.839  0.00  0.00    +0.000 HD
ATOM     19  H   UNL     1       7.944   6.310  12.816  0.00  0.00    +0.000 HD
ENDBRANCH  15  17
ENDBRANCH  13  15
ENDBRANCH  10  13
TORSDOF 4
ENDMDL
MODEL 4
REMARK VINA RESULT:      -6.2      4.332      6.172
REMARK  Name = 
REMARK  5 active torsions:
REMARK  status: ('A' for Active; 'I' for Inactive)
REMARK    1  A    between atoms: C_1  and  O_2
REMARK    2  A    between atoms: O_2  and  C_3
REMARK    3  A    between atoms: N_12  and  N_13
REMARK    4  A    between atoms: N_13  and  C_14
REMARK    5  A    between atoms: C_14  and  N_15
REMARK                            x       y       z     vdW  Elec       q    Type
REMARK                         _______ _______ _______ _____ _____    ______ ____
ROOT
ATOM      1  C   UNL     1       7.409   7.057  17.588  0.00  0.00    +0.000 A 
ATOM      2  C   UNL     1       7.597   6.437  18.837  0.00  0.00    +0.000 A 
ATOM      3  C   UNL     1       6.814   5.344  19.215  0.00  0.00    +0.000 A 
ATOM      4  C   UNL     1       5.859   4.901  18.321  0.00  0.00    +0.000 A 
ATOM      5  C   UNL     1       5.657   5.490  17.081  0.00  0.00    +0.000 A 
ATOM      6  C   UNL     1       6.432   6.577  16.702  0.00  0.00    +0.000 A 
ATOM      7  C   UNL     1       4.538   4.848  16.325  0.00  0.00    +0.000 C 
ATOM      8  C   UNL     1       4.146   3.634  17.189  0.00  0.00    +0.000 C 
ATOM      9  C   UNL     1       4.927   3.797  18.471  0.00  0.00    +0.000 C 
ATOM     10  N   UNL     1       4.854   3.100  19.561  0.00  0.00    +0.000 NA
ENDROOT
BRANCH   1  12
ATOM     11  C   UNL     1       8.276   9.217  18.052  0.00  0.00    +0.000 C 
ATOM     12  O   UNL     1       8.120   8.138  17.136  0.00  0.00    +0.000 OA
ENDBRANCH   1  12
BRANCH  10  13
ATOM     13  N   UNL     1       3.954   2.077  19.599  0.00  0.00    +0.000 N 
ATOM     14  H   UNL     1       4.230   1.128  19.366  0.00  0.00    +0.000 HD
BRANCH  13  15
ATOM     15  C   UNL     1       2.650   2.297  19.943  0.00  0.00    +0.000 C 
ATOM     16  S   UNL     1       2.221   3.130  21.311  0.00  0.00    +0.000 S 
BRANCH  15  17
ATOM     17  N   UNL     1       1.725   1.793  19.093  0.00  0.00    +0.000 N 
ATOM     18  H   UNL     1       0.755   1.870  19.370  0.00  0.00    +0.000 HD
ATOM     19  H   UNL     1       1.983   1.378  18.211  0.00  0.00    +0.000 HD
ENDBRANCH  15  17
ENDBRANCH  13  15
ENDBRANCH  10  13
TORSDOF 4
ENDMDL
MODEL 5
REMARK VINA RESULT:      -6.2      4.177      6.059
REMARK  Name = 
REMARK  5 active torsions:
REMARK  status: ('A' for Active; 'I' for Inactive)
REMARK    1  A    between atoms: C_1  and  O_2
REMARK    2  A    between atoms: O_2  and  C_3
REMARK    3  A    between atoms: N_12  and  N_13
REMARK    4  A    between atoms: N_13  and  C_14
REMARK    5  A    between atoms: C_14  and  N_15
REMARK                            x       y       z     vdW  Elec       q    Type
REMARK                         _______ _______ _______ _____ _____    ______ ____
ROOT
ATOM      1  C   UNL     1       6.873   6.495  17.211  0.00  0.00    +0.000 A 
ATOM      2  C   UNL     1       7.076   5.133  17.503  0.00  0.00    +0.000 A 
ATOM      3  C   UNL     1       6.003   4.314  17.859  0.00  0.00    +0.000 A 
ATOM      4  C   UNL     1       4.748   4.888  17.911  0.00  0.00    +0.000 A 
ATOM      5  C   UNL     1       4.519   6.226  17.622  0.00  0.00    +0.000 A 
ATOM      6  C   UNL     1       5.583   7.044  17.270  0.00  0.00    +0.000 A 
ATOM      7  C   UNL     1       3.083   6.604  17.792  0.00  0.00    +0.000 C 
ATOM      8  C   UNL     1       2.371   5.267  18.074  0.00  0.00    +0.000 C 
ATOM      9  C   UNL     1       3.483   4.261  18.251  0.00  0.00    +0.000 C 
ATOM     10  N   UNL     1       3.405   3.021  18.620  0.00  0.00    +0.000 NA
ENDROOT
BRANCH   1  12
ATOM     11  C   UNL     1       7.988   8.536  17.682  0.00  0.00    +0.000 C 
ATOM     12  O   UNL     1       7.863   7.377  16.864  0.00  0.00    +0.000 OA
ENDBRANCH   1  12
BRANCH  10  13
ATOM     13  N   UNL     1       2.170   2.522  18.907  0.00  0.00    +0.000 N 
ATOM     14  H   UNL     1       1.658   1.968  18.227  0.00  0.00    +0.000 HD
BRANCH  13  15
ATOM     15  C   UNL     1       1.577   2.759  20.115  0.00  0.00    +0.000 C 
ATOM     16  S   UNL     1       2.416   2.696  21.544  0.00  0.00    +0.000 S 
BRANCH  15  17
ATOM     17  N   UNL     1       0.256   3.050  20.073  0.00  0.00    +0.000 N 
ATOM     18  H   UNL     1      -0.092   3.706  20.761  0.00  0.00    +0.000 HD
ATOM     19  H   UNL     1      -0.356   2.653  19.377  0.00  0.00    +0.000 HD
ENDBRANCH  15  17
ENDBRANCH  13  15
ENDBRANCH  10  13
TORSDOF 4
ENDMDL
MODEL 6
REMARK VINA RESULT:      -6.2      4.257      6.286
REMARK  Name = 
REMARK  5 active torsions:
REMARK  status: ('A' for Active; 'I' for Inactive)
REMARK    1  A    between atoms: C_1  and  O_2
REMARK    2  A    between atoms: O_2  and  C_3
REMARK    3  A    between atoms: N_12  and  N_13
REMARK    4  A    between atoms: N_13  and  C_14
REMARK    5  A    between atoms: C_14  and  N_15
REMARK                            x       y       z     vdW  Elec       q    Type
REMARK                         _______ _______ _______ _____ _____    ______ ____
ROOT
ATOM      1  C   UNL     1       6.890   5.108  15.246  0.00  0.00    +0.000 A 
ATOM      2  C   UNL     1       5.669   4.568  14.805  0.00  0.00    +0.000 A 
ATOM      3  C   UNL     1       4.623   4.345  15.702  0.00  0.00    +0.000 A 
ATOM      4  C   UNL     1       4.834   4.677  17.026  0.00  0.00    +0.000 A 
ATOM      5  C   UNL     1       6.026   5.218  17.487  0.00  0.00    +0.000 A 
ATOM      6  C   UNL     1       7.069   5.438  16.598  0.00  0.00    +0.000 A 
ATOM      7  C   UNL     1       6.011   5.448  18.964  0.00  0.00    +0.000 C 
ATOM      8  C   UNL     1       4.562   5.133  19.380  0.00  0.00    +0.000 C 
ATOM      9  C   UNL     1       3.918   4.547  18.146  0.00  0.00    +0.000 C 
ATOM     10  N   UNL     1       2.743   4.015  18.017  0.00  0.00    +0.000 NA
ENDROOT
BRANCH   1  12
ATOM     11  C   UNL     1       7.792   5.116  13.050  0.00  0.00    +0.000 C 
ATOM     12  O   UNL     1       7.975   5.351  14.443  0.00  0.00    +0.000 OA
ENDBRANCH   1  12
BRANCH  10  13
ATOM     13  N   UNL     1       1.954   3.948  19.126  0.00  0.00    +0.000 N 
ATOM     14  H   UNL     1       1.495   4.777  19.493  0.00  0.00    +0.000 HD
BRANCH  13  15
ATOM     15  C   UNL     1       1.760   2.766  19.784  0.00  0.00    +0.000 C 
ATOM     16  S   UNL     1       1.605   2.683  21.433  0.00  0.00    +0.000 S 
BRANCH  15  17
ATOM     17  N   UNL     1       1.699   1.662  19.003  0.00  0.00    +0.000 N 
ATOM     18  H   UNL     1       2.553   1.381  18.537  0.00  0.00    +0.000 HD
ATOM     19  H   UNL     1       0.851   1.127  18.903  0.00  0.00    +0.000 HD
ENDBRANCH  15  17
ENDBRANCH  13  15
ENDBRANCH  10  13
TORSDOF 4
ENDMDL
MODEL 7
REMARK VINA RESULT:      -6.1      4.219      6.269
REMARK  Name = 
REMARK  5 active torsions:
REMARK  status: ('A' for Active; 'I' for Inactive)
REMARK    1  A    between atoms: C_1  and  O_2
REMARK    2  A    between atoms: O_2  and  C_3
REMARK    3  A    between atoms: N_12  and  N_13
REMARK    4  A    between atoms: N_13  and  C_14
REMARK    5  A    between atoms: C_14  and  N_15
REMARK                            x       y       z     vdW  Elec       q    Type
REMARK                         _______ _______ _______ _____ _____    ______ ____
ROOT
ATOM      1  C   UNL     1       6.556   5.138  15.307  0.00  0.00    +0.000 A 
ATOM      2  C   UNL     1       6.011   3.873  15.591  0.00  0.00    +0.000 A 
ATOM      3  C   UNL     1       4.904   3.746  16.433  0.00  0.00    +0.000 A 
ATOM      4  C   UNL     1       4.370   4.902  16.967  0.00  0.00    +0.000 A 
ATOM      5  C   UNL     1       4.883   6.164  16.698  0.00  0.00    +0.000 A 
ATOM      6  C   UNL     1       5.985   6.293  15.864  0.00  0.00    +0.000 A 
ATOM      7  C   UNL     1       4.151   7.242  17.430  0.00  0.00    +0.000 C 
ATOM      8  C   UNL     1       2.967   6.511  18.092  0.00  0.00    +0.000 C 
ATOM      9  C   UNL     1       3.233   5.043  17.859  0.00  0.00    +0.000 C 
ATOM     10  N   UNL     1       2.590   4.017  18.323  0.00  0.00    +0.000 NA
ENDROOT
BRANCH   1  12
ATOM     11  C   UNL     1       7.536   4.909  13.158  0.00  0.00    +0.000 C 
ATOM     12  O   UNL     1       7.644   5.360  14.504  0.00  0.00    +0.000 OA
ENDBRANCH   1  12
BRANCH  10  13
ATOM     13  N   UNL     1       1.530   4.254  19.146  0.00  0.00    +0.000 N 
ATOM     14  H   UNL     1       0.926   5.057  19.003  0.00  0.00    +0.000 HD
BRANCH  13  15
ATOM     15  C   UNL     1       1.250   3.423  20.194  0.00  0.00    +0.000 C 
ATOM     16  S   UNL     1       2.143   3.426  21.592  0.00  0.00    +0.000 S 
BRANCH  15  17
ATOM     17  N   UNL     1       0.194   2.595  20.021  0.00  0.00    +0.000 N 
ATOM     18  H   UNL     1       0.252   1.679  20.449  0.00  0.00    +0.000 HD
ATOM     19  H   UNL     1      -0.628   2.880  19.510  0.00  0.00    +0.000 HD
ENDBRANCH  15  17
ENDBRANCH  13  15
ENDBRANCH  10  13
TORSDOF 4
ENDMDL
MODEL 8
REMARK VINA RESULT:      -6.0      4.254      6.236
REMARK  Name = 
REMARK  5 active torsions:
REMARK  status: ('A' for Active; 'I' for Inactive)
REMARK    1  A    between atoms: C_1  and  O_2
REMARK    2  A    between atoms: O_2  and  C_3
REMARK    3  A    between atoms: N_12  and  N_13
REMARK    4  A    between atoms: N_13  and  C_14
REMARK    5  A    between atoms: C_14  and  N_15
REMARK                            x       y       z     vdW  Elec       q    Type
REMARK                         _______ _______ _______ _____ _____    ______ ____
ROOT
ATOM      1  C   UNL     1       6.719   5.513  16.132  0.00  0.00    +0.000 A 
ATOM      2  C   UNL     1       6.870   4.479  17.073  0.00  0.00    +0.000 A 
ATOM      3  C   UNL     1       5.952   4.323  18.114  0.00  0.00    +0.000 A 
ATOM      4  C   UNL     1       4.899   5.214  18.178  0.00  0.00    +0.000 A 
ATOM      5  C   UNL     1       4.722   6.239  17.258  0.00  0.00    +0.000 A 
ATOM      6  C   UNL     1       5.634   6.398  16.224  0.00  0.00    +0.000 A 
ATOM      7  C   UNL     1       3.531   7.085  17.575  0.00  0.00    +0.000 C 
ATOM      8  C   UNL     1       2.853   6.357  18.751  0.00  0.00    +0.000 C 
ATOM      9  C   UNL     1       3.821   5.268  19.149  0.00  0.00    +0.000 C 
ATOM     10  N   UNL     1       3.764   4.460  20.161  0.00  0.00    +0.000 NA
ENDROOT
BRANCH   1  12
ATOM     11  C   UNL     1       7.356   4.979  13.909  0.00  0.00    +0.000 C 
ATOM     12  O   UNL     1       7.572   5.751  15.086  0.00  0.00    +0.000 OA
ENDBRANCH   1  12
BRANCH  10  13
ATOM     13  N   UNL     1       2.706   4.584  21.011  0.00  0.00    +0.000 N 
ATOM     14  H   UNL     1       2.594   5.411  21.590  0.00  0.00    +0.000 HD
BRANCH  13  15
ATOM     15  C   UNL     1       1.766   3.597  21.118  0.00  0.00    +0.000 C 
ATOM     16  S   UNL     1       0.690   3.259  19.902  0.00  0.00    +0.000 S 
BRANCH  15  17
ATOM     17  N   UNL     1       1.769   2.908  22.283  0.00  0.00    +0.000 N 
ATOM     18  H   UNL     1       2.600   2.371  22.497  0.00  0.00    +0.000 HD
ATOM     19  H   UNL     1       0.991   2.941  22.923  0.00  0.00    +0.000 HD
ENDBRANCH  15  17
ENDBRANCH  13  15
ENDBRANCH  10  13
TORSDOF 4
ENDMDL
MODEL 9
REMARK VINA RESULT:      -6.0      4.208      6.133
REMARK  Name = 
REMARK  5 active torsions:
REMARK  status: ('A' for Active; 'I' for Inactive)
REMARK    1  A    between atoms: C_1  and  O_2
REMARK    2  A    between atoms: O_2  and  C_3
REMARK    3  A    between atoms: N_12  and  N_13
REMARK    4  A    between atoms: N_13  and  C_14
REMARK    5  A    between atoms: C_14  and  N_15
REMARK                            x       y       z     vdW  Elec       q    Type
REMARK                         _______ _______ _______ _____ _____    ______ ____
ROOT
ATOM      1  C   UNL     1       7.702   7.535  17.886  0.00  0.00    +0.000 A 
ATOM      2  C   UNL     1       8.001   6.677  18.960  0.00  0.00    +0.000 A 
ATOM      3  C   UNL     1       7.222   5.544  19.205  0.00  0.00    +0.000 A 
ATOM      4  C   UNL     1       6.160   5.302  18.356  0.00  0.00    +0.000 A 
ATOM      5  C   UNL     1       5.847   6.128  17.285  0.00  0.00    +0.000 A 
ATOM      6  C   UNL     1       6.617   7.256  17.041  0.00  0.00    +0.000 A 
ATOM      7  C   UNL     1       4.629   5.667  16.551  0.00  0.00    +0.000 C 
ATOM      8  C   UNL     1       4.286   4.313  17.201  0.00  0.00    +0.000 C 
ATOM      9  C   UNL     1       5.208   4.206  18.392  0.00  0.00    +0.000 C 
ATOM     10  N   UNL     1       5.227   3.307  19.327  0.00  0.00    +0.000 NA
ENDROOT
BRANCH   1  12
ATOM     11  C   UNL     1       8.750   9.515  18.669  0.00  0.00    +0.000 C 
ATOM     12  O   UNL     1       8.401   8.673  17.576  0.00  0.00    +0.000 OA
ENDBRANCH   1  12
BRANCH  10  13
ATOM     13  N   UNL     1       4.297   2.313  19.267  0.00  0.00    +0.000 N 
ATOM     14  H   UNL     1       4.488   1.447  18.770  0.00  0.00    +0.000 HD
BRANCH  13  15
ATOM     15  C   UNL     1       3.076   2.450  19.865  0.00  0.00    +0.000 C 
ATOM     16  S   UNL     1       1.654   2.259  19.034  0.00  0.00    +0.000 S 
BRANCH  15  17
ATOM     17  N   UNL     1       3.100   2.750  21.185  0.00  0.00    +0.000 N 
ATOM     18  H   UNL     1       3.861   2.366  21.730  0.00  0.00    +0.000 HD
ATOM     19  H   UNL     1       2.406   3.347  21.608  0.00  0.00    +0.000 HD
ENDBRANCH  15  17
ENDBRANCH  13  15
ENDBRANCH  10  13
TORSDOF 4
ENDMDL
