MODEL 1
REMARK VINA RESULT:      -6.4      0.000      0.000
REMARK  Name = 
REMARK  4 active torsions:
REMARK  status: ('A' for Active; 'I' for Inactive)
REMARK    1  A    between atoms: C_1  and  C_2
REMARK    2  A    between atoms: C_5  and  C_6
REMARK    3  A    between atoms: C_8  and  O_9
REMARK    4  A    between atoms: C_10  and  C_11
REMARK                            x       y       z     vdW  Elec       q    Type
REMARK                         _______ _______ _______ _____ _____    ______ ____
ROOT
ATOM      1  C   UNL     1       5.336   5.154  18.525  0.00  0.00    +0.000 A 
ATOM      2  N   UNL     1       6.365   4.960  19.330  0.00  0.00    +0.000 NA
ATOM      3  C   UNL     1       7.342   5.883  19.055  0.00  0.00    +0.000 A 
ATOM      4  C   UNL     1       7.092   6.767  18.033  0.00  0.00    +0.000 A 
ATOM      5  C   UNL     1       7.923   7.858  17.466  0.00  0.00    +0.000 C 
ATOM      6  S   UNL     1       5.543   6.443  17.389  0.00  0.00    +0.000 S 
ENDROOT
BRANCH   1  11
ATOM      7  C   UNL     1       0.430   2.080  18.729  0.00  0.00    +0.000 C 
ATOM      8  C   UNL     1       1.719   2.833  18.584  0.00  0.00    +0.000 A 
ATOM      9  C   UNL     1       2.928   2.257  18.980  0.00  0.00    +0.000 A 
ATOM     10  C   UNL     1       4.114   2.991  18.916  0.00  0.00    +0.000 A 
ATOM     11  C   UNL     1       4.121   4.323  18.471  0.00  0.00    +0.000 A 
ATOM     12  C   UNL     1       2.915   4.873  18.013  0.00  0.00    +0.000 A 
ATOM     13  C   UNL     1       1.724   4.137  18.075  0.00  0.00    +0.000 A 
ENDBRANCH   1  11
BRANCH   3  14
ATOM     14  O   UNL     1       8.488   5.909  19.748  0.00  0.00    +0.000 OA
ATOM     15  H   UNL     1       8.452   5.148  20.352  0.00  0.00    +0.000 HD
ENDBRANCH   3  14
TORSDOF 2
ENDMDL
MODEL 2
REMARK VINA RESULT:      -6.3      2.326      2.726
REMARK  Name = 
REMARK  4 active torsions:
REMARK  status: ('A' for Active; 'I' for Inactive)
REMARK    1  A    between atoms: C_1  and  C_2
REMARK    2  A    between atoms: C_5  and  C_6
REMARK    3  A    between atoms: C_8  and  O_9
REMARK    4  A    between atoms: C_10  and  C_11
REMARK                            x       y       z     vdW  Elec       q    Type
REMARK                         _______ _______ _______ _____ _____    ______ ____
ROOT
ATOM      1  C   UNL     1       5.199   4.859  17.857  0.00  0.00    +0.000 A 
ATOM      2  N   UNL     1       6.079   5.839  17.956  0.00  0.00    +0.000 NA
ATOM      3  C   UNL     1       6.764   5.960  16.773  0.00  0.00    +0.000 A 
ATOM      4  C   UNL     1       6.443   5.071  15.775  0.00  0.00    +0.000 A 
ATOM      5  C   UNL     1       6.993   4.908  14.407  0.00  0.00    +0.000 C 
ATOM      6  S   UNL     1       5.205   4.036  16.334  0.00  0.00    +0.000 S 
ENDROOT
BRANCH   1  11
ATOM      7  C   UNL     1       1.460   2.806  21.777  0.00  0.00    +0.000 C 
ATOM      8  C   UNL     1       2.488   3.368  20.840  0.00  0.00    +0.000 A 
ATOM      9  C   UNL     1       2.455   4.715  20.474  0.00  0.00    +0.000 A 
ATOM     10  C   UNL     1       3.366   5.215  19.541  0.00  0.00    +0.000 A 
ATOM     11  C   UNL     1       4.322   4.381  18.940  0.00  0.00    +0.000 A 
ATOM     12  C   UNL     1       4.392   3.046  19.362  0.00  0.00    +0.000 A 
ATOM     13  C   UNL     1       3.480   2.542  20.299  0.00  0.00    +0.000 A 
ENDBRANCH   1  11
BRANCH   3  14
ATOM     14  O   UNL     1       7.705   6.898  16.610  0.00  0.00    +0.000 OA
ATOM     15  H   UNL     1       8.203   6.925  17.444  0.00  0.00    +0.000 HD
ENDBRANCH   3  14
TORSDOF 2
ENDMDL
MODEL 3
REMARK VINA RESULT:      -6.2      3.595      5.251
REMARK  Name = 
REMARK  4 active torsions:
REMARK  status: ('A' for Active; 'I' for Inactive)
REMARK    1  A    between atoms: C_1  and  C_2
REMARK    2  A    between atoms: C_5  and  C_6
REMARK    3  A    between atoms: C_8  and  O_9
REMARK    4  A    between atoms: C_10  and  C_11
REMARK                            x       y       z     vdW  Elec       q    Type
REMARK                         _______ _______ _______ _____ _____    ______ ____
ROOT
ATOM      1  C   UNL     1       3.079   5.749  18.791  0.00  0.00    +0.000 A 
ATOM      2  N   UNL     1       4.289   5.389  19.178  0.00  0.00    +0.000 NA
ATOM      3  C   UNL     1       4.471   4.052  18.926  0.00  0.00    +0.000 A 
ATOM      4  C   UNL     1       3.410   3.374  18.376  0.00  0.00    +0.000 A 
ATOM      5  C   UNL     1       3.259   1.945  18.005  0.00  0.00    +0.000 C 
ATOM      6  S   UNL     1       2.118   4.465  18.142  0.00  0.00    +0.000 S 
ENDROOT
BRANCH   1  11
ATOM      7  C   UNL     1       0.331  10.817  19.368  0.00  0.00    +0.000 C 
ATOM      8  C   UNL     1       1.131   9.554  19.240  0.00  0.00    +0.000 A 
ATOM      9  C   UNL     1       1.738   9.216  18.028  0.00  0.00    +0.000 A 
ATOM     10  C   UNL     1       2.415   8.003  17.893  0.00  0.00    +0.000 A 
ATOM     11  C   UNL     1       2.489   7.089  18.956  0.00  0.00    +0.000 A 
ATOM     12  C   UNL     1       1.934   7.464  20.188  0.00  0.00    +0.000 A 
ATOM     13  C   UNL     1       1.256   8.682  20.328  0.00  0.00    +0.000 A 
ENDBRANCH   1  11
BRANCH   3  14
ATOM     14  O   UNL     1       5.628   3.443  19.214  0.00  0.00    +0.000 OA
ATOM     15  H   UNL     1       6.078   3.307  18.364  0.00  0.00    +0.000 HD
ENDBRANCH   3  14
TORSDOF 2
ENDMDL
MODEL 4
REMARK VINA RESULT:      -6.2      1.798      1.876
REMARK  Name = 
REMARK  4 active torsions:
REMARK  status: ('A' for Active; 'I' for Inactive)
REMARK    1  A    between atoms: C_1  and  C_2
REMARK    2  A    between atoms: C_5  and  C_6
REMARK    3  A    between atoms: C_8  and  O_9
REMARK    4  A    between atoms: C_10  and  C_11
REMARK                            x       y       z     vdW  Elec       q    Type
REMARK                         _______ _______ _______ _____ _____    ______ ____
ROOT
ATOM      1  C   UNL     1       5.090   4.914  17.189  0.00  0.00    +0.000 A 
ATOM      2  N   UNL     1       5.830   4.749  16.107  0.00  0.00    +0.000 NA
ATOM      3  C   UNL     1       6.844   5.673  16.101  0.00  0.00    +0.000 A 
ATOM      4  C   UNL     1       6.880   6.563  17.146  0.00  0.00    +0.000 A 
ATOM      5  C   UNL     1       7.807   7.686  17.435  0.00  0.00    +0.000 C 
ATOM      6  S   UNL     1       5.588   6.220  18.209  0.00  0.00    +0.000 S 
ENDROOT
BRANCH   1  11
ATOM      7  C   UNL     1       0.384   2.027  18.941  0.00  0.00    +0.000 C 
ATOM      8  C   UNL     1       1.574   2.754  18.390  0.00  0.00    +0.000 A 
ATOM      9  C   UNL     1       2.747   2.064  18.077  0.00  0.00    +0.000 A 
ATOM     10  C   UNL     1       3.877   2.758  17.638  0.00  0.00    +0.000 A 
ATOM     11  C   UNL     1       3.870   4.157  17.517  0.00  0.00    +0.000 A 
ATOM     12  C   UNL     1       2.670   4.835  17.770  0.00  0.00    +0.000 A 
ATOM     13  C   UNL     1       1.534   4.142  18.209  0.00  0.00    +0.000 A 
ENDBRANCH   1  11
BRANCH   3  14
ATOM     14  O   UNL     1       7.747   5.705  15.113  0.00  0.00    +0.000 OA
ATOM     15  H   UNL     1       8.593   5.444  15.515  0.00  0.00    +0.000 HD
ENDBRANCH   3  14
TORSDOF 2
ENDMDL
MODEL 5
REMARK VINA RESULT:      -6.2      2.739      5.935
REMARK  Name = 
REMARK  4 active torsions:
REMARK  status: ('A' for Active; 'I' for Inactive)
REMARK    1  A    between atoms: C_1  and  C_2
REMARK    2  A    between atoms: C_5  and  C_6
REMARK    3  A    between atoms: C_8  and  O_9
REMARK    4  A    between atoms: C_10  and  C_11
REMARK                            x       y       z     vdW  Elec       q    Type
REMARK                         _______ _______ _______ _____ _____    ______ ____
ROOT
ATOM      1  C   UNL     1       4.049   4.275  18.768  0.00  0.00    +0.000 A 
ATOM      2  N   UNL     1       3.824   3.084  18.245  0.00  0.00    +0.000 NA
ATOM      3  C   UNL     1       2.794   2.476  18.918  0.00  0.00    +0.000 A 
ATOM      4  C   UNL     1       2.241   3.171  19.966  0.00  0.00    +0.000 A 
ATOM      5  C   UNL     1       1.150   2.808  20.905  0.00  0.00    +0.000 C 
ATOM      6  S   UNL     1       3.037   4.675  20.113  0.00  0.00    +0.000 S 
ENDROOT
BRANCH   1  11
ATOM      7  C   UNL     1       8.131   8.197  17.533  0.00  0.00    +0.000 C 
ATOM      8  C   UNL     1       7.110   7.125  17.774  0.00  0.00    +0.000 A 
ATOM      9  C   UNL     1       5.898   7.128  17.080  0.00  0.00    +0.000 A 
ATOM     10  C   UNL     1       4.920   6.173  17.365  0.00  0.00    +0.000 A 
ATOM     11  C   UNL     1       5.119   5.202  18.360  0.00  0.00    +0.000 A 
ATOM     12  C   UNL     1       6.363   5.165  19.005  0.00  0.00    +0.000 A 
ATOM     13  C   UNL     1       7.348   6.120  18.720  0.00  0.00    +0.000 A 
ENDBRANCH   1  11
BRANCH   3  14
ATOM     14  O   UNL     1       2.359   1.259  18.568  0.00  0.00    +0.000 OA
ATOM     15  H   UNL     1       1.531   1.401  18.080  0.00  0.00    +0.000 HD
ENDBRANCH   3  14
TORSDOF 2
ENDMDL
MODEL 6
REMARK VINA RESULT:      -6.1      2.316      2.424
REMARK  Name = 
REMARK  4 active torsions:
REMARK  status: ('A' for Active; 'I' for Inactive)
REMARK    1  A    between atoms: C_1  and  C_2
REMARK    2  A    between atoms: C_5  and  C_6
REMARK    3  A    between atoms: C_8  and  O_9
REMARK    4  A    between atoms: C_10  and  C_11
REMARK                            x       y       z     vdW  Elec       q    Type
REMARK                         _______ _______ _______ _____ _____    ______ ____
ROOT
ATOM      1  C   UNL     1       4.986   4.791  17.576  0.00  0.00    +0.000 A 
ATOM      2  N   UNL     1       5.864   5.753  17.803  0.00  0.00    +0.000 NA
ATOM      3  C   UNL     1       6.673   5.902  16.706  0.00  0.00    +0.000 A 
ATOM      4  C   UNL     1       6.449   5.054  15.648  0.00  0.00    +0.000 A 
ATOM      5  C   UNL     1       7.140   4.928  14.341  0.00  0.00    +0.000 C 
ATOM      6  S   UNL     1       5.144   4.022  16.035  0.00  0.00    +0.000 S 
ENDROOT
BRANCH   1  11
ATOM      7  C   UNL     1       1.434   2.783  21.687  0.00  0.00    +0.000 C 
ATOM      8  C   UNL     1       2.271   3.315  20.562  0.00  0.00    +0.000 A 
ATOM      9  C   UNL     1       2.753   2.459  19.569  0.00  0.00    +0.000 A 
ATOM     10  C   UNL     1       3.596   2.945  18.568  0.00  0.00    +0.000 A 
ATOM     11  C   UNL     1       3.992   4.292  18.542  0.00  0.00    +0.000 A 
ATOM     12  C   UNL     1       3.451   5.158  19.502  0.00  0.00    +0.000 A 
ATOM     13  C   UNL     1       2.603   4.673  20.507  0.00  0.00    +0.000 A 
ENDBRANCH   1  11
BRANCH   3  14
ATOM     14  O   UNL     1       7.639   6.829  16.677  0.00  0.00    +0.000 OA
ATOM     15  H   UNL     1       7.226   7.636  16.328  0.00  0.00    +0.000 HD
ENDBRANCH   3  14
TORSDOF 2
ENDMDL
MODEL 7
REMARK VINA RESULT:      -6.1      3.373      5.437
REMARK  Name = 
REMARK  4 active torsions:
REMARK  status: ('A' for Active; 'I' for Inactive)
REMARK    1  A    between atoms: C_1  and  C_2
REMARK    2  A    between atoms: C_5  and  C_6
REMARK    3  A    between atoms: C_8  and  O_9
REMARK    4  A    between atoms: C_10  and  C_11
REMARK                            x       y       z     vdW  Elec       q    Type
REMARK                         _______ _______ _______ _____ _____    ______ ____
ROOT
ATOM      1  C   UNL     1       3.593   4.657  18.539  0.00  0.00    +0.000 A 
ATOM      2  N   UNL     1       3.143   5.685  19.236  0.00  0.00    +0.000 NA
ATOM      3  C   UNL     1       2.398   5.230  20.294  0.00  0.00    +0.000 A 
ATOM      4  C   UNL     1       2.246   3.869  20.407  0.00  0.00    +0.000 A 
ATOM      5  C   UNL     1       1.501   3.053  21.398  0.00  0.00    +0.000 C 
ATOM      6  S   UNL     1       3.094   3.111  19.133  0.00  0.00    +0.000 S 
ENDROOT
BRANCH   1  11
ATOM      7  C   UNL     1       7.063   4.967  13.911  0.00  0.00    +0.000 C 
ATOM      8  C   UNL     1       6.084   4.888  15.044  0.00  0.00    +0.000 A 
ATOM      9  C   UNL     1       5.527   6.049  15.586  0.00  0.00    +0.000 A 
ATOM     10  C   UNL     1       4.677   5.974  16.691  0.00  0.00    +0.000 A 
ATOM     11  C   UNL     1       4.375   4.742  17.294  0.00  0.00    +0.000 A 
ATOM     12  C   UNL     1       4.884   3.576  16.704  0.00  0.00    +0.000 A 
ATOM     13  C   UNL     1       5.736   3.648  15.594  0.00  0.00    +0.000 A 
ENDBRANCH   1  11
BRANCH   3  14
ATOM     14  O   UNL     1       1.841   6.079  21.167  0.00  0.00    +0.000 OA
ATOM     15  H   UNL     1       2.536   6.295  21.811  0.00  0.00    +0.000 HD
ENDBRANCH   3  14
TORSDOF 2
ENDMDL
MODEL 8
REMARK VINA RESULT:      -6.1      3.245      5.410
REMARK  Name = 
REMARK  4 active torsions:
REMARK  status: ('A' for Active; 'I' for Inactive)
REMARK    1  A    between atoms: C_1  and  C_2
REMARK    2  A    between atoms: C_5  and  C_6
REMARK    3  A    between atoms: C_8  and  O_9
REMARK    4  A    between atoms: C_10  and  C_11
REMARK                            x       y       z     vdW  Elec       q    Type
REMARK                         _______ _______ _______ _____ _____    ______ ____
ROOT
ATOM      1  C   UNL     1       4.107   4.235  18.801  0.00  0.00    +0.000 A 
ATOM      2  N   UNL     1       3.576   5.277  19.416  0.00  0.00    +0.000 NA
ATOM      3  C   UNL     1       2.769   4.843  20.438  0.00  0.00    +0.000 A 
ATOM      4  C   UNL     1       2.651   3.484  20.602  0.00  0.00    +0.000 A 
ATOM      5  C   UNL     1       1.859   2.688  21.572  0.00  0.00    +0.000 C 
ATOM      6  S   UNL     1       3.613   2.700  19.428  0.00  0.00    +0.000 S 
ENDROOT
BRANCH   1  11
ATOM      7  C   UNL     1       7.453   4.931  14.124  0.00  0.00    +0.000 C 
ATOM      8  C   UNL     1       6.610   4.650  15.332  0.00  0.00    +0.000 A 
ATOM      9  C   UNL     1       5.282   4.241  15.193  0.00  0.00    +0.000 A 
ATOM     10  C   UNL     1       4.479   4.057  16.320  0.00  0.00    +0.000 A 
ATOM     11  C   UNL     1       4.975   4.292  17.613  0.00  0.00    +0.000 A 
ATOM     12  C   UNL     1       6.327   4.638  17.748  0.00  0.00    +0.000 A 
ATOM     13  C   UNL     1       7.136   4.822  16.618  0.00  0.00    +0.000 A 
ENDBRANCH   1  11
BRANCH   3  14
ATOM     14  O   UNL     1       2.124   5.710  21.229  0.00  0.00    +0.000 OA
ATOM     15  H   UNL     1       2.720   6.470  21.334  0.00  0.00    +0.000 HD
ENDBRANCH   3  14
TORSDOF 2
ENDMDL
MODEL 9
REMARK VINA RESULT:      -6.0      2.498      5.900
REMARK  Name = 
REMARK  4 active torsions:
REMARK  status: ('A' for Active; 'I' for Inactive)
REMARK    1  A    between atoms: C_1  and  C_2
REMARK    2  A    between atoms: C_5  and  C_6
REMARK    3  A    between atoms: C_8  and  O_9
REMARK    4  A    between atoms: C_10  and  C_11
REMARK                            x       y       z     vdW  Elec       q    Type
REMARK                         _______ _______ _______ _____ _____    ______ ____
ROOT
ATOM      1  C   UNL     1       4.216   4.163  18.047  0.00  0.00    +0.000 A 
ATOM      2  N   UNL     1       4.440   2.869  18.183  0.00  0.00    +0.000 NA
ATOM      3  C   UNL     1       3.253   2.222  18.418  0.00  0.00    +0.000 A 
ATOM      4  C   UNL     1       2.124   3.001  18.492  0.00  0.00    +0.000 A 
ATOM      5  C   UNL     1       0.709   2.639  18.752  0.00  0.00    +0.000 C 
ATOM      6  S   UNL     1       2.561   4.632  18.235  0.00  0.00    +0.000 S 
ENDROOT
BRANCH   1  11
ATOM      7  C   UNL     1       8.144   8.407  17.693  0.00  0.00    +0.000 C 
ATOM      8  C   UNL     1       7.164   7.271  17.695  0.00  0.00    +0.000 A 
ATOM      9  C   UNL     1       5.943   7.385  17.027  0.00  0.00    +0.000 A 
ATOM     10  C   UNL     1       5.002   6.356  17.098  0.00  0.00    +0.000 A 
ATOM     11  C   UNL     1       5.248   5.196  17.849  0.00  0.00    +0.000 A 
ATOM     12  C   UNL     1       6.502   5.060  18.462  0.00  0.00    +0.000 A 
ATOM     13  C   UNL     1       7.449   6.091  18.391  0.00  0.00    +0.000 A 
ENDBRANCH   1  11
BRANCH   3  14
ATOM     14  O   UNL     1       3.207   0.893  18.577  0.00  0.00    +0.000 OA
ATOM     15  H   UNL     1       2.558   0.730  19.282  0.00  0.00    +0.000 HD
ENDBRANCH   3  14
TORSDOF 2
ENDMDL
