MODEL 1
REMARK VINA RESULT:      -7.9      0.000      0.000
REMARK  Name = 
REMARK  4 active torsions:
REMARK  status: ('A' for Active; 'I' for Inactive)
REMARK    1  A    between atoms: C_4  and  N_5
REMARK    2  A    between atoms: C_9  and  S_10
REMARK    3  A    between atoms: S_10  and  C_11
REMARK    4  A    between atoms: C_11  and  C_12
REMARK                            x       y       z     vdW  Elec       q    Type
REMARK                         _______ _______ _______ _____ _____    ______ ____
ROOT
ATOM      1  N   UNL     1       6.959   5.014  15.880  0.00  0.00    +0.000 N 
ATOM      2  N   UNL     1       7.876   4.400  16.687  0.00  0.00    +0.000 NA
ATOM      3  N   UNL     1       7.770   4.962  17.878  0.00  0.00    +0.000 NA
ATOM      4  N   UNL     1       6.784   5.892  17.897  0.00  0.00    +0.000 NA
ATOM      5  C   UNL     1       6.267   5.913  16.682  0.00  0.00    +0.000 A 
ENDROOT
BRANCH   1   9
ATOM      6  C   UNL     1       6.669   3.923  11.784  0.00  0.00    +0.000 A 
ATOM      7  C   UNL     1       5.819   3.362  12.728  0.00  0.00    +0.000 A 
ATOM      8  C   UNL     1       5.926   3.728  14.078  0.00  0.00    +0.000 A 
ATOM      9  C   UNL     1       6.892   4.666  14.490  0.00  0.00    +0.000 A 
ATOM     10  C   UNL     1       7.759   5.218  13.534  0.00  0.00    +0.000 A 
ATOM     11  C   UNL     1       7.641   4.838  12.179  0.00  0.00    +0.000 A 
ENDBRANCH   1   9
BRANCH   5  12
ATOM     12  S   UNL     1       4.870   6.836  16.256  0.00  0.00    +0.000 S 
BRANCH  12  13
ATOM     13  C   UNL     1       4.109   7.054  17.890  0.00  0.00    +0.000 C 
BRANCH  13  14
ATOM     14  C   UNL     1       3.556   5.766  18.390  0.00  0.00    +0.000 A 
ATOM     15  C   UNL     1       3.656   5.214  19.652  0.00  0.00    +0.000 A 
ATOM     16  N   UNL     1       2.839   4.120  19.625  0.00  0.00    +0.000 N 
ATOM     17  C   UNL     1       2.443   3.295  20.674  0.00  0.00    +0.000 A 
ATOM     18  C   UNL     1       1.199   2.773  20.607  0.00  0.00    +0.000 A 
ATOM     19  C   UNL     1       0.793   2.541  19.167  0.00  0.00    +0.000 A 
ATOM     20  N   UNL     1       1.291   3.114  18.115  0.00  0.00    +0.000 NA
ATOM     21  C   UNL     1       2.256   4.048  18.368  0.00  0.00    +0.000 A 
ATOM     22  N   UNL     1       2.738   4.993  17.591  0.00  0.00    +0.000 NA
ENDBRANCH  13  14
ENDBRANCH  12  13
ENDBRANCH   5  12
TORSDOF 4
ENDMDL
MODEL 2
REMARK VINA RESULT:      -7.9      0.126      1.037
REMARK  Name = 
REMARK  4 active torsions:
REMARK  status: ('A' for Active; 'I' for Inactive)
REMARK    1  A    between atoms: C_4  and  N_5
REMARK    2  A    between atoms: C_9  and  S_10
REMARK    3  A    between atoms: S_10  and  C_11
REMARK    4  A    between atoms: C_11  and  C_12
REMARK                            x       y       z     vdW  Elec       q    Type
REMARK                         _______ _______ _______ _____ _____    ______ ____
ROOT
ATOM      1  N   UNL     1       6.947   5.026  15.868  0.00  0.00    +0.000 N 
ATOM      2  N   UNL     1       7.888   4.442  16.671  0.00  0.00    +0.000 NA
ATOM      3  N   UNL     1       7.780   5.013  17.858  0.00  0.00    +0.000 NA
ATOM      4  N   UNL     1       6.773   5.920  17.879  0.00  0.00    +0.000 NA
ATOM      5  C   UNL     1       6.244   5.917  16.670  0.00  0.00    +0.000 A 
ENDROOT
BRANCH   1   9
ATOM      6  C   UNL     1       6.823   4.018  11.743  0.00  0.00    +0.000 A 
ATOM      7  C   UNL     1       7.721   4.967  12.214  0.00  0.00    +0.000 A 
ATOM      8  C   UNL     1       7.751   5.294  13.578  0.00  0.00    +0.000 A 
ATOM      9  C   UNL     1       6.875   4.664  14.482  0.00  0.00    +0.000 A 
ATOM     10  C   UNL     1       5.958   3.718  13.999  0.00  0.00    +0.000 A 
ATOM     11  C   UNL     1       5.937   3.401  12.624  0.00  0.00    +0.000 A 
ENDBRANCH   1   9
BRANCH   5  12
ATOM     12  S   UNL     1       4.820   6.803  16.250  0.00  0.00    +0.000 S 
BRANCH  12  13
ATOM     13  C   UNL     1       4.093   7.055  17.895  0.00  0.00    +0.000 C 
BRANCH  13  14
ATOM     14  C   UNL     1       3.529   5.782  18.422  0.00  0.00    +0.000 A 
ATOM     15  C   UNL     1       3.489   5.330  19.727  0.00  0.00    +0.000 A 
ATOM     16  N   UNL     1       2.722   4.201  19.686  0.00  0.00    +0.000 N 
ATOM     17  C   UNL     1       2.227   3.437  20.739  0.00  0.00    +0.000 A 
ATOM     18  C   UNL     1       1.021   2.856  20.561  0.00  0.00    +0.000 A 
ATOM     19  C   UNL     1       0.807   2.501  19.105  0.00  0.00    +0.000 A 
ATOM     20  N   UNL     1       1.413   3.018  18.081  0.00  0.00    +0.000 NA
ATOM     21  C   UNL     1       2.305   4.011  18.375  0.00  0.00    +0.000 A 
ATOM     22  N   UNL     1       2.846   4.917  17.592  0.00  0.00    +0.000 NA
ENDBRANCH  13  14
ENDBRANCH  12  13
ENDBRANCH   5  12
TORSDOF 4
ENDMDL
MODEL 3
REMARK VINA RESULT:      -7.9      0.826      1.662
REMARK  Name = 
REMARK  4 active torsions:
REMARK  status: ('A' for Active; 'I' for Inactive)
REMARK    1  A    between atoms: C_4  and  N_5
REMARK    2  A    between atoms: C_9  and  S_10
REMARK    3  A    between atoms: S_10  and  C_11
REMARK    4  A    between atoms: C_11  and  C_12
REMARK                            x       y       z     vdW  Elec       q    Type
REMARK                         _______ _______ _______ _____ _____    ______ ____
ROOT
ATOM      1  N   UNL     1       6.932   4.913  16.076  0.00  0.00    +0.000 N 
ATOM      2  N   UNL     1       7.849   4.284  16.872  0.00  0.00    +0.000 NA
ATOM      3  N   UNL     1       7.692   4.773  18.090  0.00  0.00    +0.000 NA
ATOM      4  N   UNL     1       6.675   5.668  18.134  0.00  0.00    +0.000 NA
ATOM      5  C   UNL     1       6.190   5.742  16.909  0.00  0.00    +0.000 A 
ENDROOT
BRANCH   1   9
ATOM      6  C   UNL     1       6.965   4.186  11.891  0.00  0.00    +0.000 A 
ATOM      7  C   UNL     1       7.812   5.133  12.452  0.00  0.00    +0.000 A 
ATOM      8  C   UNL     1       7.790   5.366  13.835  0.00  0.00    +0.000 A 
ATOM      9  C   UNL     1       6.913   4.644  14.668  0.00  0.00    +0.000 A 
ATOM     10  C   UNL     1       6.048   3.700  14.093  0.00  0.00    +0.000 A 
ATOM     11  C   UNL     1       6.080   3.478  12.700  0.00  0.00    +0.000 A 
ENDBRANCH   1   9
BRANCH   5  12
ATOM     12  S   UNL     1       4.773   6.643  16.497  0.00  0.00    +0.000 S 
BRANCH  12  13
ATOM     13  C   UNL     1       4.124   7.009  18.153  0.00  0.00    +0.000 C 
BRANCH  13  14
ATOM     14  C   UNL     1       3.153   5.964  18.580  0.00  0.00    +0.000 A 
ATOM     15  C   UNL     1       2.568   4.967  17.824  0.00  0.00    +0.000 A 
ATOM     16  N   UNL     1       1.899   4.188  18.724  0.00  0.00    +0.000 N 
ATOM     17  C   UNL     1       1.272   2.961  18.526  0.00  0.00    +0.000 A 
ATOM     18  C   UNL     1       1.300   2.086  19.554  0.00  0.00    +0.000 A 
ATOM     19  C   UNL     1       1.298   2.817  20.880  0.00  0.00    +0.000 A 
ATOM     20  N   UNL     1       1.654   4.046  21.092  0.00  0.00    +0.000 NA
ATOM     21  C   UNL     1       2.110   4.715  19.990  0.00  0.00    +0.000 A 
ATOM     22  N   UNL     1       2.804   5.829  19.908  0.00  0.00    +0.000 NA
ENDBRANCH  13  14
ENDBRANCH  12  13
ENDBRANCH   5  12
TORSDOF 4
ENDMDL
MODEL 4
REMARK VINA RESULT:      -7.8      0.832      1.323
REMARK  Name = 
REMARK  4 active torsions:
REMARK  status: ('A' for Active; 'I' for Inactive)
REMARK    1  A    between atoms: C_4  and  N_5
REMARK    2  A    between atoms: C_9  and  S_10
REMARK    3  A    between atoms: S_10  and  C_11
REMARK    4  A    between atoms: C_11  and  C_12
REMARK                            x       y       z     vdW  Elec       q    Type
REMARK                         _______ _______ _______ _____ _____    ______ ____
ROOT
ATOM      1  N   UNL     1       6.934   4.986  16.077  0.00  0.00    +0.000 N 
ATOM      2  N   UNL     1       7.847   4.371  16.890  0.00  0.00    +0.000 NA
ATOM      3  N   UNL     1       7.641   4.836  18.110  0.00  0.00    +0.000 NA
ATOM      4  N   UNL     1       6.596   5.699  18.138  0.00  0.00    +0.000 NA
ATOM      5  C   UNL     1       6.144   5.778  16.900  0.00  0.00    +0.000 A 
ENDROOT
BRANCH   1   9
ATOM      6  C   UNL     1       6.935   4.186  11.905  0.00  0.00    +0.000 A 
ATOM      7  C   UNL     1       6.095   3.484  12.760  0.00  0.00    +0.000 A 
ATOM      8  C   UNL     1       6.106   3.756  14.137  0.00  0.00    +0.000 A 
ATOM      9  C   UNL     1       6.964   4.739  14.664  0.00  0.00    +0.000 A 
ATOM     10  C   UNL     1       7.822   5.433  13.797  0.00  0.00    +0.000 A 
ATOM     11  C   UNL     1       7.803   5.148  12.415  0.00  0.00    +0.000 A 
ENDBRANCH   1   9
BRANCH   5  12
ATOM     12  S   UNL     1       4.713   6.643  16.461  0.00  0.00    +0.000 S 
BRANCH  12  13
ATOM     13  C   UNL     1       4.062   7.057  18.105  0.00  0.00    +0.000 C 
BRANCH  13  14
ATOM     14  C   UNL     1       3.108   6.014  18.572  0.00  0.00    +0.000 A 
ATOM     15  C   UNL     1       2.476   5.030  17.836  0.00  0.00    +0.000 A 
ATOM     16  N   UNL     1       1.850   4.244  18.761  0.00  0.00    +0.000 N 
ATOM     17  C   UNL     1       1.203   3.025  18.583  0.00  0.00    +0.000 A 
ATOM     18  C   UNL     1       1.280   2.136  19.597  0.00  0.00    +0.000 A 
ATOM     19  C   UNL     1       1.355   2.851  20.930  0.00  0.00    +0.000 A 
ATOM     20  N   UNL     1       1.732   4.075  21.137  0.00  0.00    +0.000 NA
ATOM     21  C   UNL     1       2.132   4.754  20.021  0.00  0.00    +0.000 A 
ATOM     22  N   UNL     1       2.829   5.864  19.915  0.00  0.00    +0.000 NA
ENDBRANCH  13  14
ENDBRANCH  12  13
ENDBRANCH   5  12
TORSDOF 4
ENDMDL
MODEL 5
REMARK VINA RESULT:      -7.7      2.802      6.625
REMARK  Name = 
REMARK  4 active torsions:
REMARK  status: ('A' for Active; 'I' for Inactive)
REMARK    1  A    between atoms: C_4  and  N_5
REMARK    2  A    between atoms: C_9  and  S_10
REMARK    3  A    between atoms: S_10  and  C_11
REMARK    4  A    between atoms: C_11  and  C_12
REMARK                            x       y       z     vdW  Elec       q    Type
REMARK                         _______ _______ _______ _____ _____    ______ ____
ROOT
ATOM      1  N   UNL     1       2.041   4.610  20.479  0.00  0.00    +0.000 N 
ATOM      2  N   UNL     1       2.350   4.438  21.800  0.00  0.00    +0.000 NA
ATOM      3  N   UNL     1       2.172   3.156  22.067  0.00  0.00    +0.000 NA
ATOM      4  N   UNL     1       1.801   2.469  20.959  0.00  0.00    +0.000 NA
ATOM      5  C   UNL     1       1.740   3.350  19.977  0.00  0.00    +0.000 A 
ENDROOT
BRANCH   1   9
ATOM      6  C   UNL     1       2.071   8.552  18.895  0.00  0.00    +0.000 A 
ATOM      7  C   UNL     1       1.546   8.299  20.156  0.00  0.00    +0.000 A 
ATOM      8  C   UNL     1       1.540   6.993  20.667  0.00  0.00    +0.000 A 
ATOM      9  C   UNL     1       2.064   5.927  19.911  0.00  0.00    +0.000 A 
ATOM     10  C   UNL     1       2.578   6.186  18.631  0.00  0.00    +0.000 A 
ATOM     11  C   UNL     1       2.576   7.505  18.129  0.00  0.00    +0.000 A 
ENDBRANCH   1   9
BRANCH   5  12
ATOM     12  S   UNL     1       1.458   2.920  18.327  0.00  0.00    +0.000 S 
BRANCH  12  13
ATOM     13  C   UNL     1       2.994   2.028  17.952  0.00  0.00    +0.000 C 
BRANCH  13  14
ATOM     14  C   UNL     1       4.130   2.978  17.799  0.00  0.00    +0.000 A 
ATOM     15  C   UNL     1       4.443   3.785  16.722  0.00  0.00    +0.000 A 
ATOM     16  N   UNL     1       5.469   4.574  17.158  0.00  0.00    +0.000 N 
ATOM     17  C   UNL     1       6.058   5.670  16.535  0.00  0.00    +0.000 A 
ATOM     18  C   UNL     1       6.503   6.663  17.335  0.00  0.00    +0.000 A 
ATOM     19  C   UNL     1       6.972   6.111  18.664  0.00  0.00    +0.000 A 
ATOM     20  N   UNL     1       6.638   4.976  19.197  0.00  0.00    +0.000 NA
ATOM     21  C   UNL     1       5.736   4.242  18.479  0.00  0.00    +0.000 A 
ATOM     22  N   UNL     1       4.984   3.231  18.853  0.00  0.00    +0.000 NA
ENDBRANCH  13  14
ENDBRANCH  12  13
ENDBRANCH   5  12
TORSDOF 4
ENDMDL
MODEL 6
REMARK VINA RESULT:      -7.7      2.785      6.639
REMARK  Name = 
REMARK  4 active torsions:
REMARK  status: ('A' for Active; 'I' for Inactive)
REMARK    1  A    between atoms: C_4  and  N_5
REMARK    2  A    between atoms: C_9  and  S_10
REMARK    3  A    between atoms: S_10  and  C_11
REMARK    4  A    between atoms: C_11  and  C_12
REMARK                            x       y       z     vdW  Elec       q    Type
REMARK                         _______ _______ _______ _____ _____    ______ ____
ROOT
ATOM      1  N   UNL     1       2.034   4.656  20.489  0.00  0.00    +0.000 N 
ATOM      2  N   UNL     1       2.356   4.453  21.803  0.00  0.00    +0.000 NA
ATOM      3  N   UNL     1       2.190   3.163  22.039  0.00  0.00    +0.000 NA
ATOM      4  N   UNL     1       1.815   2.502  20.917  0.00  0.00    +0.000 NA
ATOM      5  C   UNL     1       1.739   3.406  19.958  0.00  0.00    +0.000 A 
ENDROOT
BRANCH   1   9
ATOM      6  C   UNL     1       2.098   8.557  18.809  0.00  0.00    +0.000 A 
ATOM      7  C   UNL     1       2.628   7.478  18.113  0.00  0.00    +0.000 A 
ATOM      8  C   UNL     1       2.603   6.194  18.680  0.00  0.00    +0.000 A 
ATOM      9  C   UNL     1       2.042   5.987  19.955  0.00  0.00    +0.000 A 
ATOM     10  C   UNL     1       1.523   7.084  20.659  0.00  0.00    +0.000 A 
ATOM     11  C   UNL     1       1.557   8.370  20.078  0.00  0.00    +0.000 A 
ENDBRANCH   1   9
BRANCH   5  12
ATOM     12  S   UNL     1       1.445   3.016  18.300  0.00  0.00    +0.000 S 
BRANCH  12  13
ATOM     13  C   UNL     1       2.957   2.091  17.907  0.00  0.00    +0.000 C 
BRANCH  13  14
ATOM     14  C   UNL     1       4.120   3.013  17.779  0.00  0.00    +0.000 A 
ATOM     15  C   UNL     1       4.485   3.797  16.702  0.00  0.00    +0.000 A 
ATOM     16  N   UNL     1       5.515   4.568  17.160  0.00  0.00    +0.000 N 
ATOM     17  C   UNL     1       6.149   5.642  16.542  0.00  0.00    +0.000 A 
ATOM     18  C   UNL     1       6.591   6.636  17.343  0.00  0.00    +0.000 A 
ATOM     19  C   UNL     1       7.005   6.091  18.693  0.00  0.00    +0.000 A 
ATOM     20  N   UNL     1       6.627   4.972  19.230  0.00  0.00    +0.000 NA
ATOM     21  C   UNL     1       5.732   4.249  18.493  0.00  0.00    +0.000 A 
ATOM     22  N   UNL     1       4.945   3.260  18.856  0.00  0.00    +0.000 NA
ENDBRANCH  13  14
ENDBRANCH  12  13
ENDBRANCH   5  12
TORSDOF 4
ENDMDL
MODEL 7
REMARK VINA RESULT:      -7.6      1.890      2.783
REMARK  Name = 
REMARK  4 active torsions:
REMARK  status: ('A' for Active; 'I' for Inactive)
REMARK    1  A    between atoms: C_4  and  N_5
REMARK    2  A    between atoms: C_9  and  S_10
REMARK    3  A    between atoms: S_10  and  C_11
REMARK    4  A    between atoms: C_11  and  C_12
REMARK                            x       y       z     vdW  Elec       q    Type
REMARK                         _______ _______ _______ _____ _____    ______ ____
ROOT
ATOM      1  N   UNL     1       6.738   4.386  13.473  0.00  0.00    +0.000 N 
ATOM      2  N   UNL     1       7.792   5.125  13.014  0.00  0.00    +0.000 NA
ATOM      3  N   UNL     1       8.244   5.821  14.043  0.00  0.00    +0.000 NA
ATOM      4  N   UNL     1       7.554   5.533  15.173  0.00  0.00    +0.000 NA
ATOM      5  C   UNL     1       6.644   4.637  14.836  0.00  0.00    +0.000 A 
ENDROOT
BRANCH   1   9
ATOM      6  C   UNL     1       4.591   1.922  10.759  0.00  0.00    +0.000 A 
ATOM      7  C   UNL     1       5.892   1.605  11.126  0.00  0.00    +0.000 A 
ATOM      8  C   UNL     1       6.592   2.428  12.021  0.00  0.00    +0.000 A 
ATOM      9  C   UNL     1       5.984   3.580  12.557  0.00  0.00    +0.000 A 
ATOM     10  C   UNL     1       4.675   3.904  12.170  0.00  0.00    +0.000 A 
ATOM     11  C   UNL     1       3.984   3.068  11.266  0.00  0.00    +0.000 A 
ENDBRANCH   1   9
BRANCH   5  12
ATOM     12  S   UNL     1       5.619   3.844  15.980  0.00  0.00    +0.000 S 
BRANCH  12  13
ATOM     13  C   UNL     1       6.169   4.634  17.519  0.00  0.00    +0.000 C 
BRANCH  13  14
ATOM     14  C   UNL     1       5.112   4.546  18.563  0.00  0.00    +0.000 A 
ATOM     15  C   UNL     1       4.094   5.438  18.840  0.00  0.00    +0.000 A 
ATOM     16  N   UNL     1       3.314   4.808  19.767  0.00  0.00    +0.000 N 
ATOM     17  C   UNL     1       2.074   5.186  20.273  0.00  0.00    +0.000 A 
ATOM     18  C   UNL     1       1.212   4.194  20.587  0.00  0.00    +0.000 A 
ATOM     19  C   UNL     1       1.960   2.963  21.053  0.00  0.00    +0.000 A 
ATOM     20  N   UNL     1       3.199   2.665  20.807  0.00  0.00    +0.000 NA
ATOM     21  C   UNL     1       3.862   3.556  20.011  0.00  0.00    +0.000 A 
ATOM     22  N   UNL     1       4.987   3.416  19.345  0.00  0.00    +0.000 NA
ENDBRANCH  13  14
ENDBRANCH  12  13
ENDBRANCH   5  12
TORSDOF 4
ENDMDL
MODEL 8
REMARK VINA RESULT:      -7.5      1.078      1.513
REMARK  Name = 
REMARK  4 active torsions:
REMARK  status: ('A' for Active; 'I' for Inactive)
REMARK    1  A    between atoms: C_4  and  N_5
REMARK    2  A    between atoms: C_9  and  S_10
REMARK    3  A    between atoms: S_10  and  C_11
REMARK    4  A    between atoms: C_11  and  C_12
REMARK                            x       y       z     vdW  Elec       q    Type
REMARK                         _______ _______ _______ _____ _____    ______ ____
ROOT
ATOM      1  N   UNL     1       7.249   4.979  16.495  0.00  0.00    +0.000 N 
ATOM      2  N   UNL     1       7.997   4.110  17.242  0.00  0.00    +0.000 NA
ATOM      3  N   UNL     1       8.097   4.638  18.449  0.00  0.00    +0.000 NA
ATOM      4  N   UNL     1       7.405   5.800  18.538  0.00  0.00    +0.000 NA
ATOM      5  C   UNL     1       6.864   6.003  17.351  0.00  0.00    +0.000 A 
ENDROOT
BRANCH   1   9
ATOM      6  C   UNL     1       6.701   4.249  12.346  0.00  0.00    +0.000 A 
ATOM      7  C   UNL     1       7.692   5.117  12.788  0.00  0.00    +0.000 A 
ATOM      8  C   UNL     1       7.861   5.351  14.161  0.00  0.00    +0.000 A 
ATOM      9  C   UNL     1       7.033   4.712  15.103  0.00  0.00    +0.000 A 
ATOM     10  C   UNL     1       6.024   3.849  14.650  0.00  0.00    +0.000 A 
ATOM     11  C   UNL     1       5.863   3.624  13.266  0.00  0.00    +0.000 A 
ENDBRANCH   1   9
BRANCH   5  12
ATOM     12  S   UNL     1       5.756   7.286  17.016  0.00  0.00    +0.000 S 
BRANCH  12  13
ATOM     13  C   UNL     1       4.240   6.338  16.702  0.00  0.00    +0.000 C 
BRANCH  13  14
ATOM     14  C   UNL     1       3.842   5.565  17.911  0.00  0.00    +0.000 A 
ATOM     15  C   UNL     1       3.238   6.020  19.067  0.00  0.00    +0.000 A 
ATOM     16  N   UNL     1       2.941   4.892  19.778  0.00  0.00    +0.000 N 
ATOM     17  C   UNL     1       2.186   4.761  20.939  0.00  0.00    +0.000 A 
ATOM     18  C   UNL     1       1.464   3.628  21.076  0.00  0.00    +0.000 A 
ATOM     19  C   UNL     1       2.159   2.465  20.400  0.00  0.00    +0.000 A 
ATOM     20  N   UNL     1       3.054   2.531  19.463  0.00  0.00    +0.000 NA
ATOM     21  C   UNL     1       3.352   3.794  19.035  0.00  0.00    +0.000 A 
ATOM     22  N   UNL     1       3.963   4.191  17.940  0.00  0.00    +0.000 NA
ENDBRANCH  13  14
ENDBRANCH  12  13
ENDBRANCH   5  12
TORSDOF 4
ENDMDL
MODEL 9
REMARK VINA RESULT:      -7.5      1.854      6.994
REMARK  Name = 
REMARK  4 active torsions:
REMARK  status: ('A' for Active; 'I' for Inactive)
REMARK    1  A    between atoms: C_4  and  N_5
REMARK    2  A    between atoms: C_9  and  S_10
REMARK    3  A    between atoms: S_10  and  C_11
REMARK    4  A    between atoms: C_11  and  C_12
REMARK                            x       y       z     vdW  Elec       q    Type
REMARK                         _______ _______ _______ _____ _____    ______ ____
ROOT
ATOM      1  N   UNL     1       2.513   4.513  18.307  0.00  0.00    +0.000 N 
ATOM      2  N   UNL     1       1.464   3.752  17.870  0.00  0.00    +0.000 NA
ATOM      3  N   UNL     1       1.968   2.589  17.499  0.00  0.00    +0.000 NA
ATOM      4  N   UNL     1       3.305   2.539  17.716  0.00  0.00    +0.000 NA
ATOM      5  C   UNL     1       3.642   3.706  18.232  0.00  0.00    +0.000 A 
ENDROOT
BRANCH   1   9
ATOM      6  C   UNL     1       1.840   8.567  19.381  0.00  0.00    +0.000 A 
ATOM      7  C   UNL     1       2.068   8.214  18.057  0.00  0.00    +0.000 A 
ATOM      8  C   UNL     1       2.291   6.871  17.715  0.00  0.00    +0.000 A 
ATOM      9  C   UNL     1       2.287   5.871  18.706  0.00  0.00    +0.000 A 
ATOM     10  C   UNL     1       2.072   6.237  20.044  0.00  0.00    +0.000 A 
ATOM     11  C   UNL     1       1.851   7.591  20.374  0.00  0.00    +0.000 A 
ENDBRANCH   1   9
BRANCH   5  12
ATOM     12  S   UNL     1       5.226   4.065  18.824  0.00  0.00    +0.000 S 
BRANCH  12  13
ATOM     13  C   UNL     1       5.659   5.479  17.771  0.00  0.00    +0.000 C 
BRANCH  13  14
ATOM     14  C   UNL     1       6.198   5.016  16.463  0.00  0.00    +0.000 A 
ATOM     15  C   UNL     1       5.747   3.987  15.658  0.00  0.00    +0.000 A 
ATOM     16  N   UNL     1       6.477   4.092  14.509  0.00  0.00    +0.000 N 
ATOM     17  C   UNL     1       6.321   3.411  13.305  0.00  0.00    +0.000 A 
ATOM     18  C   UNL     1       6.621   4.087  12.175  0.00  0.00    +0.000 A 
ATOM     19  C   UNL     1       7.730   5.086  12.427  0.00  0.00    +0.000 A 
ATOM     20  N   UNL     1       8.081   5.587  13.571  0.00  0.00    +0.000 NA
ATOM     21  C   UNL     1       7.328   5.181  14.637  0.00  0.00    +0.000 A 
ATOM     22  N   UNL     1       7.221   5.701  15.840  0.00  0.00    +0.000 NA
ENDBRANCH  13  14
ENDBRANCH  12  13
ENDBRANCH   5  12
TORSDOF 4
ENDMDL
