MODEL 1
REMARK VINA RESULT:      -5.8      0.000      0.000
REMARK  Name = 
REMARK  14 active torsions:
REMARK  status: ('A' for Active; 'I' for Inactive)
REMARK    1  A    between atoms: C_1  and  O_2
REMARK    2  A    between atoms: O_2  and  C_3
REMARK    3  A    between atoms: C_3  and  C_4
REMARK    4  A    between atoms: C_4  and  O_5
REMARK    5  A    between atoms: O_5  and  C_6
REMARK    6  A    between atoms: C_6  and  C_7
REMARK    7  A    between atoms: C_7  and  C_8
REMARK    8  A    between atoms: C_8  and  C_9
REMARK    9  A    between atoms: N_11  and  C_12
REMARK   10  A    between atoms: N_11  and  C_17
REMARK   11  A    between atoms: C_12  and  C_13
REMARK   12  A    between atoms: C_15  and  C_16
REMARK   13  A    between atoms: C_17  and  C_18
REMARK   14  A    between atoms: C_17  and  C_19
REMARK                            x       y       z     vdW  Elec       q    Type
REMARK                         _______ _______ _______ _____ _____    ______ ____
ROOT
ATOM      1  C   UNL     1       4.855   4.133  17.982  0.00  0.00    +0.000 C 
ATOM      2  O   UNL     1       5.199   3.648  19.045  0.00  0.00    +0.000 OA
ATOM      3  N   UNL     1       5.617   5.121  17.321  0.00  0.00    +0.000 N 
ENDROOT
BRANCH   3   4
ATOM      4  C   UNL     1       6.798   5.682  18.021  0.00  0.00    +0.000 C 
ATOM      5  C   UNL     1       7.971   4.697  18.047  0.00  0.00    +0.000 C 
ATOM      6  C   UNL     1       7.249   7.041  17.472  0.00  0.00    +0.000 C 
ENDBRANCH   3   4
BRANCH   1   7
ATOM      7  C   UNL     1       3.552   3.711  17.347  0.00  0.00    +0.000 C 
BRANCH   7   8
ATOM      8  C   UNL     1       3.026   2.340  17.762  0.00  0.00    +0.000 C 
BRANCH   8   9
ATOM      9  C   UNL     1       1.654   2.527  18.414  0.00  0.00    +0.000 C 
BRANCH   9  10
ATOM     10  O   UNL     1       1.678   2.072  19.764  0.00  0.00    +0.000 OA
BRANCH  10  11
ATOM     11  C   UNL     1       2.048   3.136  20.646  0.00  0.00    +0.000 C 
BRANCH  11  12
ATOM     12  C   UNL     1       1.079   4.298  20.474  0.00  0.00    +0.000 C 
BRANCH  12  14
ATOM     13  C   UNL     1       2.396   6.110  19.760  0.00  0.00    +0.000 C 
ATOM     14  O   UNL     1       1.718   5.515  20.861  0.00  0.00    +0.000 OA
ENDBRANCH  12  14
ENDBRANCH  11  12
ENDBRANCH  10  11
ENDBRANCH   9  10
ENDBRANCH   8   9
ENDBRANCH   7   8
ENDBRANCH   1   7
BRANCH   3  15
ATOM     15  C   UNL     1       5.275   5.714  15.994  0.00  0.00    +0.000 C 
BRANCH  15  16
ATOM     16  C   UNL     1       6.021   5.016  14.898  0.00  0.00    +0.000 C 
ATOM     17  C   UNL     1       6.359   3.563  15.132  0.00  0.00    +0.000 C 
ATOM     18  C   UNL     1       5.635   3.956  13.887  0.00  0.00    +0.000 C 
ATOM     19  C   UNL     1       6.421   3.919  12.609  0.00  0.00    +0.000 C 
ENDBRANCH  15  16
ENDBRANCH   3  15
TORSDOF 10
ENDMDL
MODEL 2
REMARK VINA RESULT:      -5.7      1.386      1.652
REMARK  Name = 
REMARK  14 active torsions:
REMARK  status: ('A' for Active; 'I' for Inactive)
REMARK    1  A    between atoms: C_1  and  O_2
REMARK    2  A    between atoms: O_2  and  C_3
REMARK    3  A    between atoms: C_3  and  C_4
REMARK    4  A    between atoms: C_4  and  O_5
REMARK    5  A    between atoms: O_5  and  C_6
REMARK    6  A    between atoms: C_6  and  C_7
REMARK    7  A    between atoms: C_7  and  C_8
REMARK    8  A    between atoms: C_8  and  C_9
REMARK    9  A    between atoms: N_11  and  C_12
REMARK   10  A    between atoms: N_11  and  C_17
REMARK   11  A    between atoms: C_12  and  C_13
REMARK   12  A    between atoms: C_15  and  C_16
REMARK   13  A    between atoms: C_17  and  C_18
REMARK   14  A    between atoms: C_17  and  C_19
REMARK                            x       y       z     vdW  Elec       q    Type
REMARK                         _______ _______ _______ _____ _____    ______ ____
ROOT
ATOM      1  C   UNL     1       4.392   5.817  18.327  0.00  0.00    +0.000 C 
ATOM      2  O   UNL     1       4.513   5.533  19.506  0.00  0.00    +0.000 OA
ATOM      3  N   UNL     1       5.501   6.107  17.502  0.00  0.00    +0.000 N 
ENDROOT
BRANCH   3   4
ATOM      4  C   UNL     1       6.839   6.207  18.134  0.00  0.00    +0.000 C 
ATOM      5  C   UNL     1       7.629   4.901  18.015  0.00  0.00    +0.000 C 
ATOM      6  C   UNL     1       7.672   7.390  17.622  0.00  0.00    +0.000 C 
ENDBRANCH   3   4
BRANCH   1   7
ATOM      7  C   UNL     1       3.016   5.907  17.712  0.00  0.00    +0.000 C 
BRANCH   7   8
ATOM      8  C   UNL     1       2.041   4.800  18.101  0.00  0.00    +0.000 C 
BRANCH   8   9
ATOM      9  C   UNL     1       2.533   3.487  17.488  0.00  0.00    +0.000 C 
BRANCH   9  10
ATOM     10  O   UNL     1       2.095   2.378  18.268  0.00  0.00    +0.000 OA
BRANCH  10  11
ATOM     11  C   UNL     1       2.697   2.407  19.565  0.00  0.00    +0.000 C 
BRANCH  11  12
ATOM     12  C   UNL     1       1.627   2.193  20.627  0.00  0.00    +0.000 C 
BRANCH  12  14
ATOM     13  C   UNL     1       2.322   4.181  21.671  0.00  0.00    +0.000 C 
ATOM     14  O   UNL     1       2.040   2.798  21.852  0.00  0.00    +0.000 OA
ENDBRANCH  12  14
ENDBRANCH  11  12
ENDBRANCH  10  11
ENDBRANCH   9  10
ENDBRANCH   8   9
ENDBRANCH   7   8
ENDBRANCH   1   7
BRANCH   3  15
ATOM     15  C   UNL     1       5.419   6.409  16.042  0.00  0.00    +0.000 C 
BRANCH  15  16
ATOM     16  C   UNL     1       5.974   5.274  15.238  0.00  0.00    +0.000 C 
ATOM     17  C   UNL     1       5.442   3.897  15.560  0.00  0.00    +0.000 C 
ATOM     18  C   UNL     1       5.399   4.388  14.151  0.00  0.00    +0.000 C 
ATOM     19  C   UNL     1       6.375   3.773  13.191  0.00  0.00    +0.000 C 
ENDBRANCH  15  16
ENDBRANCH   3  15
TORSDOF 10
ENDMDL
MODEL 3
REMARK VINA RESULT:      -5.7      1.392      1.957
REMARK  Name = 
REMARK  14 active torsions:
REMARK  status: ('A' for Active; 'I' for Inactive)
REMARK    1  A    between atoms: C_1  and  O_2
REMARK    2  A    between atoms: O_2  and  C_3
REMARK    3  A    between atoms: C_3  and  C_4
REMARK    4  A    between atoms: C_4  and  O_5
REMARK    5  A    between atoms: O_5  and  C_6
REMARK    6  A    between atoms: C_6  and  C_7
REMARK    7  A    between atoms: C_7  and  C_8
REMARK    8  A    between atoms: C_8  and  C_9
REMARK    9  A    between atoms: N_11  and  C_12
REMARK   10  A    between atoms: N_11  and  C_17
REMARK   11  A    between atoms: C_12  and  C_13
REMARK   12  A    between atoms: C_15  and  C_16
REMARK   13  A    between atoms: C_17  and  C_18
REMARK   14  A    between atoms: C_17  and  C_19
REMARK                            x       y       z     vdW  Elec       q    Type
REMARK                         _______ _______ _______ _____ _____    ______ ____
ROOT
ATOM      1  C   UNL     1       4.977   5.700  18.149  0.00  0.00    +0.000 C 
ATOM      2  O   UNL     1       5.400   5.516  19.277  0.00  0.00    +0.000 OA
ATOM      3  N   UNL     1       5.831   5.964  17.055  0.00  0.00    +0.000 N 
ENDROOT
BRANCH   3   4
ATOM      4  C   UNL     1       7.276   6.162  17.324  0.00  0.00    +0.000 C 
ATOM      5  C   UNL     1       7.602   7.621  17.660  0.00  0.00    +0.000 C 
ATOM      6  C   UNL     1       7.835   5.224  18.401  0.00  0.00    +0.000 C 
ENDBRANCH   3   4
BRANCH   1   7
ATOM      7  C   UNL     1       3.490   5.692  17.892  0.00  0.00    +0.000 C 
BRANCH   7   8
ATOM      8  C   UNL     1       2.900   4.357  17.448  0.00  0.00    +0.000 C 
BRANCH   8   9
ATOM      9  C   UNL     1       1.395   4.379  17.723  0.00  0.00    +0.000 C 
BRANCH   9  10
ATOM     10  O   UNL     1       0.952   3.104  18.178  0.00  0.00    +0.000 OA
BRANCH  10  11
ATOM     11  C   UNL     1       0.866   3.083  19.606  0.00  0.00    +0.000 C 
BRANCH  11  12
ATOM     12  C   UNL     1       1.972   2.199  20.168  0.00  0.00    +0.000 C 
BRANCH  12  14
ATOM     13  C   UNL     1       4.319   2.317  20.230  0.00  0.00    +0.000 C 
ATOM     14  O   UNL     1       3.103   3.003  20.505  0.00  0.00    +0.000 OA
ENDBRANCH  12  14
ENDBRANCH  11  12
ENDBRANCH  10  11
ENDBRANCH   9  10
ENDBRANCH   8   9
ENDBRANCH   7   8
ENDBRANCH   1   7
BRANCH   3  15
ATOM     15  C   UNL     1       5.375   6.146  15.645  0.00  0.00    +0.000 C 
BRANCH  15  16
ATOM     16  C   UNL     1       6.034   5.145  14.746  0.00  0.00    +0.000 C 
ATOM     17  C   UNL     1       6.066   3.716  15.237  0.00  0.00    +0.000 C 
ATOM     18  C   UNL     1       5.509   4.014  13.885  0.00  0.00    +0.000 C 
ATOM     19  C   UNL     1       6.347   3.614  12.706  0.00  0.00    +0.000 C 
ENDBRANCH  15  16
ENDBRANCH   3  15
TORSDOF 10
ENDMDL
MODEL 4
REMARK VINA RESULT:      -5.6      1.883      3.336
REMARK  Name = 
REMARK  14 active torsions:
REMARK  status: ('A' for Active; 'I' for Inactive)
REMARK    1  A    between atoms: C_1  and  O_2
REMARK    2  A    between atoms: O_2  and  C_3
REMARK    3  A    between atoms: C_3  and  C_4
REMARK    4  A    between atoms: C_4  and  O_5
REMARK    5  A    between atoms: O_5  and  C_6
REMARK    6  A    between atoms: C_6  and  C_7
REMARK    7  A    between atoms: C_7  and  C_8
REMARK    8  A    between atoms: C_8  and  C_9
REMARK    9  A    between atoms: N_11  and  C_12
REMARK   10  A    between atoms: N_11  and  C_17
REMARK   11  A    between atoms: C_12  and  C_13
REMARK   12  A    between atoms: C_15  and  C_16
REMARK   13  A    between atoms: C_17  and  C_18
REMARK   14  A    between atoms: C_17  and  C_19
REMARK                            x       y       z     vdW  Elec       q    Type
REMARK                         _______ _______ _______ _____ _____    ______ ____
ROOT
ATOM      1  C   UNL     1       5.648   4.387  16.710  0.00  0.00    +0.000 C 
ATOM      2  O   UNL     1       6.515   4.077  15.911  0.00  0.00    +0.000 OA
ATOM      3  N   UNL     1       5.863   5.348  17.722  0.00  0.00    +0.000 N 
ENDROOT
BRANCH   3   4
ATOM      4  C   UNL     1       7.233   5.887  17.900  0.00  0.00    +0.000 C 
ATOM      5  C   UNL     1       7.341   7.346  17.444  0.00  0.00    +0.000 C 
ATOM      6  C   UNL     1       7.776   5.727  19.326  0.00  0.00    +0.000 C 
ENDBRANCH   3   4
BRANCH   1   7
ATOM      7  C   UNL     1       4.302   3.706  16.663  0.00  0.00    +0.000 C 
BRANCH   7   8
ATOM      8  C   UNL     1       4.005   2.745  17.810  0.00  0.00    +0.000 C 
BRANCH   8   9
ATOM      9  C   UNL     1       2.565   2.247  17.662  0.00  0.00    +0.000 C 
BRANCH   9  10
ATOM     10  O   UNL     1       2.093   1.713  18.895  0.00  0.00    +0.000 OA
BRANCH  10  11
ATOM     11  C   UNL     1       1.034   2.519  19.419  0.00  0.00    +0.000 C 
BRANCH  11  12
ATOM     12  C   UNL     1       1.244   2.725  20.913  0.00  0.00    +0.000 C 
BRANCH  12  14
ATOM     13  C   UNL     1       2.240   4.837  21.187  0.00  0.00    +0.000 C 
ATOM     14  O   UNL     1       2.465   3.433  21.132  0.00  0.00    +0.000 OA
ENDBRANCH  12  14
ENDBRANCH  11  12
ENDBRANCH  10  11
ENDBRANCH   9  10
ENDBRANCH   8   9
ENDBRANCH   7   8
ENDBRANCH   1   7
BRANCH   3  15
ATOM     15  C   UNL     1       4.826   5.806  18.694  0.00  0.00    +0.000 C 
BRANCH  15  16
ATOM     16  C   UNL     1       3.840   6.713  18.023  0.00  0.00    +0.000 C 
ATOM     17  C   UNL     1       2.418   6.209  17.929  0.00  0.00    +0.000 C 
ATOM     18  C   UNL     1       2.684   7.550  18.530  0.00  0.00    +0.000 C 
ATOM     19  C   UNL     1       2.301   8.746  17.707  0.00  0.00    +0.000 C 
ENDBRANCH  15  16
ENDBRANCH   3  15
TORSDOF 10
ENDMDL
MODEL 5
REMARK VINA RESULT:      -5.4      4.176      6.531
REMARK  Name = 
REMARK  14 active torsions:
REMARK  status: ('A' for Active; 'I' for Inactive)
REMARK    1  A    between atoms: C_1  and  O_2
REMARK    2  A    between atoms: O_2  and  C_3
REMARK    3  A    between atoms: C_3  and  C_4
REMARK    4  A    between atoms: C_4  and  O_5
REMARK    5  A    between atoms: O_5  and  C_6
REMARK    6  A    between atoms: C_6  and  C_7
REMARK    7  A    between atoms: C_7  and  C_8
REMARK    8  A    between atoms: C_8  and  C_9
REMARK    9  A    between atoms: N_11  and  C_12
REMARK   10  A    between atoms: N_11  and  C_17
REMARK   11  A    between atoms: C_12  and  C_13
REMARK   12  A    between atoms: C_15  and  C_16
REMARK   13  A    between atoms: C_17  and  C_18
REMARK   14  A    between atoms: C_17  and  C_19
REMARK                            x       y       z     vdW  Elec       q    Type
REMARK                         _______ _______ _______ _____ _____    ______ ____
ROOT
ATOM      1  C   UNL     1       3.310   7.042  17.823  0.00  0.00    +0.000 C 
ATOM      2  O   UNL     1       4.322   7.704  17.672  0.00  0.00    +0.000 OA
ATOM      3  N   UNL     1       3.331   5.631  17.873  0.00  0.00    +0.000 N 
ENDROOT
BRANCH   3   4
ATOM      4  C   UNL     1       4.611   4.937  17.590  0.00  0.00    +0.000 C 
ATOM      5  C   UNL     1       5.416   4.674  18.866  0.00  0.00    +0.000 C 
ATOM      6  C   UNL     1       4.442   3.643  16.783  0.00  0.00    +0.000 C 
ENDBRANCH   3   4
BRANCH   1   7
ATOM      7  C   UNL     1       1.969   7.728  17.920  0.00  0.00    +0.000 C 
BRANCH   7   8
ATOM      8  C   UNL     1       1.999   9.253  17.878  0.00  0.00    +0.000 C 
BRANCH   8   9
ATOM      9  C   UNL     1       0.865   9.782  18.759  0.00  0.00    +0.000 C 
BRANCH   9  10
ATOM     10  O   UNL     1      -0.335   9.911  18.001  0.00  0.00    +0.000 OA
BRANCH  10  11
ATOM     11  C   UNL     1      -1.003  11.134  18.324  0.00  0.00    +0.000 C 
BRANCH  11  12
ATOM     12  C   UNL     1      -2.232  11.289  17.437  0.00  0.00    +0.000 C 
BRANCH  12  14
ATOM     13  C   UNL     1      -3.003  10.706  15.294  0.00  0.00    +0.000 C 
ATOM     14  O   UNL     1      -2.202  10.307  16.401  0.00  0.00    +0.000 OA
ENDBRANCH  12  14
ENDBRANCH  11  12
ENDBRANCH  10  11
ENDBRANCH   9  10
ENDBRANCH   8   9
ENDBRANCH   7   8
ENDBRANCH   1   7
BRANCH   3  15
ATOM     15  C   UNL     1       2.134   4.770  18.107  0.00  0.00    +0.000 C 
BRANCH  15  16
ATOM     16  C   UNL     1       2.145   4.221  19.501  0.00  0.00    +0.000 C 
ATOM     17  C   UNL     1       1.679   5.151  20.595  0.00  0.00    +0.000 C 
ATOM     18  C   UNL     1       1.053   3.802  20.464  0.00  0.00    +0.000 C 
ATOM     19  C   UNL     1       1.419   2.784  21.504  0.00  0.00    +0.000 C 
ENDBRANCH  15  16
ENDBRANCH   3  15
TORSDOF 10
ENDMDL
MODEL 6
REMARK VINA RESULT:      -5.4      2.109      6.118
REMARK  Name = 
REMARK  14 active torsions:
REMARK  status: ('A' for Active; 'I' for Inactive)
REMARK    1  A    between atoms: C_1  and  O_2
REMARK    2  A    between atoms: O_2  and  C_3
REMARK    3  A    between atoms: C_3  and  C_4
REMARK    4  A    between atoms: C_4  and  O_5
REMARK    5  A    between atoms: O_5  and  C_6
REMARK    6  A    between atoms: C_6  and  C_7
REMARK    7  A    between atoms: C_7  and  C_8
REMARK    8  A    between atoms: C_8  and  C_9
REMARK    9  A    between atoms: N_11  and  C_12
REMARK   10  A    between atoms: N_11  and  C_17
REMARK   11  A    between atoms: C_12  and  C_13
REMARK   12  A    between atoms: C_15  and  C_16
REMARK   13  A    between atoms: C_17  and  C_18
REMARK   14  A    between atoms: C_17  and  C_19
REMARK                            x       y       z     vdW  Elec       q    Type
REMARK                         _______ _______ _______ _____ _____    ______ ____
ROOT
ATOM      1  C   UNL     1       4.347   3.533  18.978  0.00  0.00    +0.000 C 
ATOM      2  O   UNL     1       4.717   2.768  19.851  0.00  0.00    +0.000 OA
ATOM      3  N   UNL     1       3.004   3.949  18.858  0.00  0.00    +0.000 N 
ENDROOT
BRANCH   3   4
ATOM      4  C   UNL     1       1.991   3.318  19.739  0.00  0.00    +0.000 C 
ATOM      5  C   UNL     1       1.443   4.300  20.779  0.00  0.00    +0.000 C 
ATOM      6  C   UNL     1       0.843   2.648  18.973  0.00  0.00    +0.000 C 
ENDBRANCH   3   4
BRANCH   1   7
ATOM      7  C   UNL     1       5.333   4.036  17.951  0.00  0.00    +0.000 C 
BRANCH   7   8
ATOM      8  C   UNL     1       6.364   5.040  18.458  0.00  0.00    +0.000 C 
BRANCH   8   9
ATOM      9  C   UNL     1       7.209   5.505  17.269  0.00  0.00    +0.000 C 
BRANCH   9  10
ATOM     10  O   UNL     1       6.485   6.446  16.482  0.00  0.00    +0.000 OA
BRANCH  10  11
ATOM     11  C   UNL     1       6.015   5.836  15.276  0.00  0.00    +0.000 C 
BRANCH  11  12
ATOM     12  C   UNL     1       7.039   4.819  14.789  0.00  0.00    +0.000 C 
BRANCH  12  14
ATOM     13  C   UNL     1       5.581   3.787  13.262  0.00  0.00    +0.000 C 
ATOM     14  O   UNL     1       6.376   3.607  14.428  0.00  0.00    +0.000 OA
ENDBRANCH  12  14
ENDBRANCH  11  12
ENDBRANCH  10  11
ENDBRANCH   9  10
ENDBRANCH   8   9
ENDBRANCH   7   8
ENDBRANCH   1   7
BRANCH   3  15
ATOM     15  C   UNL     1       2.502   4.923  17.843  0.00  0.00    +0.000 C 
BRANCH  15  16
ATOM     16  C   UNL     1       2.554   6.319  18.383  0.00  0.00    +0.000 C 
ATOM     17  C   UNL     1       3.523   7.266  17.714  0.00  0.00    +0.000 C 
ATOM     18  C   UNL     1       2.089   7.660  17.851  0.00  0.00    +0.000 C 
ATOM     19  C   UNL     1       1.774   8.720  18.866  0.00  0.00    +0.000 C 
ENDBRANCH  15  16
ENDBRANCH   3  15
TORSDOF 10
ENDMDL
MODEL 7
REMARK VINA RESULT:      -5.4      1.205      2.330
REMARK  Name = 
REMARK  14 active torsions:
REMARK  status: ('A' for Active; 'I' for Inactive)
REMARK    1  A    between atoms: C_1  and  O_2
REMARK    2  A    between atoms: O_2  and  C_3
REMARK    3  A    between atoms: C_3  and  C_4
REMARK    4  A    between atoms: C_4  and  O_5
REMARK    5  A    between atoms: O_5  and  C_6
REMARK    6  A    between atoms: C_6  and  C_7
REMARK    7  A    between atoms: C_7  and  C_8
REMARK    8  A    between atoms: C_8  and  C_9
REMARK    9  A    between atoms: N_11  and  C_12
REMARK   10  A    between atoms: N_11  and  C_17
REMARK   11  A    between atoms: C_12  and  C_13
REMARK   12  A    between atoms: C_15  and  C_16
REMARK   13  A    between atoms: C_17  and  C_18
REMARK   14  A    between atoms: C_17  and  C_19
REMARK                            x       y       z     vdW  Elec       q    Type
REMARK                         _______ _______ _______ _____ _____    ______ ____
ROOT
ATOM      1  C   UNL     1       5.237   5.610  18.728  0.00  0.00    +0.000 C 
ATOM      2  O   UNL     1       5.822   5.497  19.792  0.00  0.00    +0.000 OA
ATOM      3  N   UNL     1       5.910   5.919  17.526  0.00  0.00    +0.000 N 
ENDROOT
BRANCH   3   4
ATOM      4  C   UNL     1       7.352   6.257  17.595  0.00  0.00    +0.000 C 
ATOM      5  C   UNL     1       7.586   7.770  17.645  0.00  0.00    +0.000 C 
ATOM      6  C   UNL     1       8.092   5.559  18.743  0.00  0.00    +0.000 C 
ENDBRANCH   3   4
BRANCH   1   7
ATOM      7  C   UNL     1       3.736   5.459  18.675  0.00  0.00    +0.000 C 
BRANCH   7   8
ATOM      8  C   UNL     1       3.067   5.020  19.974  0.00  0.00    +0.000 C 
BRANCH   8   9
ATOM      9  C   UNL     1       1.555   5.197  19.821  0.00  0.00    +0.000 C 
BRANCH   9  10
ATOM     10  O   UNL     1       0.863   4.092  20.397  0.00  0.00    +0.000 OA
BRANCH  10  11
ATOM     11  C   UNL     1       1.510   2.862  20.058  0.00  0.00    +0.000 C 
BRANCH  11  12
ATOM     12  C   UNL     1       0.925   2.322  18.759  0.00  0.00    +0.000 C 
BRANCH  12  14
ATOM     13  C   UNL     1       3.097   1.888  17.972  0.00  0.00    +0.000 C 
ATOM     14  O   UNL     1       1.855   2.524  17.694  0.00  0.00    +0.000 OA
ENDBRANCH  12  14
ENDBRANCH  11  12
ENDBRANCH  10  11
ENDBRANCH   9  10
ENDBRANCH   8   9
ENDBRANCH   7   8
ENDBRANCH   1   7
BRANCH   3  15
ATOM     15  C   UNL     1       5.256   6.019  16.187  0.00  0.00    +0.000 C 
BRANCH  15  16
ATOM     16  C   UNL     1       5.961   5.149  15.192  0.00  0.00    +0.000 C 
ATOM     17  C   UNL     1       6.030   3.675  15.514  0.00  0.00    +0.000 C 
ATOM     18  C   UNL     1       5.487   4.113  14.194  0.00  0.00    +0.000 C 
ATOM     19  C   UNL     1       6.357   3.878  12.994  0.00  0.00    +0.000 C 
ENDBRANCH  15  16
ENDBRANCH   3  15
TORSDOF 10
ENDMDL
MODEL 8
REMARK VINA RESULT:      -5.4      3.377      6.047
REMARK  Name = 
REMARK  14 active torsions:
REMARK  status: ('A' for Active; 'I' for Inactive)
REMARK    1  A    between atoms: C_1  and  O_2
REMARK    2  A    between atoms: O_2  and  C_3
REMARK    3  A    between atoms: C_3  and  C_4
REMARK    4  A    between atoms: C_4  and  O_5
REMARK    5  A    between atoms: O_5  and  C_6
REMARK    6  A    between atoms: C_6  and  C_7
REMARK    7  A    between atoms: C_7  and  C_8
REMARK    8  A    between atoms: C_8  and  C_9
REMARK    9  A    between atoms: N_11  and  C_12
REMARK   10  A    between atoms: N_11  and  C_17
REMARK   11  A    between atoms: C_12  and  C_13
REMARK   12  A    between atoms: C_15  and  C_16
REMARK   13  A    between atoms: C_17  and  C_18
REMARK   14  A    between atoms: C_17  and  C_19
REMARK                            x       y       z     vdW  Elec       q    Type
REMARK                         _______ _______ _______ _____ _____    ______ ____
ROOT
ATOM      1  C   UNL     1       3.469   6.912  17.813  0.00  0.00    +0.000 C 
ATOM      2  O   UNL     1       4.519   7.507  17.650  0.00  0.00    +0.000 OA
ATOM      3  N   UNL     1       3.408   5.507  17.939  0.00  0.00    +0.000 N 
ENDROOT
BRANCH   3   4
ATOM      4  C   UNL     1       4.651   4.728  17.721  0.00  0.00    +0.000 C 
ATOM      5  C   UNL     1       5.479   4.597  19.003  0.00  0.00    +0.000 C 
ATOM      6  C   UNL     1       4.410   3.349  17.093  0.00  0.00    +0.000 C 
ENDBRANCH   3   4
BRANCH   1   7
ATOM      7  C   UNL     1       2.167   7.676  17.845  0.00  0.00    +0.000 C 
BRANCH   7   8
ATOM      8  C   UNL     1       2.288   9.183  18.052  0.00  0.00    +0.000 C 
BRANCH   8   9
ATOM      9  C   UNL     1       0.883   9.758  18.241  0.00  0.00    +0.000 C 
BRANCH   9  10
ATOM     10  O   UNL     1       0.866  10.692  19.316  0.00  0.00    +0.000 OA
BRANCH  10  11
ATOM     11  C   UNL     1       0.013  10.231  20.368  0.00  0.00    +0.000 C 
BRANCH  11  12
ATOM     12  C   UNL     1       0.862   9.795  21.556  0.00  0.00    +0.000 C 
BRANCH  12  14
ATOM     13  C   UNL     1      -0.828  10.190  23.141  0.00  0.00    +0.000 C 
ATOM     14  O   UNL     1       0.483  10.540  22.714  0.00  0.00    +0.000 OA
ENDBRANCH  12  14
ENDBRANCH  11  12
ENDBRANCH  10  11
ENDBRANCH   9  10
ENDBRANCH   8   9
ENDBRANCH   7   8
ENDBRANCH   1   7
BRANCH   3  15
ATOM     15  C   UNL     1       2.159   4.728  18.192  0.00  0.00    +0.000 C 
BRANCH  15  16
ATOM     16  C   UNL     1       2.142   4.202  19.594  0.00  0.00    +0.000 C 
ATOM     17  C   UNL     1       1.370   5.013  20.609  0.00  0.00    +0.000 C 
ATOM     18  C   UNL     1       1.072   3.558  20.452  0.00  0.00    +0.000 C 
ATOM     19  C   UNL     1       1.539   2.651  21.552  0.00  0.00    +0.000 C 
ENDBRANCH  15  16
ENDBRANCH   3  15
TORSDOF 10
ENDMDL
MODEL 9
REMARK VINA RESULT:      -5.3      1.253      1.824
REMARK  Name = 
REMARK  14 active torsions:
REMARK  status: ('A' for Active; 'I' for Inactive)
REMARK    1  A    between atoms: C_1  and  O_2
REMARK    2  A    between atoms: O_2  and  C_3
REMARK    3  A    between atoms: C_3  and  C_4
REMARK    4  A    between atoms: C_4  and  O_5
REMARK    5  A    between atoms: O_5  and  C_6
REMARK    6  A    between atoms: C_6  and  C_7
REMARK    7  A    between atoms: C_7  and  C_8
REMARK    8  A    between atoms: C_8  and  C_9
REMARK    9  A    between atoms: N_11  and  C_12
REMARK   10  A    between atoms: N_11  and  C_17
REMARK   11  A    between atoms: C_12  and  C_13
REMARK   12  A    between atoms: C_15  and  C_16
REMARK   13  A    between atoms: C_17  and  C_18
REMARK   14  A    between atoms: C_17  and  C_19
REMARK                            x       y       z     vdW  Elec       q    Type
REMARK                         _______ _______ _______ _____ _____    ______ ____
ROOT
ATOM      1  C   UNL     1       4.872   4.600  17.927  0.00  0.00    +0.000 C 
ATOM      2  O   UNL     1       4.514   5.455  18.718  0.00  0.00    +0.000 OA
ATOM      3  N   UNL     1       5.785   4.870  16.884  0.00  0.00    +0.000 N 
ENDROOT
BRANCH   3   4
ATOM      4  C   UNL     1       6.205   6.275  16.665  0.00  0.00    +0.000 C 
ATOM      5  C   UNL     1       5.008   7.228  16.590  0.00  0.00    +0.000 C 
ATOM      6  C   UNL     1       7.229   6.777  17.692  0.00  0.00    +0.000 C 
ENDBRANCH   3   4
BRANCH   1   7
ATOM      7  C   UNL     1       4.303   3.205  18.019  0.00  0.00    +0.000 C 
BRANCH   7   8
ATOM      8  C   UNL     1       3.063   2.936  17.170  0.00  0.00    +0.000 C 
BRANCH   8   9
ATOM      9  C   UNL     1       2.066   2.138  18.012  0.00  0.00    +0.000 C 
BRANCH   9  10
ATOM     10  O   UNL     1       0.903   2.915  18.278  0.00  0.00    +0.000 OA
BRANCH  10  11
ATOM     11  C   UNL     1       0.688   3.033  19.687  0.00  0.00    +0.000 C 
BRANCH  11  12
ATOM     12  C   UNL     1       1.420   4.261  20.211  0.00  0.00    +0.000 C 
BRANCH  12  14
ATOM     13  C   UNL     1       2.626   2.762  21.562  0.00  0.00    +0.000 C 
ATOM     14  O   UNL     1       1.920   3.997  21.522  0.00  0.00    +0.000 OA
ENDBRANCH  12  14
ENDBRANCH  11  12
ENDBRANCH  10  11
ENDBRANCH   9  10
ENDBRANCH   8   9
ENDBRANCH   7   8
ENDBRANCH   1   7
BRANCH   3  15
ATOM     15  C   UNL     1       6.298   3.853  15.919  0.00  0.00    +0.000 C 
BRANCH  15  16
ATOM     16  C   UNL     1       5.817   4.154  14.532  0.00  0.00    +0.000 C 
ATOM     17  C   UNL     1       6.849   4.672  13.558  0.00  0.00    +0.000 C 
ATOM     18  C   UNL     1       6.025   3.484  13.189  0.00  0.00    +0.000 C 
ATOM     19  C   UNL     1       4.960   3.696  12.153  0.00  0.00    +0.000 C 
ENDBRANCH  15  16
ENDBRANCH   3  15
TORSDOF 10
ENDMDL
