MODEL 1
REMARK VINA RESULT:      -7.4      0.000      0.000
REMARK  Name = 
REMARK  5 active torsions:
REMARK  status: ('A' for Active; 'I' for Inactive)
REMARK    1  A    between atoms: C_1  and  C_2
REMARK    2  A    between atoms: N_4  and  C_5
REMARK    3  A    between atoms: C_5  and  C_6
REMARK    4  A    between atoms: C_8  and  C_9
REMARK    5  A    between atoms: C_18  and  C_19
REMARK                            x       y       z     vdW  Elec       q    Type
REMARK                         _______ _______ _______ _____ _____    ______ ____
ROOT
ATOM      1  C   UNL     1       6.140   5.297  18.022  0.00  0.00    +0.000 A 
ATOM      2  N   UNL     1       5.793   5.350  16.755  0.00  0.00    +0.000 NA
ATOM      3  C   UNL     1       6.874   4.777  16.124  0.00  0.00    +0.000 A 
ATOM      4  N   UNL     1       7.859   4.404  16.960  0.00  0.00    +0.000 NA
ATOM      5  O   UNL     1       7.373   4.752  18.221  0.00  0.00    +0.000 OA
ENDROOT
BRANCH   3   6
ATOM      6  C   UNL     1       6.891   4.559  14.688  0.00  0.00    +0.000 A 
ATOM      7  C   UNL     1       6.024   3.666  14.052  0.00  0.00    +0.000 A 
ATOM      8  C   UNL     1       6.058   3.534  12.664  0.00  0.00    +0.000 A 
ATOM      9  C   UNL     1       6.968   4.298  11.952  0.00  0.00    +0.000 A 
ATOM     10  N   UNL     1       7.829   5.164  12.526  0.00  0.00    +0.000 NA
ATOM     11  C   UNL     1       7.768   5.274  13.878  0.00  0.00    +0.000 A 
ENDBRANCH   3   6
BRANCH   1  12
ATOM     12  C   UNL     1       5.350   5.680  19.230  0.00  0.00    +0.000 C 
BRANCH  12  16
ATOM     13  C   UNL     1       1.263   4.367  20.515  0.00  0.00    +0.000 C 
ATOM     14  C   UNL     1       1.759   4.357  19.069  0.00  0.00    +0.000 C 
ATOM     15  C   UNL     1       2.959   5.303  18.840  0.00  0.00    +0.000 C 
ATOM     16  N   UNL     1       4.185   4.812  19.511  0.00  0.00    +0.000 NA
ATOM     17  C   UNL     1       4.458   3.444  19.012  0.00  0.00    +0.000 C 
ATOM     18  C   UNL     1       3.257   2.498  19.228  0.00  0.00    +0.000 C 
ATOM     19  C   UNL     1       3.521   1.137  18.594  0.00  0.00    +0.000 C 
ATOM     20  O   UNL     1       2.064   3.024  18.626  0.00  0.00    +0.000 OA
ENDBRANCH  12  16
ENDBRANCH   1  12
TORSDOF 3
ENDMDL
MODEL 2
REMARK VINA RESULT:      -7.3      3.917      8.052
REMARK  Name = 
REMARK  5 active torsions:
REMARK  status: ('A' for Active; 'I' for Inactive)
REMARK    1  A    between atoms: C_1  and  C_2
REMARK    2  A    between atoms: N_4  and  C_5
REMARK    3  A    between atoms: C_5  and  C_6
REMARK    4  A    between atoms: C_8  and  C_9
REMARK    5  A    between atoms: C_18  and  C_19
REMARK                            x       y       z     vdW  Elec       q    Type
REMARK                         _______ _______ _______ _____ _____    ______ ____
ROOT
ATOM      1  C   UNL     1       2.790   7.003  18.657  0.00  0.00    +0.000 A 
ATOM      2  N   UNL     1       2.280   7.283  19.836  0.00  0.00    +0.000 NA
ATOM      3  C   UNL     1       1.679   8.502  19.621  0.00  0.00    +0.000 A 
ATOM      4  N   UNL     1       1.827   8.970  18.369  0.00  0.00    +0.000 NA
ATOM      5  O   UNL     1       2.567   7.976  17.728  0.00  0.00    +0.000 OA
ENDROOT
BRANCH   3   6
ATOM      6  C   UNL     1       0.914   9.169  20.660  0.00  0.00    +0.000 A 
ATOM      7  C   UNL     1       0.118   8.471  21.574  0.00  0.00    +0.000 A 
ATOM      8  C   UNL     1      -0.557   9.164  22.577  0.00  0.00    +0.000 A 
ATOM      9  C   UNL     1      -0.421  10.542  22.633  0.00  0.00    +0.000 A 
ATOM     10  N   UNL     1       0.328  11.255  21.767  0.00  0.00    +0.000 NA
ATOM     11  C   UNL     1       0.977  10.552  20.803  0.00  0.00    +0.000 A 
ENDBRANCH   3   6
BRANCH   1  12
ATOM     12  C   UNL     1       3.494   5.766  18.205  0.00  0.00    +0.000 C 
BRANCH  12  16
ATOM     13  C   UNL     1       7.762   7.114  17.995  0.00  0.00    +0.000 C 
ATOM     14  C   UNL     1       7.321   5.653  18.096  0.00  0.00    +0.000 C 
ATOM     15  C   UNL     1       5.889   5.497  18.655  0.00  0.00    +0.000 C 
ATOM     16  N   UNL     1       4.867   5.983  17.700  0.00  0.00    +0.000 NA
ATOM     17  C   UNL     1       5.047   5.245  16.428  0.00  0.00    +0.000 C 
ATOM     18  C   UNL     1       6.481   5.388  15.872  0.00  0.00    +0.000 C 
ATOM     19  C   UNL     1       6.669   4.518  14.634  0.00  0.00    +0.000 C 
ATOM     20  O   UNL     1       7.459   4.972  16.837  0.00  0.00    +0.000 OA
ENDBRANCH  12  16
ENDBRANCH   1  12
TORSDOF 3
ENDMDL
MODEL 3
REMARK VINA RESULT:      -7.2      3.228      7.382
REMARK  Name = 
REMARK  5 active torsions:
REMARK  status: ('A' for Active; 'I' for Inactive)
REMARK    1  A    between atoms: C_1  and  C_2
REMARK    2  A    between atoms: N_4  and  C_5
REMARK    3  A    between atoms: C_5  and  C_6
REMARK    4  A    between atoms: C_8  and  C_9
REMARK    5  A    between atoms: C_18  and  C_19
REMARK                            x       y       z     vdW  Elec       q    Type
REMARK                         _______ _______ _______ _____ _____    ______ ____
ROOT
ATOM      1  C   UNL     1       2.986   5.247  19.256  0.00  0.00    +0.000 A 
ATOM      2  N   UNL     1       2.816   6.540  19.089  0.00  0.00    +0.000 NA
ATOM      3  C   UNL     1       1.969   6.867  20.123  0.00  0.00    +0.000 A 
ATOM      4  N   UNL     1       1.611   5.819  20.887  0.00  0.00    +0.000 NA
ATOM      5  O   UNL     1       2.284   4.742  20.309  0.00  0.00    +0.000 OA
ENDROOT
BRANCH   3   6
ATOM      6  C   UNL     1       1.563   8.239  20.372  0.00  0.00    +0.000 A 
ATOM      7  C   UNL     1       1.304   9.145  19.339  0.00  0.00    +0.000 A 
ATOM      8  C   UNL     1       0.874  10.437  19.641  0.00  0.00    +0.000 A 
ATOM      9  C   UNL     1       0.722  10.787  20.972  0.00  0.00    +0.000 A 
ATOM     10  N   UNL     1       0.970   9.947  21.999  0.00  0.00    +0.000 NA
ATOM     11  C   UNL     1       1.383   8.696  21.674  0.00  0.00    +0.000 A 
ENDBRANCH   3   6
BRANCH   1  12
ATOM     12  C   UNL     1       3.876   4.310  18.506  0.00  0.00    +0.000 C 
BRANCH  12  16
ATOM     13  C   UNL     1       7.378   6.949  17.584  0.00  0.00    +0.000 C 
ATOM     14  C   UNL     1       7.439   5.423  17.647  0.00  0.00    +0.000 C 
ATOM     15  C   UNL     1       6.276   4.809  18.458  0.00  0.00    +0.000 C 
ATOM     16  N   UNL     1       4.977   4.962  17.764  0.00  0.00    +0.000 NA
ATOM     17  C   UNL     1       5.103   4.342  16.424  0.00  0.00    +0.000 C 
ATOM     18  C   UNL     1       6.273   4.944  15.614  0.00  0.00    +0.000 C 
ATOM     19  C   UNL     1       6.453   4.201  14.295  0.00  0.00    +0.000 C 
ATOM     20  O   UNL     1       7.511   4.844  16.333  0.00  0.00    +0.000 OA
ENDBRANCH  12  16
ENDBRANCH   1  12
TORSDOF 3
ENDMDL
MODEL 4
REMARK VINA RESULT:      -7.2      1.060      1.136
REMARK  Name = 
REMARK  5 active torsions:
REMARK  status: ('A' for Active; 'I' for Inactive)
REMARK    1  A    between atoms: C_1  and  C_2
REMARK    2  A    between atoms: N_4  and  C_5
REMARK    3  A    between atoms: C_5  and  C_6
REMARK    4  A    between atoms: C_8  and  C_9
REMARK    5  A    between atoms: C_18  and  C_19
REMARK                            x       y       z     vdW  Elec       q    Type
REMARK                         _______ _______ _______ _____ _____    ______ ____
ROOT
ATOM      1  C   UNL     1       6.310   5.115  17.865  0.00  0.00    +0.000 A 
ATOM      2  N   UNL     1       6.057   4.433  16.770  0.00  0.00    +0.000 NA
ATOM      3  C   UNL     1       6.722   5.156  15.806  0.00  0.00    +0.000 A 
ATOM      4  N   UNL     1       7.343   6.252  16.278  0.00  0.00    +0.000 NA
ATOM      5  O   UNL     1       7.067   6.227  17.646  0.00  0.00    +0.000 OA
ENDROOT
BRANCH   3   6
ATOM      6  C   UNL     1       6.774   4.715  14.423  0.00  0.00    +0.000 A 
ATOM      7  C   UNL     1       5.920   3.733  13.914  0.00  0.00    +0.000 A 
ATOM      8  C   UNL     1       5.988   3.385  12.565  0.00  0.00    +0.000 A 
ATOM      9  C   UNL     1       6.918   4.028  11.765  0.00  0.00    +0.000 A 
ATOM     10  N   UNL     1       7.768   4.973  12.217  0.00  0.00    +0.000 NA
ATOM     11  C   UNL     1       7.675   5.294  13.533  0.00  0.00    +0.000 A 
ENDBRANCH   3   6
BRANCH   1  12
ATOM     12  C   UNL     1       5.945   4.796  19.278  0.00  0.00    +0.000 C 
BRANCH  12  16
ATOM     13  C   UNL     1       1.871   6.289  20.400  0.00  0.00    +0.000 C 
ATOM     14  C   UNL     1       2.262   5.813  19.001  0.00  0.00    +0.000 C 
ATOM     15  C   UNL     1       3.788   5.842  18.762  0.00  0.00    +0.000 C 
ATOM     16  N   UNL     1       4.493   4.815  19.562  0.00  0.00    +0.000 NA
ATOM     17  C   UNL     1       3.907   3.497  19.226  0.00  0.00    +0.000 C 
ATOM     18  C   UNL     1       2.379   3.466  19.452  0.00  0.00    +0.000 C 
ATOM     19  C   UNL     1       1.791   2.142  18.979  0.00  0.00    +0.000 C 
ATOM     20  O   UNL     1       1.722   4.511  18.717  0.00  0.00    +0.000 OA
ENDBRANCH  12  16
ENDBRANCH   1  12
TORSDOF 3
ENDMDL
MODEL 5
REMARK VINA RESULT:      -7.2      1.161      2.088
REMARK  Name = 
REMARK  5 active torsions:
REMARK  status: ('A' for Active; 'I' for Inactive)
REMARK    1  A    between atoms: C_1  and  C_2
REMARK    2  A    between atoms: N_4  and  C_5
REMARK    3  A    between atoms: C_5  and  C_6
REMARK    4  A    between atoms: C_8  and  C_9
REMARK    5  A    between atoms: C_18  and  C_19
REMARK                            x       y       z     vdW  Elec       q    Type
REMARK                         _______ _______ _______ _____ _____    ______ ____
ROOT
ATOM      1  C   UNL     1       6.046   4.217  18.104  0.00  0.00    +0.000 A 
ATOM      2  N   UNL     1       5.649   4.154  16.852  0.00  0.00    +0.000 NA
ATOM      3  C   UNL     1       6.804   4.434  16.157  0.00  0.00    +0.000 A 
ATOM      4  N   UNL     1       7.867   4.682  16.942  0.00  0.00    +0.000 NA
ATOM      5  O   UNL     1       7.364   4.540  18.236  0.00  0.00    +0.000 OA
ENDROOT
BRANCH   3   6
ATOM      6  C   UNL     1       6.847   4.402  14.705  0.00  0.00    +0.000 A 
ATOM      7  C   UNL     1       6.028   3.559  13.948  0.00  0.00    +0.000 A 
ATOM      8  C   UNL     1       6.084   3.606  12.555  0.00  0.00    +0.000 A 
ATOM      9  C   UNL     1       6.965   4.494  11.960  0.00  0.00    +0.000 A 
ATOM     10  N   UNL     1       7.779   5.317  12.653  0.00  0.00    +0.000 NA
ATOM     11  C   UNL     1       7.699   5.251  14.007  0.00  0.00    +0.000 A 
ENDBRANCH   3   6
BRANCH   1  12
ATOM     12  C   UNL     1       5.280   3.919  19.350  0.00  0.00    +0.000 C 
BRANCH  12  16
ATOM     13  C   UNL     1       0.931   3.180  18.562  0.00  0.00    +0.000 C 
ATOM     14  C   UNL     1       1.534   3.389  19.951  0.00  0.00    +0.000 C 
ATOM     15  C   UNL     1       3.054   3.115  19.993  0.00  0.00    +0.000 C 
ATOM     16  N   UNL     1       3.820   4.141  19.249  0.00  0.00    +0.000 NA
ATOM     17  C   UNL     1       3.482   5.464  19.823  0.00  0.00    +0.000 C 
ATOM     18  C   UNL     1       1.962   5.737  19.796  0.00  0.00    +0.000 C 
ATOM     19  C   UNL     1       1.637   7.047  20.505  0.00  0.00    +0.000 C 
ATOM     20  O   UNL     1       1.233   4.697  20.466  0.00  0.00    +0.000 OA
ENDBRANCH  12  16
ENDBRANCH   1  12
TORSDOF 3
ENDMDL
MODEL 6
REMARK VINA RESULT:      -7.2      3.134      7.250
REMARK  Name = 
REMARK  5 active torsions:
REMARK  status: ('A' for Active; 'I' for Inactive)
REMARK    1  A    between atoms: C_1  and  C_2
REMARK    2  A    between atoms: N_4  and  C_5
REMARK    3  A    between atoms: C_5  and  C_6
REMARK    4  A    between atoms: C_8  and  C_9
REMARK    5  A    between atoms: C_18  and  C_19
REMARK                            x       y       z     vdW  Elec       q    Type
REMARK                         _______ _______ _______ _____ _____    ______ ____
ROOT
ATOM      1  C   UNL     1       3.080   5.092  19.301  0.00  0.00    +0.000 A 
ATOM      2  N   UNL     1       2.880   6.375  19.096  0.00  0.00    +0.000 NA
ATOM      3  C   UNL     1       1.991   6.704  20.094  0.00  0.00    +0.000 A 
ATOM      4  N   UNL     1       1.636   5.665  20.872  0.00  0.00    +0.000 NA
ATOM      5  O   UNL     1       2.357   4.593  20.344  0.00  0.00    +0.000 OA
ENDROOT
BRANCH   3   6
ATOM      6  C   UNL     1       1.540   8.070  20.295  0.00  0.00    +0.000 A 
ATOM      7  C   UNL     1       1.185   8.568  21.552  0.00  0.00    +0.000 A 
ATOM      8  C   UNL     1       0.802   9.902  21.687  0.00  0.00    +0.000 A 
ATOM      9  C   UNL     1       0.780  10.699  20.555  0.00  0.00    +0.000 A 
ATOM     10  N   UNL     1       1.106  10.257  19.322  0.00  0.00    +0.000 NA
ATOM     11  C   UNL     1       1.478   8.955  19.223  0.00  0.00    +0.000 A 
ENDBRANCH   3   6
BRANCH   1  12
ATOM     12  C   UNL     1       4.019   4.163  18.605  0.00  0.00    +0.000 C 
BRANCH  12  16
ATOM     13  C   UNL     1       7.368   6.887  17.402  0.00  0.00    +0.000 C 
ATOM     14  C   UNL     1       7.485   5.366  17.503  0.00  0.00    +0.000 C 
ATOM     15  C   UNL     1       6.394   4.738  18.399  0.00  0.00    +0.000 C 
ATOM     16  N   UNL     1       5.052   4.828  17.780  0.00  0.00    +0.000 NA
ATOM     17  C   UNL     1       5.120   4.173  16.453  0.00  0.00    +0.000 C 
ATOM     18  C   UNL     1       6.218   4.789  15.558  0.00  0.00    +0.000 C 
ATOM     19  C   UNL     1       6.346   4.013  14.252  0.00  0.00    +0.000 C 
ATOM     20  O   UNL     1       7.500   4.750  16.204  0.00  0.00    +0.000 OA
ENDBRANCH  12  16
ENDBRANCH   1  12
TORSDOF 3
ENDMDL
MODEL 7
REMARK VINA RESULT:      -7.2      1.149      1.794
REMARK  Name = 
REMARK  5 active torsions:
REMARK  status: ('A' for Active; 'I' for Inactive)
REMARK    1  A    between atoms: C_1  and  C_2
REMARK    2  A    between atoms: N_4  and  C_5
REMARK    3  A    between atoms: C_5  and  C_6
REMARK    4  A    between atoms: C_8  and  C_9
REMARK    5  A    between atoms: C_18  and  C_19
REMARK                            x       y       z     vdW  Elec       q    Type
REMARK                         _______ _______ _______ _____ _____    ______ ____
ROOT
ATOM      1  C   UNL     1       6.083   4.915  18.044  0.00  0.00    +0.000 A 
ATOM      2  N   UNL     1       5.750   5.059  16.780  0.00  0.00    +0.000 NA
ATOM      3  C   UNL     1       6.892   4.665  16.121  0.00  0.00    +0.000 A 
ATOM      4  N   UNL     1       7.900   4.313  16.940  0.00  0.00    +0.000 NA
ATOM      5  O   UNL     1       7.364   4.481  18.217  0.00  0.00    +0.000 OA
ENDROOT
BRANCH   3   6
ATOM      6  C   UNL     1       6.951   4.596  14.672  0.00  0.00    +0.000 A 
ATOM      7  C   UNL     1       7.818   5.391  13.916  0.00  0.00    +0.000 A 
ATOM      8  C   UNL     1       7.860   5.246  12.529  0.00  0.00    +0.000 A 
ATOM      9  C   UNL     1       7.026   4.312  11.938  0.00  0.00    +0.000 A 
ATOM     10  N   UNL     1       6.168   3.533  12.628  0.00  0.00    +0.000 NA
ATOM     11  C   UNL     1       6.152   3.693  13.977  0.00  0.00    +0.000 A 
ENDBRANCH   3   6
BRANCH   1  12
ATOM     12  C   UNL     1       5.243   5.092  19.265  0.00  0.00    +0.000 C 
BRANCH  12  16
ATOM     13  C   UNL     1       1.284   4.040  17.447  0.00  0.00    +0.000 C 
ATOM     14  C   UNL     1       2.279   3.020  18.001  0.00  0.00    +0.000 C 
ATOM     15  C   UNL     1       3.719   3.573  18.089  0.00  0.00    +0.000 C 
ATOM     16  N   UNL     1       3.848   4.615  19.133  0.00  0.00    +0.000 NA
ATOM     17  C   UNL     1       3.404   4.027  20.418  0.00  0.00    +0.000 C 
ATOM     18  C   UNL     1       1.969   3.462  20.332  0.00  0.00    +0.000 C 
ATOM     19  C   UNL     1       1.589   2.755  21.628  0.00  0.00    +0.000 C 
ATOM     20  O   UNL     1       1.850   2.501  19.272  0.00  0.00    +0.000 OA
ENDBRANCH  12  16
ENDBRANCH   1  12
TORSDOF 3
ENDMDL
MODEL 8
REMARK VINA RESULT:      -7.1      0.701      1.112
REMARK  Name = 
REMARK  5 active torsions:
REMARK  status: ('A' for Active; 'I' for Inactive)
REMARK    1  A    between atoms: C_1  and  C_2
REMARK    2  A    between atoms: N_4  and  C_5
REMARK    3  A    between atoms: C_5  and  C_6
REMARK    4  A    between atoms: C_8  and  C_9
REMARK    5  A    between atoms: C_18  and  C_19
REMARK                            x       y       z     vdW  Elec       q    Type
REMARK                         _______ _______ _______ _____ _____    ______ ____
ROOT
ATOM      1  C   UNL     1       5.837   5.458  17.862  0.00  0.00    +0.000 A 
ATOM      2  N   UNL     1       5.527   5.440  16.584  0.00  0.00    +0.000 NA
ATOM      3  C   UNL     1       6.674   4.946  16.004  0.00  0.00    +0.000 A 
ATOM      4  N   UNL     1       7.661   4.689  16.881  0.00  0.00    +0.000 NA
ATOM      5  O   UNL     1       7.107   5.032  18.115  0.00  0.00    +0.000 OA
ENDROOT
BRANCH   3   6
ATOM      6  C   UNL     1       6.756   4.687  14.578  0.00  0.00    +0.000 A 
ATOM      7  C   UNL     1       7.690   5.319  13.751  0.00  0.00    +0.000 A 
ATOM      8  C   UNL     1       7.749   4.994  12.396  0.00  0.00    +0.000 A 
ATOM      9  C   UNL     1       6.865   4.047  11.906  0.00  0.00    +0.000 A 
ATOM     10  N   UNL     1       5.942   3.421  12.666  0.00  0.00    +0.000 NA
ATOM     11  C   UNL     1       5.911   3.756  13.982  0.00  0.00    +0.000 A 
ENDBRANCH   3   6
BRANCH   1  12
ATOM     12  C   UNL     1       4.979   5.807  19.033  0.00  0.00    +0.000 C 
BRANCH  12  16
ATOM     13  C   UNL     1       1.034   4.102  20.305  0.00  0.00    +0.000 C 
ATOM     14  C   UNL     1       1.562   4.082  18.870  0.00  0.00    +0.000 C 
ATOM     15  C   UNL     1       2.655   5.145  18.618  0.00  0.00    +0.000 C 
ATOM     16  N   UNL     1       3.911   4.827  19.333  0.00  0.00    +0.000 NA
ATOM     17  C   UNL     1       4.347   3.477  18.906  0.00  0.00    +0.000 C 
ATOM     18  C   UNL     1       3.254   2.413  19.144  0.00  0.00    +0.000 C 
ATOM     19  C   UNL     1       3.683   1.063  18.581  0.00  0.00    +0.000 C 
ATOM     20  O   UNL     1       2.024   2.773  18.496  0.00  0.00    +0.000 OA
ENDBRANCH  12  16
ENDBRANCH   1  12
TORSDOF 3
ENDMDL
MODEL 9
REMARK VINA RESULT:      -7.0      4.419      7.875
REMARK  Name = 
REMARK  5 active torsions:
REMARK  status: ('A' for Active; 'I' for Inactive)
REMARK    1  A    between atoms: C_1  and  C_2
REMARK    2  A    between atoms: N_4  and  C_5
REMARK    3  A    between atoms: C_5  and  C_6
REMARK    4  A    between atoms: C_8  and  C_9
REMARK    5  A    between atoms: C_18  and  C_19
REMARK                            x       y       z     vdW  Elec       q    Type
REMARK                         _______ _______ _______ _____ _____    ______ ____
ROOT
ATOM      1  C   UNL     1       2.412   7.539  18.801  0.00  0.00    +0.000 A 
ATOM      2  N   UNL     1       2.008   7.805  20.023  0.00  0.00    +0.000 NA
ATOM      3  C   UNL     1       1.284   8.964  19.855  0.00  0.00    +0.000 A 
ATOM      4  N   UNL     1       1.257   9.411  18.587  0.00  0.00    +0.000 NA
ATOM      5  O   UNL     1       2.009   8.466  17.886  0.00  0.00    +0.000 OA
ENDROOT
BRANCH   3   6
ATOM      6  C   UNL     1       0.579   9.590  20.960  0.00  0.00    +0.000 A 
ATOM      7  C   UNL     1      -0.434  10.534  20.767  0.00  0.00    +0.000 A 
ATOM      8  C   UNL     1      -1.104  11.066  21.868  0.00  0.00    +0.000 A 
ATOM      9  C   UNL     1      -0.735  10.641  23.134  0.00  0.00    +0.000 A 
ATOM     10  N   UNL     1       0.242   9.741  23.365  0.00  0.00    +0.000 NA
ATOM     11  C   UNL     1       0.874   9.237  22.273  0.00  0.00    +0.000 A 
ENDBRANCH   3   6
BRANCH   1  12
ATOM     12  C   UNL     1       3.168   6.355  18.296  0.00  0.00    +0.000 C 
BRANCH  12  16
ATOM     13  C   UNL     1       0.465   2.907  19.239  0.00  0.00    +0.000 C 
ATOM     14  C   UNL     1       1.640   2.842  18.263  0.00  0.00    +0.000 C 
ATOM     15  C   UNL     1       2.068   4.234  17.746  0.00  0.00    +0.000 C 
ATOM     16  N   UNL     1       2.694   5.051  18.810  0.00  0.00    +0.000 NA
ATOM     17  C   UNL     1       3.842   4.287  19.352  0.00  0.00    +0.000 C 
ATOM     18  C   UNL     1       3.421   2.890  19.859  0.00  0.00    +0.000 C 
ATOM     19  C   UNL     1       4.641   2.085  20.293  0.00  0.00    +0.000 C 
ATOM     20  O   UNL     1       2.759   2.139  18.831  0.00  0.00    +0.000 OA
ENDBRANCH  12  16
ENDBRANCH   1  12
TORSDOF 3
ENDMDL
