MODEL 1
REMARK VINA RESULT:      -8.7      0.000      0.000
REMARK  Name = 
REMARK  8 active torsions:
REMARK  status: ('A' for Active; 'I' for Inactive)
REMARK    1  A    between atoms: O_1  and  C_2
REMARK    2  A    between atoms: C_2  and  C_3
REMARK    3  A    between atoms: C_2  and  C_16
REMARK    4  A    between atoms: C_2  and  C_22
REMARK    5  A    between atoms: C_3  and  S_4
REMARK    6  A    between atoms: S_4  and  C_5
REMARK    7  A    between atoms: C_8  and  C_9
REMARK    8  A    between atoms: C_16  and  N_17
REMARK                            x       y       z     vdW  Elec       q    Type
REMARK                         _______ _______ _______ _____ _____    ______ ____
ROOT
ATOM      1  C   UNL     1       5.135   4.693  17.277  0.00  0.00    +0.000 C 
ENDROOT
BRANCH   1   2
ATOM      2  C   UNL     1       3.806   4.039  17.675  0.00  0.00    +0.000 A 
ATOM      3  C   UNL     1       3.713   2.645  17.863  0.00  0.00    +0.000 A 
ATOM      4  C   UNL     1       2.503   2.044  18.224  0.00  0.00    +0.000 A 
ATOM      5  C   UNL     1       1.371   2.828  18.400  0.00  0.00    +0.000 A 
ATOM      6  F   UNL     1       0.215   2.251  18.740  0.00  0.00    +0.000 F 
ATOM      7  C   UNL     1       1.429   4.203  18.241  0.00  0.00    +0.000 A 
ATOM      8  C   UNL     1       2.643   4.795  17.899  0.00  0.00    +0.000 A 
ATOM      9  F   UNL     1       2.686   6.131  17.814  0.00  0.00    +0.000 F 
ENDBRANCH   1   2
BRANCH   1  10
ATOM     10  O   UNL     1       6.100   3.635  17.054  0.00  0.00    +0.000 OA
ATOM     11  H   UNL     1       6.794   3.721  17.733  0.00  0.00    +0.000 HD
ENDBRANCH   1  10
BRANCH   1  12
ATOM     12  C   UNL     1       5.648   5.547  18.481  0.00  0.00    +0.000 C 
BRANCH  12  13
ATOM     13  S   UNL     1       7.484   5.638  18.530  0.00  0.00    +0.000 S 
BRANCH  13  14
ATOM     14  C   UNL     1       7.768   7.295  18.178  0.00  0.00    +0.000 A 
ATOM     15  N   UNL     1       7.335   8.025  17.182  0.00  0.00    +0.000 NA
ATOM     16  N   UNL     1       7.871   9.290  17.347  0.00  0.00    +0.000 NA
ATOM     17  C   UNL     1       8.641   9.288  18.422  0.00  0.00    +0.000 A 
ATOM     18  N   UNL     1       8.549   8.045  18.997  0.00  0.00    +0.000 N 
ATOM     19  H   UNL     1       8.979   7.737  19.854  0.00  0.00    +0.000 HD
BRANCH  17  20
ATOM     20  C   UNL     1       9.453  10.385  18.947  0.00  0.00    +0.000 A 
ATOM     21  C   UNL     1       9.449  10.673  20.312  0.00  0.00    +0.000 A 
ATOM     22  C   UNL     1      10.223  11.725  20.775  0.00  0.00    +0.000 A 
ATOM     23  N   UNL     1      10.985  12.502  19.975  0.00  0.00    +0.000 NA
ATOM     24  C   UNL     1      10.965  12.221  18.658  0.00  0.00    +0.000 A 
ATOM     25  C   UNL     1      10.230  11.188  18.102  0.00  0.00    +0.000 A 
ENDBRANCH  17  20
ENDBRANCH  13  14
ENDBRANCH  12  13
ENDBRANCH   1  12
BRANCH   1  26
ATOM     26  C   UNL     1       5.072   5.540  15.974  0.00  0.00    +0.000 C 
BRANCH  26  27
ATOM     27  N   UNL     1       5.992   5.124  14.933  0.00  0.00    +0.000 N 
ATOM     28  C   UNL     1       7.236   5.611  14.670  0.00  0.00    +0.000 A 
ATOM     29  N   UNL     1       7.704   5.058  13.577  0.00  0.00    +0.000 NA
ATOM     30  C   UNL     1       6.684   4.237  13.190  0.00  0.00    +0.000 A 
ATOM     31  N   UNL     1       5.604   4.264  13.973  0.00  0.00    +0.000 NA
ENDBRANCH  26  27
ENDBRANCH   1  26
TORSDOF 8
ENDMDL
MODEL 2
REMARK VINA RESULT:      -8.6      1.101      1.297
REMARK  Name = 
REMARK  8 active torsions:
REMARK  status: ('A' for Active; 'I' for Inactive)
REMARK    1  A    between atoms: O_1  and  C_2
REMARK    2  A    between atoms: C_2  and  C_3
REMARK    3  A    between atoms: C_2  and  C_16
REMARK    4  A    between atoms: C_2  and  C_22
REMARK    5  A    between atoms: C_3  and  S_4
REMARK    6  A    between atoms: S_4  and  C_5
REMARK    7  A    between atoms: C_8  and  C_9
REMARK    8  A    between atoms: C_16  and  N_17
REMARK                            x       y       z     vdW  Elec       q    Type
REMARK                         _______ _______ _______ _____ _____    ______ ____
ROOT
ATOM      1  C   UNL     1       5.082   4.868  18.011  0.00  0.00    +0.000 C 
ENDROOT
BRANCH   1   2
ATOM      2  C   UNL     1       3.729   4.504  18.634  0.00  0.00    +0.000 A 
ATOM      3  C   UNL     1       3.324   5.063  19.862  0.00  0.00    +0.000 A 
ATOM      4  C   UNL     1       2.091   4.733  20.434  0.00  0.00    +0.000 A 
ATOM      5  C   UNL     1       1.249   3.838  19.786  0.00  0.00    +0.000 A 
ATOM      6  F   UNL     1       0.074   3.520  20.337  0.00  0.00    +0.000 F 
ATOM      7  C   UNL     1       1.608   3.283  18.569  0.00  0.00    +0.000 A 
ATOM      8  C   UNL     1       2.829   3.632  17.998  0.00  0.00    +0.000 A 
ATOM      9  F   UNL     1       3.122   3.130  16.791  0.00  0.00    +0.000 F 
ENDBRANCH   1   2
BRANCH   1  10
ATOM     10  O   UNL     1       5.786   3.632  17.728  0.00  0.00    +0.000 OA
ATOM     11  H   UNL     1       6.537   3.573  18.346  0.00  0.00    +0.000 HD
ENDBRANCH   1  10
BRANCH   1  12
ATOM     12  C   UNL     1       5.922   5.651  19.070  0.00  0.00    +0.000 C 
BRANCH  12  13
ATOM     13  S   UNL     1       7.706   5.711  18.629  0.00  0.00    +0.000 S 
BRANCH  13  14
ATOM     14  C   UNL     1       7.924   7.373  18.250  0.00  0.00    +0.000 A 
ATOM     15  N   UNL     1       7.449   8.072  17.251  0.00  0.00    +0.000 NA
ATOM     16  N   UNL     1       7.940   9.358  17.389  0.00  0.00    +0.000 NA
ATOM     17  C   UNL     1       8.727   9.400  18.452  0.00  0.00    +0.000 A 
ATOM     18  N   UNL     1       8.689   8.162  19.045  0.00  0.00    +0.000 N 
ATOM     19  H   UNL     1       9.145   7.883  19.899  0.00  0.00    +0.000 HD
BRANCH  17  20
ATOM     20  C   UNL     1       9.507  10.533  18.947  0.00  0.00    +0.000 A 
ATOM     21  C   UNL     1       9.553  10.811  20.315  0.00  0.00    +0.000 A 
ATOM     22  C   UNL     1      10.294  11.897  20.749  0.00  0.00    +0.000 A 
ATOM     23  N   UNL     1      10.976  12.718  19.922  0.00  0.00    +0.000 NA
ATOM     24  C   UNL     1      10.908  12.447  18.604  0.00  0.00    +0.000 A 
ATOM     25  C   UNL     1      10.200  11.380  18.075  0.00  0.00    +0.000 A 
ENDBRANCH  17  20
ENDBRANCH  13  14
ENDBRANCH  12  13
ENDBRANCH   1  12
BRANCH   1  26
ATOM     26  C   UNL     1       4.986   5.658  16.675  0.00  0.00    +0.000 C 
BRANCH  26  27
ATOM     27  N   UNL     1       5.704   5.063  15.564  0.00  0.00    +0.000 N 
ATOM     28  C   UNL     1       6.953   5.366  15.115  0.00  0.00    +0.000 A 
ATOM     29  N   UNL     1       7.203   4.692  14.017  0.00  0.00    +0.000 NA
ATOM     30  C   UNL     1       6.047   3.991  13.821  0.00  0.00    +0.000 A 
ATOM     31  N   UNL     1       5.090   4.206  14.725  0.00  0.00    +0.000 NA
ENDBRANCH  26  27
ENDBRANCH   1  26
TORSDOF 8
ENDMDL
MODEL 3
REMARK VINA RESULT:      -8.5      4.661      6.156
REMARK  Name = 
REMARK  8 active torsions:
REMARK  status: ('A' for Active; 'I' for Inactive)
REMARK    1  A    between atoms: O_1  and  C_2
REMARK    2  A    between atoms: C_2  and  C_3
REMARK    3  A    between atoms: C_2  and  C_16
REMARK    4  A    between atoms: C_2  and  C_22
REMARK    5  A    between atoms: C_3  and  S_4
REMARK    6  A    between atoms: S_4  and  C_5
REMARK    7  A    between atoms: C_8  and  C_9
REMARK    8  A    between atoms: C_16  and  N_17
REMARK                            x       y       z     vdW  Elec       q    Type
REMARK                         _______ _______ _______ _____ _____    ______ ____
ROOT
ATOM      1  C   UNL     1       3.741   4.635  18.266  0.00  0.00    +0.000 C 
ENDROOT
BRANCH   1   2
ATOM      2  C   UNL     1       2.970   3.959  19.407  0.00  0.00    +0.000 A 
ATOM      3  C   UNL     1       1.604   4.233  19.619  0.00  0.00    +0.000 A 
ATOM      4  C   UNL     1       0.898   3.620  20.659  0.00  0.00    +0.000 A 
ATOM      5  C   UNL     1       1.549   2.728  21.501  0.00  0.00    +0.000 A 
ATOM      6  F   UNL     1       0.874   2.147  22.497  0.00  0.00    +0.000 F 
ATOM      7  C   UNL     1       2.887   2.421  21.311  0.00  0.00    +0.000 A 
ATOM      8  C   UNL     1       3.577   3.022  20.261  0.00  0.00    +0.000 A 
ATOM      9  F   UNL     1       4.851   2.661  20.062  0.00  0.00    +0.000 F 
ENDBRANCH   1   2
BRANCH   1  10
ATOM     10  O   UNL     1       4.894   5.299  18.843  0.00  0.00    +0.000 OA
ATOM     11  H   UNL     1       5.249   5.909  18.171  0.00  0.00    +0.000 HD
ENDBRANCH   1  10
BRANCH   1  12
ATOM     12  C   UNL     1       2.832   5.739  17.638  0.00  0.00    +0.000 C 
BRANCH  12  13
ATOM     13  S   UNL     1       3.667   7.377  17.593  0.00  0.00    +0.000 S 
BRANCH  13  14
ATOM     14  C   UNL     1       2.421   8.427  18.138  0.00  0.00    +0.000 A 
ATOM     15  N   UNL     1       1.722   9.311  17.473  0.00  0.00    +0.000 NA
ATOM     16  N   UNL     1       0.865   9.910  18.379  0.00  0.00    +0.000 NA
ATOM     17  C   UNL     1       1.087   9.397  19.578  0.00  0.00    +0.000 A 
ATOM     18  N   UNL     1       2.036   8.414  19.439  0.00  0.00    +0.000 N 
ATOM     19  H   UNL     1       2.390   7.804  20.159  0.00  0.00    +0.000 HD
BRANCH  17  20
ATOM     20  C   UNL     1       0.458   9.769  20.844  0.00  0.00    +0.000 A 
ATOM     21  C   UNL     1      -0.373  10.888  20.916  0.00  0.00    +0.000 A 
ATOM     22  C   UNL     1      -0.946  11.216  22.133  0.00  0.00    +0.000 A 
ATOM     23  N   UNL     1      -0.742  10.516  23.270  0.00  0.00    +0.000 NA
ATOM     24  C   UNL     1       0.076   9.449  23.188  0.00  0.00    +0.000 A 
ATOM     25  C   UNL     1       0.689   9.038  22.016  0.00  0.00    +0.000 A 
ENDBRANCH  17  20
ENDBRANCH  13  14
ENDBRANCH  12  13
ENDBRANCH   1  12
BRANCH   1  26
ATOM     26  C   UNL     1       4.270   3.657  17.179  0.00  0.00    +0.000 C 
BRANCH  26  27
ATOM     27  N   UNL     1       5.325   4.194  16.339  0.00  0.00    +0.000 N 
ATOM     28  C   UNL     1       5.281   4.458  15.004  0.00  0.00    +0.000 A 
ATOM     29  N   UNL     1       6.470   4.825  14.588  0.00  0.00    +0.000 NA
ATOM     30  C   UNL     1       7.225   4.752  15.723  0.00  0.00    +0.000 A 
ATOM     31  N   UNL     1       6.576   4.344  16.814  0.00  0.00    +0.000 NA
ENDBRANCH  26  27
ENDBRANCH   1  26
TORSDOF 8
ENDMDL
MODEL 4
REMARK VINA RESULT:      -8.5      1.019      1.648
REMARK  Name = 
REMARK  8 active torsions:
REMARK  status: ('A' for Active; 'I' for Inactive)
REMARK    1  A    between atoms: O_1  and  C_2
REMARK    2  A    between atoms: C_2  and  C_3
REMARK    3  A    between atoms: C_2  and  C_16
REMARK    4  A    between atoms: C_2  and  C_22
REMARK    5  A    between atoms: C_3  and  S_4
REMARK    6  A    between atoms: S_4  and  C_5
REMARK    7  A    between atoms: C_8  and  C_9
REMARK    8  A    between atoms: C_16  and  N_17
REMARK                            x       y       z     vdW  Elec       q    Type
REMARK                         _______ _______ _______ _____ _____    ______ ____
ROOT
ATOM      1  C   UNL     1       5.158   4.896  17.577  0.00  0.00    +0.000 C 
ENDROOT
BRANCH   1   2
ATOM      2  C   UNL     1       3.824   4.309  18.052  0.00  0.00    +0.000 A 
ATOM      3  C   UNL     1       2.951   5.059  18.866  0.00  0.00    +0.000 A 
ATOM      4  C   UNL     1       1.734   4.526  19.302  0.00  0.00    +0.000 A 
ATOM      5  C   UNL     1       1.374   3.237  18.932  0.00  0.00    +0.000 A 
ATOM      6  F   UNL     1       0.213   2.728  19.355  0.00  0.00    +0.000 F 
ATOM      7  C   UNL     1       2.199   2.477  18.118  0.00  0.00    +0.000 A 
ATOM      8  C   UNL     1       3.401   3.023  17.673  0.00  0.00    +0.000 A 
ATOM      9  F   UNL     1       4.148   2.291  16.837  0.00  0.00    +0.000 F 
ENDBRANCH   1   2
BRANCH   1  10
ATOM     10  O   UNL     1       6.046   3.790  17.276  0.00  0.00    +0.000 OA
ATOM     11  H   UNL     1       5.496   2.993  17.166  0.00  0.00    +0.000 HD
ENDBRANCH   1  10
BRANCH   1  12
ATOM     12  C   UNL     1       5.795   5.699  18.757  0.00  0.00    +0.000 C 
BRANCH  12  13
ATOM     13  S   UNL     1       7.630   5.741  18.650  0.00  0.00    +0.000 S 
BRANCH  13  14
ATOM     14  C   UNL     1       7.927   7.394  18.286  0.00  0.00    +0.000 A 
ATOM     15  N   UNL     1       7.523   8.112  17.270  0.00  0.00    +0.000 NA
ATOM     16  N   UNL     1       8.057   9.378  17.433  0.00  0.00    +0.000 NA
ATOM     17  C   UNL     1       8.799   9.388  18.528  0.00  0.00    +0.000 A 
ATOM     18  N   UNL     1       8.689   8.152  19.116  0.00  0.00    +0.000 N 
ATOM     19  H   UNL     1       9.096   7.853  19.987  0.00  0.00    +0.000 HD
BRANCH  17  20
ATOM     20  C   UNL     1       9.600  10.489  19.060  0.00  0.00    +0.000 A 
ATOM     21  C   UNL     1      10.648  11.024  18.310  0.00  0.00    +0.000 A 
ATOM     22  C   UNL     1      11.392  12.061  18.848  0.00  0.00    +0.000 A 
ATOM     23  N   UNL     1      11.168  12.588  20.072  0.00  0.00    +0.000 NA
ATOM     24  C   UNL     1      10.164  12.049  20.790  0.00  0.00    +0.000 A 
ATOM     25  C   UNL     1       9.361  11.017  20.335  0.00  0.00    +0.000 A 
ENDBRANCH  17  20
ENDBRANCH  13  14
ENDBRANCH  12  13
ENDBRANCH   1  12
BRANCH   1  26
ATOM     26  C   UNL     1       5.058   5.767  16.293  0.00  0.00    +0.000 C 
BRANCH  26  27
ATOM     27  N   UNL     1       5.810   5.267  15.159  0.00  0.00    +0.000 N 
ATOM     28  C   UNL     1       5.428   4.329  14.248  0.00  0.00    +0.000 A 
ATOM     29  N   UNL     1       6.430   4.063  13.443  0.00  0.00    +0.000 NA
ATOM     30  C   UNL     1       7.426   4.864  13.922  0.00  0.00    +0.000 A 
ATOM     31  N   UNL     1       7.104   5.599  14.987  0.00  0.00    +0.000 NA
ENDBRANCH  26  27
ENDBRANCH   1  26
TORSDOF 8
ENDMDL
MODEL 5
REMARK VINA RESULT:      -8.3      2.437      3.861
REMARK  Name = 
REMARK  8 active torsions:
REMARK  status: ('A' for Active; 'I' for Inactive)
REMARK    1  A    between atoms: O_1  and  C_2
REMARK    2  A    between atoms: C_2  and  C_3
REMARK    3  A    between atoms: C_2  and  C_16
REMARK    4  A    between atoms: C_2  and  C_22
REMARK    5  A    between atoms: C_3  and  S_4
REMARK    6  A    between atoms: S_4  and  C_5
REMARK    7  A    between atoms: C_8  and  C_9
REMARK    8  A    between atoms: C_16  and  N_17
REMARK                            x       y       z     vdW  Elec       q    Type
REMARK                         _______ _______ _______ _____ _____    ______ ____
ROOT
ATOM      1  C   UNL     1       4.961   4.583  18.213  0.00  0.00    +0.000 C 
ENDROOT
BRANCH   1   2
ATOM      2  C   UNL     1       4.007   5.760  18.450  0.00  0.00    +0.000 A 
ATOM      3  C   UNL     1       3.295   5.883  19.661  0.00  0.00    +0.000 A 
ATOM      4  C   UNL     1       2.424   6.955  19.879  0.00  0.00    +0.000 A 
ATOM      5  C   UNL     1       2.252   7.916  18.892  0.00  0.00    +0.000 A 
ATOM      6  F   UNL     1       1.415   8.936  19.101  0.00  0.00    +0.000 F 
ATOM      7  C   UNL     1       2.949   7.836  17.697  0.00  0.00    +0.000 A 
ATOM      8  C   UNL     1       3.829   6.775  17.495  0.00  0.00    +0.000 A 
ATOM      9  F   UNL     1       4.536   6.758  16.358  0.00  0.00    +0.000 F 
ENDBRANCH   1   2
BRANCH   1  10
ATOM     10  O   UNL     1       5.469   4.158  19.504  0.00  0.00    +0.000 OA
ATOM     11  H   UNL     1       6.224   4.734  19.726  0.00  0.00    +0.000 HD
ENDBRANCH   1  10
BRANCH   1  12
ATOM     12  C   UNL     1       6.178   5.090  17.375  0.00  0.00    +0.000 C 
BRANCH  12  13
ATOM     13  S   UNL     1       7.613   5.526  18.439  0.00  0.00    +0.000 S 
BRANCH  13  14
ATOM     14  C   UNL     1       7.803   7.202  18.111  0.00  0.00    +0.000 A 
ATOM     15  N   UNL     1       7.306   7.926  17.142  0.00  0.00    +0.000 NA
ATOM     16  N   UNL     1       7.781   9.214  17.316  0.00  0.00    +0.000 NA
ATOM     17  C   UNL     1       8.582   9.233  18.369  0.00  0.00    +0.000 A 
ATOM     18  N   UNL     1       8.568   7.976  18.923  0.00  0.00    +0.000 N 
ATOM     19  H   UNL     1       9.039   7.675  19.761  0.00  0.00    +0.000 HD
BRANCH  17  20
ATOM     20  C   UNL     1       9.352  10.359  18.892  0.00  0.00    +0.000 A 
ATOM     21  C   UNL     1      10.111  11.153  18.031  0.00  0.00    +0.000 A 
ATOM     22  C   UNL     1      10.836  12.208  18.560  0.00  0.00    +0.000 A 
ATOM     23  N   UNL     1      10.859  12.515  19.876  0.00  0.00    +0.000 NA
ATOM     24  C   UNL     1      10.135  11.729  20.696  0.00  0.00    +0.000 A 
ATOM     25  C   UNL     1       9.373  10.658  20.260  0.00  0.00    +0.000 A 
ENDBRANCH  17  20
ENDBRANCH  13  14
ENDBRANCH  12  13
ENDBRANCH   1  12
BRANCH   1  26
ATOM     26  C   UNL     1       4.299   3.342  17.549  0.00  0.00    +0.000 C 
BRANCH  26  27
ATOM     27  N   UNL     1       3.068   2.901  18.176  0.00  0.00    +0.000 N 
ATOM     28  C   UNL     1       2.923   2.115  19.278  0.00  0.00    +0.000 A 
ATOM     29  N   UNL     1       1.652   1.844  19.463  0.00  0.00    +0.000 NA
ATOM     30  C   UNL     1       1.050   2.483  18.417  0.00  0.00    +0.000 A 
ATOM     31  N   UNL     1       1.877   3.121  17.587  0.00  0.00    +0.000 NA
ENDBRANCH  26  27
ENDBRANCH   1  26
TORSDOF 8
ENDMDL
MODEL 6
REMARK VINA RESULT:      -8.3      5.533      7.673
REMARK  Name = 
REMARK  8 active torsions:
REMARK  status: ('A' for Active; 'I' for Inactive)
REMARK    1  A    between atoms: O_1  and  C_2
REMARK    2  A    between atoms: C_2  and  C_3
REMARK    3  A    between atoms: C_2  and  C_16
REMARK    4  A    between atoms: C_2  and  C_22
REMARK    5  A    between atoms: C_3  and  S_4
REMARK    6  A    between atoms: S_4  and  C_5
REMARK    7  A    between atoms: C_8  and  C_9
REMARK    8  A    between atoms: C_16  and  N_17
REMARK                            x       y       z     vdW  Elec       q    Type
REMARK                         _______ _______ _______ _____ _____    ______ ____
ROOT
ATOM      1  C   UNL     1       3.404   6.126  18.869  0.00  0.00    +0.000 C 
ENDROOT
BRANCH   1   2
ATOM      2  C   UNL     1       2.547   4.854  18.841  0.00  0.00    +0.000 A 
ATOM      3  C   UNL     1       2.542   4.009  17.712  0.00  0.00    +0.000 A 
ATOM      4  C   UNL     1       1.761   2.850  17.682  0.00  0.00    +0.000 A 
ATOM      5  C   UNL     1       0.974   2.521  18.777  0.00  0.00    +0.000 A 
ATOM      6  F   UNL     1       0.224   1.416  18.743  0.00  0.00    +0.000 F 
ATOM      7  C   UNL     1       0.967   3.319  19.910  0.00  0.00    +0.000 A 
ATOM      8  C   UNL     1       1.763   4.462  19.939  0.00  0.00    +0.000 A 
ATOM      9  F   UNL     1       1.786   5.179  21.069  0.00  0.00    +0.000 F 
ENDBRANCH   1   2
BRANCH   1  10
ATOM     10  O   UNL     1       4.401   5.964  19.910  0.00  0.00    +0.000 OA
ATOM     11  H   UNL     1       4.926   5.171  19.693  0.00  0.00    +0.000 HD
ENDBRANCH   1  10
BRANCH   1  12
ATOM     12  C   UNL     1       2.494   7.328  19.278  0.00  0.00    +0.000 C 
BRANCH  12  13
ATOM     13  S   UNL     1       2.387   8.595  17.949  0.00  0.00    +0.000 S 
BRANCH  13  14
ATOM     14  C   UNL     1       1.015   9.507  18.435  0.00  0.00    +0.000 A 
ATOM     15  N   UNL     1       0.739  10.051  19.592  0.00  0.00    +0.000 NA
ATOM     16  N   UNL     1      -0.500  10.654  19.470  0.00  0.00    +0.000 NA
ATOM     17  C   UNL     1      -0.961  10.433  18.250  0.00  0.00    +0.000 A 
ATOM     18  N   UNL     1       0.009   9.751  17.557  0.00  0.00    +0.000 N 
ATOM     19  H   UNL     1      -0.015   9.475  16.588  0.00  0.00    +0.000 HD
BRANCH  17  20
ATOM     20  C   UNL     1      -2.253  10.829  17.692  0.00  0.00    +0.000 A 
ATOM     21  C   UNL     1      -3.217  11.427  18.506  0.00  0.00    +0.000 A 
ATOM     22  C   UNL     1      -4.433  11.782  17.948  0.00  0.00    +0.000 A 
ATOM     23  N   UNL     1      -4.751  11.577  16.651  0.00  0.00    +0.000 NA
ATOM     24  C   UNL     1      -3.817  10.984  15.883  0.00  0.00    +0.000 A 
ATOM     25  C   UNL     1      -2.570  10.600  16.348  0.00  0.00    +0.000 A 
ENDBRANCH  17  20
ENDBRANCH  13  14
ENDBRANCH  12  13
ENDBRANCH   1  12
BRANCH   1  26
ATOM     26  C   UNL     1       4.164   6.420  17.546  0.00  0.00    +0.000 C 
BRANCH  26  27
ATOM     27  N   UNL     1       5.580   6.104  17.574  0.00  0.00    +0.000 N 
ATOM     28  C   UNL     1       6.630   6.935  17.328  0.00  0.00    +0.000 A 
ATOM     29  N   UNL     1       7.747   6.248  17.337  0.00  0.00    +0.000 NA
ATOM     30  C   UNL     1       7.320   4.974  17.580  0.00  0.00    +0.000 A 
ATOM     31  N   UNL     1       5.999   4.831  17.705  0.00  0.00    +0.000 NA
ENDBRANCH  26  27
ENDBRANCH   1  26
TORSDOF 8
ENDMDL
MODEL 7
REMARK VINA RESULT:      -8.3      4.589      6.047
REMARK  Name = 
REMARK  8 active torsions:
REMARK  status: ('A' for Active; 'I' for Inactive)
REMARK    1  A    between atoms: O_1  and  C_2
REMARK    2  A    between atoms: C_2  and  C_3
REMARK    3  A    between atoms: C_2  and  C_16
REMARK    4  A    between atoms: C_2  and  C_22
REMARK    5  A    between atoms: C_3  and  S_4
REMARK    6  A    between atoms: S_4  and  C_5
REMARK    7  A    between atoms: C_8  and  C_9
REMARK    8  A    between atoms: C_16  and  N_17
REMARK                            x       y       z     vdW  Elec       q    Type
REMARK                         _______ _______ _______ _____ _____    ______ ____
ROOT
ATOM      1  C   UNL     1       3.977   4.635  18.471  0.00  0.00    +0.000 C 
ENDROOT
BRANCH   1   2
ATOM      2  C   UNL     1       3.095   3.990  19.547  0.00  0.00    +0.000 A 
ATOM      3  C   UNL     1       1.746   4.369  19.700  0.00  0.00    +0.000 A 
ATOM      4  C   UNL     1       0.939   3.784  20.681  0.00  0.00    +0.000 A 
ATOM      5  C   UNL     1       1.470   2.814  21.522  0.00  0.00    +0.000 A 
ATOM      6  F   UNL     1       0.699   2.261  22.461  0.00  0.00    +0.000 F 
ATOM      7  C   UNL     1       2.787   2.404  21.387  0.00  0.00    +0.000 A 
ATOM      8  C   UNL     1       3.578   2.979  20.395  0.00  0.00    +0.000 A 
ATOM      9  F   UNL     1       4.827   2.520  20.247  0.00  0.00    +0.000 F 
ENDBRANCH   1   2
BRANCH   1  10
ATOM     10  O   UNL     1       4.998   5.414  19.145  0.00  0.00    +0.000 OA
ATOM     11  H   UNL     1       4.707   5.547  20.066  0.00  0.00    +0.000 HD
ENDBRANCH   1  10
BRANCH   1  12
ATOM     12  C   UNL     1       3.102   5.629  17.642  0.00  0.00    +0.000 C 
BRANCH  12  13
ATOM     13  S   UNL     1       3.855   7.305  17.556  0.00  0.00    +0.000 S 
BRANCH  13  14
ATOM     14  C   UNL     1       2.559   8.305  18.079  0.00  0.00    +0.000 A 
ATOM     15  N   UNL     1       1.791   9.107  17.388  0.00  0.00    +0.000 NA
ATOM     16  N   UNL     1       0.918   9.700  18.283  0.00  0.00    +0.000 NA
ATOM     17  C   UNL     1       1.200   9.267  19.501  0.00  0.00    +0.000 A 
ATOM     18  N   UNL     1       2.205   8.338  19.389  0.00  0.00    +0.000 N 
ATOM     19  H   UNL     1       2.613   7.790  20.129  0.00  0.00    +0.000 HD
BRANCH  17  20
ATOM     20  C   UNL     1       0.579   9.666  20.762  0.00  0.00    +0.000 A 
ATOM     21  C   UNL     1       0.859   8.968  21.938  0.00  0.00    +0.000 A 
ATOM     22  C   UNL     1       0.246   9.367  23.114  0.00  0.00    +0.000 A 
ATOM     23  N   UNL     1      -0.622  10.399  23.193  0.00  0.00    +0.000 NA
ATOM     24  C   UNL     1      -0.895  11.053  22.047  0.00  0.00    +0.000 A 
ATOM     25  C   UNL     1      -0.327  10.732  20.825  0.00  0.00    +0.000 A 
ENDBRANCH  17  20
ENDBRANCH  13  14
ENDBRANCH  12  13
ENDBRANCH   1  12
BRANCH   1  26
ATOM     26  C   UNL     1       4.708   3.623  17.544  0.00  0.00    +0.000 C 
BRANCH  26  27
ATOM     27  N   UNL     1       5.598   4.224  16.569  0.00  0.00    +0.000 N 
ATOM     28  C   UNL     1       6.817   4.791  16.785  0.00  0.00    +0.000 A 
ATOM     29  N   UNL     1       7.257   5.327  15.671  0.00  0.00    +0.000 NA
ATOM     30  C   UNL     1       6.245   5.072  14.790  0.00  0.00    +0.000 A 
ATOM     31  N   UNL     1       5.196   4.424  15.300  0.00  0.00    +0.000 NA
ENDBRANCH  26  27
ENDBRANCH   1  26
TORSDOF 8
ENDMDL
MODEL 8
REMARK VINA RESULT:      -8.0      4.205      7.610
REMARK  Name = 
REMARK  8 active torsions:
REMARK  status: ('A' for Active; 'I' for Inactive)
REMARK    1  A    between atoms: O_1  and  C_2
REMARK    2  A    between atoms: C_2  and  C_3
REMARK    3  A    between atoms: C_2  and  C_16
REMARK    4  A    between atoms: C_2  and  C_22
REMARK    5  A    between atoms: C_3  and  S_4
REMARK    6  A    between atoms: S_4  and  C_5
REMARK    7  A    between atoms: C_8  and  C_9
REMARK    8  A    between atoms: C_16  and  N_17
REMARK                            x       y       z     vdW  Elec       q    Type
REMARK                         _______ _______ _______ _____ _____    ______ ____
ROOT
ATOM      1  C   UNL     1       2.932   5.888  18.874  0.00  0.00    +0.000 C 
ENDROOT
BRANCH   1   2
ATOM      2  C   UNL     1       2.314   7.290  18.929  0.00  0.00    +0.000 A 
ATOM      3  C   UNL     1       2.303   8.121  17.790  0.00  0.00    +0.000 A 
ATOM      4  C   UNL     1       1.741   9.401  17.836  0.00  0.00    +0.000 A 
ATOM      5  C   UNL     1       1.185   9.867  19.020  0.00  0.00    +0.000 A 
ATOM      6  F   UNL     1       0.654  11.092  19.063  0.00  0.00    +0.000 F 
ATOM      7  C   UNL     1       1.161   9.070  20.153  0.00  0.00    +0.000 A 
ATOM      8  C   UNL     1       1.707   7.789  20.093  0.00  0.00    +0.000 A 
ATOM      9  F   UNL     1       1.614   7.019  21.184  0.00  0.00    +0.000 F 
ENDBRANCH   1   2
BRANCH   1  10
ATOM     10  O   UNL     1       3.849   5.765  19.991  0.00  0.00    +0.000 OA
ATOM     11  H   UNL     1       4.482   6.504  19.934  0.00  0.00    +0.000 HD
ENDBRANCH   1  10
BRANCH   1  12
ATOM     12  C   UNL     1       3.773   5.766  17.563  0.00  0.00    +0.000 C 
BRANCH  12  13
ATOM     13  S   UNL     1       5.460   6.471  17.759  0.00  0.00    +0.000 S 
BRANCH  13  14
ATOM     14  C   UNL     1       6.270   5.845  16.379  0.00  0.00    +0.000 A 
ATOM     15  N   UNL     1       7.498   6.038  15.971  0.00  0.00    +0.000 NA
ATOM     16  N   UNL     1       7.648   5.328  14.793  0.00  0.00    +0.000 NA
ATOM     17  C   UNL     1       6.496   4.747  14.498  0.00  0.00    +0.000 A 
ATOM     18  N   UNL     1       5.621   5.018  15.521  0.00  0.00    +0.000 N 
ATOM     19  H   UNL     1       4.677   4.681  15.619  0.00  0.00    +0.000 HD
BRANCH  17  20
ATOM     20  C   UNL     1       6.171   3.947  13.320  0.00  0.00    +0.000 A 
ATOM     21  C   UNL     1       7.188   3.409  12.530  0.00  0.00    +0.000 A 
ATOM     22  C   UNL     1       6.844   2.663  11.415  0.00  0.00    +0.000 A 
ATOM     23  N   UNL     1       5.569   2.426  11.036  0.00  0.00    +0.000 NA
ATOM     24  C   UNL     1       4.599   2.966  11.799  0.00  0.00    +0.000 A 
ATOM     25  C   UNL     1       4.844   3.719  12.935  0.00  0.00    +0.000 A 
ENDBRANCH  17  20
ENDBRANCH  13  14
ENDBRANCH  12  13
ENDBRANCH   1  12
BRANCH   1  26
ATOM     26  C   UNL     1       1.905   4.725  18.993  0.00  0.00    +0.000 C 
BRANCH  26  27
ATOM     27  N   UNL     1       2.177   3.780  20.059  0.00  0.00    +0.000 N 
ATOM     28  C   UNL     1       1.506   3.626  21.234  0.00  0.00    +0.000 A 
ATOM     29  N   UNL     1       2.127   2.747  21.984  0.00  0.00    +0.000 NA
ATOM     30  C   UNL     1       3.203   2.399  21.219  0.00  0.00    +0.000 A 
ATOM     31  N   UNL     1       3.292   3.025  20.044  0.00  0.00    +0.000 NA
ENDBRANCH  26  27
ENDBRANCH   1  26
TORSDOF 8
ENDMDL
MODEL 9
REMARK VINA RESULT:      -7.9      2.688      4.352
REMARK  Name = 
REMARK  8 active torsions:
REMARK  status: ('A' for Active; 'I' for Inactive)
REMARK    1  A    between atoms: O_1  and  C_2
REMARK    2  A    between atoms: C_2  and  C_3
REMARK    3  A    between atoms: C_2  and  C_16
REMARK    4  A    between atoms: C_2  and  C_22
REMARK    5  A    between atoms: C_3  and  S_4
REMARK    6  A    between atoms: S_4  and  C_5
REMARK    7  A    between atoms: C_8  and  C_9
REMARK    8  A    between atoms: C_16  and  N_17
REMARK                            x       y       z     vdW  Elec       q    Type
REMARK                         _______ _______ _______ _____ _____    ______ ____
ROOT
ATOM      1  C   UNL     1       4.784   4.758  18.519  0.00  0.00    +0.000 C 
ENDROOT
BRANCH   1   2
ATOM      2  C   UNL     1       5.214   4.692  17.048  0.00  0.00    +0.000 A 
ATOM      3  C   UNL     1       5.757   3.510  16.505  0.00  0.00    +0.000 A 
ATOM      4  C   UNL     1       6.151   3.447  15.164  0.00  0.00    +0.000 A 
ATOM      5  C   UNL     1       6.010   4.564  14.352  0.00  0.00    +0.000 A 
ATOM      6  F   UNL     1       6.393   4.503  13.073  0.00  0.00    +0.000 F 
ATOM      7  C   UNL     1       5.464   5.737  14.848  0.00  0.00    +0.000 A 
ATOM      8  C   UNL     1       5.056   5.785  16.179  0.00  0.00    +0.000 A 
ATOM      9  F   UNL     1       4.475   6.909  16.614  0.00  0.00    +0.000 F 
ENDBRANCH   1   2
BRANCH   1  10
ATOM     10  O   UNL     1       3.475   5.381  18.569  0.00  0.00    +0.000 OA
ATOM     11  H   UNL     1       2.885   4.872  17.983  0.00  0.00    +0.000 HD
ENDBRANCH   1  10
BRANCH   1  12
ATOM     12  C   UNL     1       5.775   5.691  19.285  0.00  0.00    +0.000 C 
BRANCH  12  13
ATOM     13  S   UNL     1       7.480   5.594  18.603  0.00  0.00    +0.000 S 
BRANCH  13  14
ATOM     14  C   UNL     1       7.791   7.232  18.187  0.00  0.00    +0.000 A 
ATOM     15  N   UNL     1       7.429   7.910  17.129  0.00  0.00    +0.000 NA
ATOM     16  N   UNL     1       7.954   9.183  17.265  0.00  0.00    +0.000 NA
ATOM     17  C   UNL     1       8.650   9.236  18.389  0.00  0.00    +0.000 A 
ATOM     18  N   UNL     1       8.516   8.023  19.019  0.00  0.00    +0.000 N 
ATOM     19  H   UNL     1       8.887   7.760  19.918  0.00  0.00    +0.000 HD
BRANCH  17  20
ATOM     20  C   UNL     1       9.427  10.359  18.911  0.00  0.00    +0.000 A 
ATOM     21  C   UNL     1      10.206  11.136  18.053  0.00  0.00    +0.000 A 
ATOM     22  C   UNL     1      10.936  12.187  18.582  0.00  0.00    +0.000 A 
ATOM     23  N   UNL     1      10.947  12.506  19.895  0.00  0.00    +0.000 NA
ATOM     24  C   UNL     1      10.203  11.737  20.713  0.00  0.00    +0.000 A 
ATOM     25  C   UNL     1       9.434  10.670  20.277  0.00  0.00    +0.000 A 
ENDBRANCH  17  20
ENDBRANCH  13  14
ENDBRANCH  12  13
ENDBRANCH   1  12
BRANCH   1  26
ATOM     26  C   UNL     1       4.661   3.374  19.217  0.00  0.00    +0.000 C 
BRANCH  26  27
ATOM     27  N   UNL     1       3.312   3.001  19.597  0.00  0.00    +0.000 N 
ATOM     28  C   UNL     1       2.791   2.900  20.851  0.00  0.00    +0.000 A 
ATOM     29  N   UNL     1       1.571   2.424  20.785  0.00  0.00    +0.000 NA
ATOM     30  C   UNL     1       1.392   2.229  19.446  0.00  0.00    +0.000 A 
ATOM     31  N   UNL     1       2.439   2.541  18.680  0.00  0.00    +0.000 NA
ENDBRANCH  26  27
ENDBRANCH   1  26
TORSDOF 8
ENDMDL
