MODEL 1
REMARK VINA RESULT:      -8.4      0.000      0.000
REMARK  Name = 
REMARK  4 active torsions:
REMARK  status: ('A' for Active; 'I' for Inactive)
REMARK    1  A    between atoms: C_2  and  C_17
REMARK    2  A    between atoms: N_3  and  C_4
REMARK    3  A    between atoms: C_4  and  C_5
REMARK    4  A    between atoms: C_4  and  C_11
REMARK                            x       y       z     vdW  Elec       q    Type
REMARK                         _______ _______ _______ _____ _____    ______ ____
ROOT
ATOM      1  C   UNL     1       3.318   6.037  19.357  0.00  0.00    +0.000 C 
ENDROOT
BRANCH   1   2
ATOM      2  C   UNL     1       2.496   7.313  19.248  0.00  0.00    +0.000 A 
ATOM      3  C   UNL     1       1.790   7.833  20.345  0.00  0.00    +0.000 A 
ATOM      4  C   UNL     1       1.022   8.991  20.214  0.00  0.00    +0.000 A 
ATOM      5  C   UNL     1       0.949   9.649  18.988  0.00  0.00    +0.000 A 
ATOM      6  C   UNL     1       1.645   9.149  17.890  0.00  0.00    +0.000 A 
ATOM      7  C   UNL     1       2.412   7.990  18.018  0.00  0.00    +0.000 A 
ENDBRANCH   1   2
BRANCH   1   8
ATOM      8  C   UNL     1       2.502   4.826  19.802  0.00  0.00    +0.000 A 
ATOM      9  C   UNL     1       2.574   4.398  21.142  0.00  0.00    +0.000 A 
ATOM     10  C   UNL     1       1.836   3.298  21.585  0.00  0.00    +0.000 A 
ATOM     11  C   UNL     1       1.008   2.611  20.701  0.00  0.00    +0.000 A 
ATOM     12  C   UNL     1       0.919   3.024  19.373  0.00  0.00    +0.000 A 
ATOM     13  C   UNL     1       1.658   4.122  18.928  0.00  0.00    +0.000 A 
ENDBRANCH   1   8
BRANCH   1  16
ATOM     14  O   UNL     1       5.765   4.618  19.072  0.00  0.00    +0.000 OA
ATOM     15  C   UNL     1       5.210   5.077  18.078  0.00  0.00    +0.000 C 
ATOM     16  N   UNL     1       4.043   5.799  18.121  0.00  0.00    +0.000 N 
ATOM     17  H   UNL     1       3.689   6.156  17.241  0.00  0.00    +0.000 HD
BRANCH  15  18
ATOM     18  C   UNL     1       5.790   4.868  16.714  0.00  0.00    +0.000 A 
ATOM     19  C   UNL     1       4.969   4.373  15.706  0.00  0.00    +0.000 A 
ATOM     20  C   UNL     1       5.507   4.208  14.436  0.00  0.00    +0.000 A 
ATOM     21  C   UNL     1       6.840   4.538  14.216  0.00  0.00    +0.000 A 
ATOM     22  C   UNL     1       7.588   5.019  15.283  0.00  0.00    +0.000 A 
ATOM     23  N   UNL     1       7.101   5.198  16.533  0.00  0.00    +0.000 NA
ENDBRANCH  15  18
ENDBRANCH   1  16
TORSDOF 4
ENDMDL
MODEL 2
REMARK VINA RESULT:      -8.4      0.062      1.031
REMARK  Name = 
REMARK  4 active torsions:
REMARK  status: ('A' for Active; 'I' for Inactive)
REMARK    1  A    between atoms: C_2  and  C_17
REMARK    2  A    between atoms: N_3  and  C_4
REMARK    3  A    between atoms: C_4  and  C_5
REMARK    4  A    between atoms: C_4  and  C_11
REMARK                            x       y       z     vdW  Elec       q    Type
REMARK                         _______ _______ _______ _____ _____    ______ ____
ROOT
ATOM      1  C   UNL     1       3.295   6.047  19.382  0.00  0.00    +0.000 C 
ENDROOT
BRANCH   1   2
ATOM      2  C   UNL     1       2.458   7.311  19.253  0.00  0.00    +0.000 A 
ATOM      3  C   UNL     1       2.363   8.014  18.041  0.00  0.00    +0.000 A 
ATOM      4  C   UNL     1       1.608   9.184  17.953  0.00  0.00    +0.000 A 
ATOM      5  C   UNL     1       0.935   9.669  19.072  0.00  0.00    +0.000 A 
ATOM      6  C   UNL     1       1.015   8.984  20.282  0.00  0.00    +0.000 A 
ATOM      7  C   UNL     1       1.771   7.814  20.373  0.00  0.00    +0.000 A 
ENDBRANCH   1   2
BRANCH   1   8
ATOM      8  C   UNL     1       2.493   4.833  19.842  0.00  0.00    +0.000 A 
ATOM      9  C   UNL     1       2.619   4.381  21.169  0.00  0.00    +0.000 A 
ATOM     10  C   UNL     1       1.896   3.277  21.625  0.00  0.00    +0.000 A 
ATOM     11  C   UNL     1       1.026   2.610  20.766  0.00  0.00    +0.000 A 
ATOM     12  C   UNL     1       0.882   3.046  19.451  0.00  0.00    +0.000 A 
ATOM     13  C   UNL     1       1.608   4.148  18.993  0.00  0.00    +0.000 A 
ENDBRANCH   1   8
BRANCH   1  16
ATOM     14  O   UNL     1       5.766   4.664  19.126  0.00  0.00    +0.000 OA
ATOM     15  C   UNL     1       5.206   5.097  18.124  0.00  0.00    +0.000 C 
ATOM     16  N   UNL     1       4.027   5.801  18.152  0.00  0.00    +0.000 N 
ATOM     17  H   UNL     1       3.670   6.137  17.266  0.00  0.00    +0.000 HD
BRANCH  15  18
ATOM     18  C   UNL     1       5.793   4.876  16.765  0.00  0.00    +0.000 A 
ATOM     19  C   UNL     1       4.979   4.364  15.760  0.00  0.00    +0.000 A 
ATOM     20  C   UNL     1       5.523   4.187  14.494  0.00  0.00    +0.000 A 
ATOM     21  C   UNL     1       6.855   4.522  14.275  0.00  0.00    +0.000 A 
ATOM     22  C   UNL     1       7.596   5.021  15.340  0.00  0.00    +0.000 A 
ATOM     23  N   UNL     1       7.102   5.211  16.586  0.00  0.00    +0.000 NA
ENDBRANCH  15  18
ENDBRANCH   1  16
TORSDOF 4
ENDMDL
MODEL 3
REMARK VINA RESULT:      -8.4      0.078      1.030
REMARK  Name = 
REMARK  4 active torsions:
REMARK  status: ('A' for Active; 'I' for Inactive)
REMARK    1  A    between atoms: C_2  and  C_17
REMARK    2  A    between atoms: N_3  and  C_4
REMARK    3  A    between atoms: C_4  and  C_5
REMARK    4  A    between atoms: C_4  and  C_11
REMARK                            x       y       z     vdW  Elec       q    Type
REMARK                         _______ _______ _______ _____ _____    ______ ____
ROOT
ATOM      1  C   UNL     1       3.311   6.028  19.336  0.00  0.00    +0.000 C 
ENDROOT
BRANCH   1   2
ATOM      2  C   UNL     1       2.501   7.311  19.226  0.00  0.00    +0.000 A 
ATOM      3  C   UNL     1       1.779   7.825  20.316  0.00  0.00    +0.000 A 
ATOM      4  C   UNL     1       1.024   8.991  20.185  0.00  0.00    +0.000 A 
ATOM      5  C   UNL     1       0.978   9.662  18.965  0.00  0.00    +0.000 A 
ATOM      6  C   UNL     1       1.690   9.169  17.873  0.00  0.00    +0.000 A 
ATOM      7  C   UNL     1       2.445   8.002  18.002  0.00  0.00    +0.000 A 
ENDBRANCH   1   2
BRANCH   1   8
ATOM      8  C   UNL     1       2.483   4.825  19.781  0.00  0.00    +0.000 A 
ATOM      9  C   UNL     1       1.715   4.124  18.833  0.00  0.00    +0.000 A 
ATOM     10  C   UNL     1       0.950   3.015  19.204  0.00  0.00    +0.000 A 
ATOM     11  C   UNL     1       0.947   2.582  20.528  0.00  0.00    +0.000 A 
ATOM     12  C   UNL     1       1.707   3.258  21.480  0.00  0.00    +0.000 A 
ATOM     13  C   UNL     1       2.469   4.369  21.110  0.00  0.00    +0.000 A 
ENDBRANCH   1   8
BRANCH   1  16
ATOM     14  O   UNL     1       5.792   4.666  19.064  0.00  0.00    +0.000 OA
ATOM     15  C   UNL     1       5.219   5.089  18.064  0.00  0.00    +0.000 C 
ATOM     16  N   UNL     1       4.034   5.782  18.100  0.00  0.00    +0.000 N 
ATOM     17  H   UNL     1       3.665   6.111  17.216  0.00  0.00    +0.000 HD
BRANCH  15  18
ATOM     18  C   UNL     1       5.795   4.867  16.701  0.00  0.00    +0.000 A 
ATOM     19  C   UNL     1       4.970   4.370  15.698  0.00  0.00    +0.000 A 
ATOM     20  C   UNL     1       5.505   4.192  14.428  0.00  0.00    +0.000 A 
ATOM     21  C   UNL     1       6.839   4.512  14.204  0.00  0.00    +0.000 A 
ATOM     22  C   UNL     1       7.592   4.996  15.266  0.00  0.00    +0.000 A 
ATOM     23  N   UNL     1       7.108   5.187  16.516  0.00  0.00    +0.000 NA
ENDBRANCH  15  18
ENDBRANCH   1  16
TORSDOF 4
ENDMDL
MODEL 4
REMARK VINA RESULT:      -8.4      0.139      1.461
REMARK  Name = 
REMARK  4 active torsions:
REMARK  status: ('A' for Active; 'I' for Inactive)
REMARK    1  A    between atoms: C_2  and  C_17
REMARK    2  A    between atoms: N_3  and  C_4
REMARK    3  A    between atoms: C_4  and  C_5
REMARK    4  A    between atoms: C_4  and  C_11
REMARK                            x       y       z     vdW  Elec       q    Type
REMARK                         _______ _______ _______ _____ _____    ______ ____
ROOT
ATOM      1  C   UNL     1       3.268   6.111  19.293  0.00  0.00    +0.000 C 
ENDROOT
BRANCH   1   2
ATOM      2  C   UNL     1       2.438   7.379  19.160  0.00  0.00    +0.000 A 
ATOM      3  C   UNL     1       2.348   8.079  17.946  0.00  0.00    +0.000 A 
ATOM      4  C   UNL     1       1.599   9.253  17.854  0.00  0.00    +0.000 A 
ATOM      5  C   UNL     1       0.928   9.745  18.971  0.00  0.00    +0.000 A 
ATOM      6  C   UNL     1       1.003   9.062  20.183  0.00  0.00    +0.000 A 
ATOM      7  C   UNL     1       1.753   7.889  20.277  0.00  0.00    +0.000 A 
ENDBRANCH   1   2
BRANCH   1   8
ATOM      8  C   UNL     1       2.462   4.905  19.770  0.00  0.00    +0.000 A 
ATOM      9  C   UNL     1       1.676   4.189  18.847  0.00  0.00    +0.000 A 
ATOM     10  C   UNL     1       0.930   3.078  19.247  0.00  0.00    +0.000 A 
ATOM     11  C   UNL     1       0.963   2.658  20.575  0.00  0.00    +0.000 A 
ATOM     12  C   UNL     1       1.740   3.349  21.501  0.00  0.00    +0.000 A 
ATOM     13  C   UNL     1       2.483   4.462  21.103  0.00  0.00    +0.000 A 
ENDBRANCH   1   8
BRANCH   1  16
ATOM     14  O   UNL     1       5.860   4.967  19.052  0.00  0.00    +0.000 OA
ATOM     15  C   UNL     1       5.232   5.267  18.041  0.00  0.00    +0.000 C 
ATOM     16  N   UNL     1       3.989   5.849  18.059  0.00  0.00    +0.000 N 
ATOM     17  H   UNL     1       3.575   6.082  17.165  0.00  0.00    +0.000 HD
BRANCH  15  18
ATOM     18  C   UNL     1       5.802   5.006  16.682  0.00  0.00    +0.000 A 
ATOM     19  C   UNL     1       4.978   4.458  15.704  0.00  0.00    +0.000 A 
ATOM     20  C   UNL     1       5.506   4.244  14.437  0.00  0.00    +0.000 A 
ATOM     21  C   UNL     1       6.833   4.580  14.190  0.00  0.00    +0.000 A 
ATOM     22  C   UNL     1       7.585   5.117  15.228  0.00  0.00    +0.000 A 
ATOM     23  N   UNL     1       7.107   5.343  16.474  0.00  0.00    +0.000 NA
ENDBRANCH  15  18
ENDBRANCH   1  16
TORSDOF 4
ENDMDL
MODEL 5
REMARK VINA RESULT:      -8.2      2.485      5.909
REMARK  Name = 
REMARK  4 active torsions:
REMARK  status: ('A' for Active; 'I' for Inactive)
REMARK    1  A    between atoms: C_2  and  C_17
REMARK    2  A    between atoms: N_3  and  C_4
REMARK    3  A    between atoms: C_4  and  C_5
REMARK    4  A    between atoms: C_4  and  C_11
REMARK                            x       y       z     vdW  Elec       q    Type
REMARK                         _______ _______ _______ _____ _____    ______ ____
ROOT
ATOM      1  C   UNL     1       3.089   5.999  18.046  0.00  0.00    +0.000 C 
ENDROOT
BRANCH   1   2
ATOM      2  C   UNL     1       4.607   6.054  18.133  0.00  0.00    +0.000 A 
ATOM      3  C   UNL     1       5.312   5.406  19.161  0.00  0.00    +0.000 A 
ATOM      4  C   UNL     1       6.703   5.490  19.234  0.00  0.00    +0.000 A 
ATOM      5  C   UNL     1       7.411   6.221  18.282  0.00  0.00    +0.000 A 
ATOM      6  C   UNL     1       6.730   6.868  17.255  0.00  0.00    +0.000 A 
ATOM      7  C   UNL     1       5.338   6.786  17.181  0.00  0.00    +0.000 A 
ENDBRANCH   1   2
BRANCH   1   8
ATOM      8  C   UNL     1       2.519   4.601  18.275  0.00  0.00    +0.000 A 
ATOM      9  C   UNL     1       1.609   4.388  19.327  0.00  0.00    +0.000 A 
ATOM     10  C   UNL     1       1.063   3.124  19.561  0.00  0.00    +0.000 A 
ATOM     11  C   UNL     1       1.411   2.052  18.743  0.00  0.00    +0.000 A 
ATOM     12  C   UNL     1       2.304   2.244  17.692  0.00  0.00    +0.000 A 
ATOM     13  C   UNL     1       2.853   3.507  17.459  0.00  0.00    +0.000 A 
ENDBRANCH   1   8
BRANCH   1  16
ATOM     14  O   UNL     1       2.279   8.628  17.328  0.00  0.00    +0.000 OA
ATOM     15  C   UNL     1       2.114   8.235  18.479  0.00  0.00    +0.000 C 
ATOM     16  N   UNL     1       2.498   6.994  18.924  0.00  0.00    +0.000 N 
ATOM     17  H   UNL     1       2.340   6.786  19.903  0.00  0.00    +0.000 HD
BRANCH  15  18
ATOM     18  C   UNL     1       1.460   9.112  19.500  0.00  0.00    +0.000 A 
ATOM     19  C   UNL     1       1.228   8.600  20.773  0.00  0.00    +0.000 A 
ATOM     20  C   UNL     1       0.646   9.429  21.724  0.00  0.00    +0.000 A 
ATOM     21  C   UNL     1       0.314  10.733  21.374  0.00  0.00    +0.000 A 
ATOM     22  C   UNL     1       0.576  11.159  20.077  0.00  0.00    +0.000 A 
ATOM     23  N   UNL     1       1.144  10.384  19.124  0.00  0.00    +0.000 NA
ENDBRANCH  15  18
ENDBRANCH   1  16
TORSDOF 4
ENDMDL
MODEL 6
REMARK VINA RESULT:      -8.2      2.474      5.994
REMARK  Name = 
REMARK  4 active torsions:
REMARK  status: ('A' for Active; 'I' for Inactive)
REMARK    1  A    between atoms: C_2  and  C_17
REMARK    2  A    between atoms: N_3  and  C_4
REMARK    3  A    between atoms: C_4  and  C_5
REMARK    4  A    between atoms: C_4  and  C_11
REMARK                            x       y       z     vdW  Elec       q    Type
REMARK                         _______ _______ _______ _____ _____    ______ ____
ROOT
ATOM      1  C   UNL     1       3.096   6.020  18.035  0.00  0.00    +0.000 C 
ENDROOT
BRANCH   1   2
ATOM      2  C   UNL     1       4.614   6.086  18.119  0.00  0.00    +0.000 A 
ATOM      3  C   UNL     1       5.379   6.758  17.153  0.00  0.00    +0.000 A 
ATOM      4  C   UNL     1       6.772   6.785  17.239  0.00  0.00    +0.000 A 
ATOM      5  C   UNL     1       7.421   6.142  18.291  0.00  0.00    +0.000 A 
ATOM      6  C   UNL     1       6.679   5.472  19.260  0.00  0.00    +0.000 A 
ATOM      7  C   UNL     1       5.285   5.443  19.175  0.00  0.00    +0.000 A 
ENDBRANCH   1   2
BRANCH   1   8
ATOM      8  C   UNL     1       2.537   4.617  18.262  0.00  0.00    +0.000 A 
ATOM      9  C   UNL     1       1.617   4.399  19.304  0.00  0.00    +0.000 A 
ATOM     10  C   UNL     1       1.081   3.130  19.537  0.00  0.00    +0.000 A 
ATOM     11  C   UNL     1       1.448   2.059  18.726  0.00  0.00    +0.000 A 
ATOM     12  C   UNL     1       2.351   2.256  17.684  0.00  0.00    +0.000 A 
ATOM     13  C   UNL     1       2.891   3.524  17.453  0.00  0.00    +0.000 A 
ENDBRANCH   1   8
BRANCH   1  16
ATOM     14  O   UNL     1       2.298   8.657  17.332  0.00  0.00    +0.000 OA
ATOM     15  C   UNL     1       2.122   8.254  18.478  0.00  0.00    +0.000 C 
ATOM     16  N   UNL     1       2.499   7.009  18.916  0.00  0.00    +0.000 N 
ATOM     17  H   UNL     1       2.332   6.793  19.891  0.00  0.00    +0.000 HD
BRANCH  15  18
ATOM     18  C   UNL     1       1.461   9.124  19.500  0.00  0.00    +0.000 A 
ATOM     19  C   UNL     1       1.210   8.600  20.764  0.00  0.00    +0.000 A 
ATOM     20  C   UNL     1       0.621   9.422  21.717  0.00  0.00    +0.000 A 
ATOM     21  C   UNL     1       0.302  10.732  21.377  0.00  0.00    +0.000 A 
ATOM     22  C   UNL     1       0.582  11.170  20.089  0.00  0.00    +0.000 A 
ATOM     23  N   UNL     1       1.157  10.402  19.134  0.00  0.00    +0.000 NA
ENDBRANCH  15  18
ENDBRANCH   1  16
TORSDOF 4
ENDMDL
MODEL 7
REMARK VINA RESULT:      -8.2      2.490      5.958
REMARK  Name = 
REMARK  4 active torsions:
REMARK  status: ('A' for Active; 'I' for Inactive)
REMARK    1  A    between atoms: C_2  and  C_17
REMARK    2  A    between atoms: N_3  and  C_4
REMARK    3  A    between atoms: C_4  and  C_5
REMARK    4  A    between atoms: C_4  and  C_11
REMARK                            x       y       z     vdW  Elec       q    Type
REMARK                         _______ _______ _______ _____ _____    ______ ____
ROOT
ATOM      1  C   UNL     1       3.061   6.010  18.061  0.00  0.00    +0.000 C 
ENDROOT
BRANCH   1   2
ATOM      2  C   UNL     1       4.579   6.053  18.154  0.00  0.00    +0.000 A 
ATOM      3  C   UNL     1       5.274   5.410  19.191  0.00  0.00    +0.000 A 
ATOM      4  C   UNL     1       6.666   5.484  19.269  0.00  0.00    +0.000 A 
ATOM      5  C   UNL     1       7.384   6.199  18.312  0.00  0.00    +0.000 A 
ATOM      6  C   UNL     1       6.712   6.841  17.276  0.00  0.00    +0.000 A 
ATOM      7  C   UNL     1       5.320   6.770  17.197  0.00  0.00    +0.000 A 
ENDBRANCH   1   2
BRANCH   1   8
ATOM      8  C   UNL     1       2.478   4.621  18.308  0.00  0.00    +0.000 A 
ATOM      9  C   UNL     1       2.859   3.552  17.475  0.00  0.00    +0.000 A 
ATOM     10  C   UNL     1       2.350   2.267  17.676  0.00  0.00    +0.000 A 
ATOM     11  C   UNL     1       1.458   2.026  18.718  0.00  0.00    +0.000 A 
ATOM     12  C   UNL     1       1.074   3.068  19.557  0.00  0.00    +0.000 A 
ATOM     13  C   UNL     1       1.580   4.355  19.355  0.00  0.00    +0.000 A 
ENDBRANCH   1   8
BRANCH   1  16
ATOM     14  O   UNL     1       2.272   8.634  17.300  0.00  0.00    +0.000 OA
ATOM     15  C   UNL     1       2.101   8.260  18.457  0.00  0.00    +0.000 C 
ATOM     16  N   UNL     1       2.475   7.023  18.922  0.00  0.00    +0.000 N 
ATOM     17  H   UNL     1       2.313   6.832  19.904  0.00  0.00    +0.000 HD
BRANCH  15  18
ATOM     18  C   UNL     1       1.452   9.158  19.462  0.00  0.00    +0.000 A 
ATOM     19  C   UNL     1       1.183   8.658  20.732  0.00  0.00    +0.000 A 
ATOM     20  C   UNL     1       0.605   9.505  21.669  0.00  0.00    +0.000 A 
ATOM     21  C   UNL     1       0.313  10.816  21.308  0.00  0.00    +0.000 A 
ATOM     22  C   UNL     1       0.609  11.229  20.015  0.00  0.00    +0.000 A 
ATOM     23  N   UNL     1       1.175  10.436  19.075  0.00  0.00    +0.000 NA
ENDBRANCH  15  18
ENDBRANCH   1  16
TORSDOF 4
ENDMDL
MODEL 8
REMARK VINA RESULT:      -8.2      2.477      6.045
REMARK  Name = 
REMARK  4 active torsions:
REMARK  status: ('A' for Active; 'I' for Inactive)
REMARK    1  A    between atoms: C_2  and  C_17
REMARK    2  A    between atoms: N_3  and  C_4
REMARK    3  A    between atoms: C_4  and  C_5
REMARK    4  A    between atoms: C_4  and  C_11
REMARK                            x       y       z     vdW  Elec       q    Type
REMARK                         _______ _______ _______ _____ _____    ______ ____
ROOT
ATOM      1  C   UNL     1       3.040   6.029  18.037  0.00  0.00    +0.000 C 
ENDROOT
BRANCH   1   2
ATOM      2  C   UNL     1       4.558   6.088  18.116  0.00  0.00    +0.000 A 
ATOM      3  C   UNL     1       5.325   6.738  17.135  0.00  0.00    +0.000 A 
ATOM      4  C   UNL     1       6.718   6.758  17.216  0.00  0.00    +0.000 A 
ATOM      5  C   UNL     1       7.367   6.131  18.278  0.00  0.00    +0.000 A 
ATOM      6  C   UNL     1       6.623   5.484  19.261  0.00  0.00    +0.000 A 
ATOM      7  C   UNL     1       5.229   5.461  19.181  0.00  0.00    +0.000 A 
ENDBRANCH   1   2
BRANCH   1   8
ATOM      8  C   UNL     1       2.474   4.632  18.280  0.00  0.00    +0.000 A 
ATOM      9  C   UNL     1       2.876   3.569  17.451  0.00  0.00    +0.000 A 
ATOM     10  C   UNL     1       2.383   2.277  17.649  0.00  0.00    +0.000 A 
ATOM     11  C   UNL     1       1.486   2.024  18.684  0.00  0.00    +0.000 A 
ATOM     12  C   UNL     1       1.082   3.062  19.520  0.00  0.00    +0.000 A 
ATOM     13  C   UNL     1       1.572   4.355  19.321  0.00  0.00    +0.000 A 
ENDBRANCH   1   8
BRANCH   1  16
ATOM     14  O   UNL     1       2.302   8.681  17.322  0.00  0.00    +0.000 OA
ATOM     15  C   UNL     1       2.104   8.283  18.466  0.00  0.00    +0.000 C 
ATOM     16  N   UNL     1       2.452   7.031  18.910  0.00  0.00    +0.000 N 
ATOM     17  H   UNL     1       2.268   6.819  19.883  0.00  0.00    +0.000 HD
BRANCH  15  18
ATOM     18  C   UNL     1       1.447   9.167  19.479  0.00  0.00    +0.000 A 
ATOM     19  C   UNL     1       1.173   8.650  20.741  0.00  0.00    +0.000 A 
ATOM     20  C   UNL     1       0.588   9.484  21.685  0.00  0.00    +0.000 A 
ATOM     21  C   UNL     1       0.296  10.799  21.339  0.00  0.00    +0.000 A 
ATOM     22  C   UNL     1       0.598  11.229  20.053  0.00  0.00    +0.000 A 
ATOM     23  N   UNL     1       1.170  10.449  19.106  0.00  0.00    +0.000 NA
ENDBRANCH  15  18
ENDBRANCH   1  16
TORSDOF 4
ENDMDL
MODEL 9
REMARK VINA RESULT:      -8.2      0.609      1.457
REMARK  Name = 
REMARK  4 active torsions:
REMARK  status: ('A' for Active; 'I' for Inactive)
REMARK    1  A    between atoms: C_2  and  C_17
REMARK    2  A    between atoms: N_3  and  C_4
REMARK    3  A    between atoms: C_4  and  C_5
REMARK    4  A    between atoms: C_4  and  C_11
REMARK                            x       y       z     vdW  Elec       q    Type
REMARK                         _______ _______ _______ _____ _____    ______ ____
ROOT
ATOM      1  C   UNL     1       3.255   6.057  19.441  0.00  0.00    +0.000 C 
ENDROOT
BRANCH   1   2
ATOM      2  C   UNL     1       2.424   7.328  19.335  0.00  0.00    +0.000 A 
ATOM      3  C   UNL     1       1.738   7.856  20.441  0.00  0.00    +0.000 A 
ATOM      4  C   UNL     1       0.962   9.009  20.313  0.00  0.00    +0.000 A 
ATOM      5  C   UNL     1       0.861   9.653  19.082  0.00  0.00    +0.000 A 
ATOM      6  C   UNL     1       1.537   9.145  17.975  0.00  0.00    +0.000 A 
ATOM      7  C   UNL     1       2.312   7.991  18.100  0.00  0.00    +0.000 A 
ENDBRANCH   1   2
BRANCH   1   8
ATOM      8  C   UNL     1       2.450   4.844  19.902  0.00  0.00    +0.000 A 
ATOM      9  C   UNL     1       1.618   4.176  18.984  0.00  0.00    +0.000 A 
ATOM     10  C   UNL     1       0.873   3.059  19.369  0.00  0.00    +0.000 A 
ATOM     11  C   UNL     1       0.953   2.585  20.676  0.00  0.00    +0.000 A 
ATOM     12  C   UNL     1       1.776   3.227  21.597  0.00  0.00    +0.000 A 
ATOM     13  C   UNL     1       2.519   4.347  21.214  0.00  0.00    +0.000 A 
ENDBRANCH   1   8
BRANCH   1  16
ATOM     14  O   UNL     1       5.681   4.607  19.129  0.00  0.00    +0.000 OA
ATOM     15  C   UNL     1       5.124   5.079  18.142  0.00  0.00    +0.000 C 
ATOM     16  N   UNL     1       3.967   5.817  18.198  0.00  0.00    +0.000 N 
ATOM     17  H   UNL     1       3.611   6.184  17.324  0.00  0.00    +0.000 HD
BRANCH  15  18
ATOM     18  C   UNL     1       5.691   4.872  16.773  0.00  0.00    +0.000 A 
ATOM     19  C   UNL     1       7.011   5.240  16.532  0.00  0.00    +0.000 A 
ATOM     20  C   UNL     1       7.539   5.019  15.266  0.00  0.00    +0.000 A 
ATOM     21  C   UNL     1       6.736   4.444  14.288  0.00  0.00    +0.000 A 
ATOM     22  C   UNL     1       5.427   4.114  14.614  0.00  0.00    +0.000 A 
ATOM     23  N   UNL     1       4.876   4.310  15.835  0.00  0.00    +0.000 NA
ENDBRANCH  15  18
ENDBRANCH   1  16
TORSDOF 4
ENDMDL
