MODEL 1
REMARK VINA RESULT:      -8.2      0.000      0.000
REMARK  Name = 
REMARK  5 active torsions:
REMARK  status: ('A' for Active; 'I' for Inactive)
REMARK    1  A    between atoms: C_2  and  C_3
REMARK    2  A    between atoms: C_3  and  C_4
REMARK    3  A    between atoms: N_11  and  C_12
REMARK    4  A    between atoms: C_15  and  C_16
REMARK    5  A    between atoms: C_16  and  C_17
REMARK                            x       y       z     vdW  Elec       q    Type
REMARK                         _______ _______ _______ _____ _____    ______ ____
ROOT
ATOM      1  C   UNL     1       2.346   7.515  19.064  0.00  0.00    +0.000 A 
ATOM      2  C   UNL     1       1.749   7.961  20.244  0.00  0.00    +0.000 A 
ATOM      3  C   UNL     1       0.911   9.085  20.249  0.00  0.00    +0.000 A 
ATOM      4  C   UNL     1       0.650   9.790  19.068  0.00  0.00    +0.000 A 
ATOM      5  C   UNL     1       1.247   9.344  17.882  0.00  0.00    +0.000 A 
ATOM      6  C   UNL     1       2.089   8.219  17.881  0.00  0.00    +0.000 A 
ENDROOT
BRANCH   1   9
ATOM      7  O   UNL     1       1.756   4.646  19.339  0.00  0.00    +0.000 OA
ATOM      8  C   UNL     1       2.901   5.085  19.222  0.00  0.00    +0.000 C 
ATOM      9  N   UNL     1       3.235   6.413  19.016  0.00  0.00    +0.000 N 
ATOM     10  H   UNL     1       4.186   6.610  18.725  0.00  0.00    +0.000 HD
BRANCH   8  11
ATOM     11  C   UNL     1       4.089   4.137  19.289  0.00  0.00    +0.000 C 
BRANCH  11  12
ATOM     12  C   UNL     1       5.071   4.221  18.139  0.00  0.00    +0.000 A 
ATOM     13  C   UNL     1       4.617   3.925  16.840  0.00  0.00    +0.000 A 
ATOM     14  C   UNL     1       5.472   4.039  15.741  0.00  0.00    +0.000 A 
ATOM     15  C   UNL     1       6.780   4.463  15.932  0.00  0.00    +0.000 A 
ATOM     16  F   UNL     1       7.599   4.571  14.879  0.00  0.00    +0.000 F 
ATOM     17  C   UNL     1       7.244   4.785  17.200  0.00  0.00    +0.000 A 
ATOM     18  C   UNL     1       6.389   4.677  18.300  0.00  0.00    +0.000 A 
ENDBRANCH  11  12
ENDBRANCH   8  11
ENDBRANCH   1   9
BRANCH   4  19
ATOM     19  C   UNL     1      -0.224  11.036  19.102  0.00  0.00    +0.000 C 
BRANCH  19  20
ATOM     20  C   UNL     1      -0.144  11.847  20.371  0.00  0.00    +0.000 C 
ATOM     21  C   UNL     1      -1.019  11.787  21.378  0.00  0.00    +0.000 C 
ATOM     22  C   UNL     1      -0.575  12.722  22.400  0.00  0.00    +0.000 C 
ATOM     23  O   UNL     1      -1.179  12.952  23.431  0.00  0.00    +0.000 OA
ATOM     24  O   UNL     1       0.608  13.281  22.026  0.00  0.00    +0.000 OA
ATOM     25  C   UNL     1       0.878  12.811  20.726  0.00  0.00    +0.000 C 
ATOM     26  C   UNL     1       1.937  13.310  20.057  0.00  0.00    +0.000 C 
ATOM     27 BR   UNL     1       2.425  12.911  18.296  0.00  0.00    +0.000 Br
ATOM     28 BR   UNL     1       3.091  14.571  20.871  0.00  0.00    +0.000 Br
ENDBRANCH  19  20
ENDBRANCH   4  19
TORSDOF 5
ENDMDL
MODEL 2
REMARK VINA RESULT:      -8.0      2.016      2.622
REMARK  Name = 
REMARK  5 active torsions:
REMARK  status: ('A' for Active; 'I' for Inactive)
REMARK    1  A    between atoms: C_2  and  C_3
REMARK    2  A    between atoms: C_3  and  C_4
REMARK    3  A    between atoms: N_11  and  C_12
REMARK    4  A    between atoms: C_15  and  C_16
REMARK    5  A    between atoms: C_16  and  C_17
REMARK                            x       y       z     vdW  Elec       q    Type
REMARK                         _______ _______ _______ _____ _____    ______ ____
ROOT
ATOM      1  C   UNL     1       2.662   7.024  18.988  0.00  0.00    +0.000 A 
ATOM      2  C   UNL     1       2.346   8.130  18.197  0.00  0.00    +0.000 A 
ATOM      3  C   UNL     1       1.512   9.148  18.680  0.00  0.00    +0.000 A 
ATOM      4  C   UNL     1       0.974   9.084  19.971  0.00  0.00    +0.000 A 
ATOM      5  C   UNL     1       1.290   7.975  20.768  0.00  0.00    +0.000 A 
ATOM      6  C   UNL     1       2.124   6.955  20.279  0.00  0.00    +0.000 A 
ENDROOT
BRANCH   1   9
ATOM      7  O   UNL     1       1.825   4.474  17.783  0.00  0.00    +0.000 OA
ATOM      8  C   UNL     1       3.001   4.741  18.033  0.00  0.00    +0.000 C 
ATOM      9  N   UNL     1       3.462   5.950  18.529  0.00  0.00    +0.000 N 
ATOM     10  H   UNL     1       4.461   6.114  18.488  0.00  0.00    +0.000 HD
BRANCH   8  11
ATOM     11  C   UNL     1       4.086   3.704  17.785  0.00  0.00    +0.000 C 
BRANCH  11  12
ATOM     12  C   UNL     1       5.138   4.075  16.762  0.00  0.00    +0.000 A 
ATOM     13  C   UNL     1       4.769   4.140  15.405  0.00  0.00    +0.000 A 
ATOM     14  C   UNL     1       5.691   4.530  14.430  0.00  0.00    +0.000 A 
ATOM     15  C   UNL     1       6.984   4.869  14.808  0.00  0.00    +0.000 A 
ATOM     16  F   UNL     1       7.867   5.241  13.874  0.00  0.00    +0.000 F 
ATOM     17  C   UNL     1       7.365   4.838  16.142  0.00  0.00    +0.000 A 
ATOM     18  C   UNL     1       6.442   4.455  17.119  0.00  0.00    +0.000 A 
ENDBRANCH  11  12
ENDBRANCH   8  11
ENDBRANCH   1   9
BRANCH   4  19
ATOM     19  C   UNL     1       0.032  10.174  20.460  0.00  0.00    +0.000 C 
BRANCH  19  20
ATOM     20  C   UNL     1      -0.714  10.916  19.380  0.00  0.00    +0.000 C 
ATOM     21  C   UNL     1      -1.642  10.383  18.581  0.00  0.00    +0.000 C 
ATOM     22  C   UNL     1      -2.108  11.434  17.690  0.00  0.00    +0.000 C 
ATOM     23  O   UNL     1      -2.920  11.269  16.798  0.00  0.00    +0.000 OA
ATOM     24  O   UNL     1      -1.505  12.610  18.014  0.00  0.00    +0.000 OA
ATOM     25  C   UNL     1      -0.570  12.314  19.024  0.00  0.00    +0.000 C 
ATOM     26  C   UNL     1       0.264  13.284  19.447  0.00  0.00    +0.000 C 
ATOM     27 BR   UNL     1       1.644  13.095  20.697  0.00  0.00    +0.000 Br
ATOM     28 BR   UNL     1       0.143  15.040  18.751  0.00  0.00    +0.000 Br
ENDBRANCH  19  20
ENDBRANCH   4  19
TORSDOF 5
ENDMDL
MODEL 3
REMARK VINA RESULT:      -8.0      2.558      3.012
REMARK  Name = 
REMARK  5 active torsions:
REMARK  status: ('A' for Active; 'I' for Inactive)
REMARK    1  A    between atoms: C_2  and  C_3
REMARK    2  A    between atoms: C_3  and  C_4
REMARK    3  A    between atoms: N_11  and  C_12
REMARK    4  A    between atoms: C_15  and  C_16
REMARK    5  A    between atoms: C_16  and  C_17
REMARK                            x       y       z     vdW  Elec       q    Type
REMARK                         _______ _______ _______ _____ _____    ______ ____
ROOT
ATOM      1  C   UNL     1       2.480   7.448  18.942  0.00  0.00    +0.000 A 
ATOM      2  C   UNL     1       1.809   7.738  20.132  0.00  0.00    +0.000 A 
ATOM      3  C   UNL     1       1.084   8.929  20.279  0.00  0.00    +0.000 A 
ATOM      4  C   UNL     1       1.011   9.859  19.236  0.00  0.00    +0.000 A 
ATOM      5  C   UNL     1       1.683   9.570  18.040  0.00  0.00    +0.000 A 
ATOM      6  C   UNL     1       2.411   8.377  17.897  0.00  0.00    +0.000 A 
ENDROOT
BRANCH   1   9
ATOM      7  O   UNL     1       1.698   4.628  19.247  0.00  0.00    +0.000 OA
ATOM      8  C   UNL     1       2.851   4.978  18.988  0.00  0.00    +0.000 C 
ATOM      9  N   UNL     1       3.262   6.281  18.761  0.00  0.00    +0.000 N 
ATOM     10  H   UNL     1       4.180   6.410  18.351  0.00  0.00    +0.000 HD
BRANCH   8  11
ATOM     11  C   UNL     1       3.956   3.938  18.884  0.00  0.00    +0.000 C 
BRANCH  11  12
ATOM     12  C   UNL     1       4.994   4.179  17.809  0.00  0.00    +0.000 A 
ATOM     13  C   UNL     1       4.615   4.045  16.460  0.00  0.00    +0.000 A 
ATOM     14  C   UNL     1       5.523   4.308  15.431  0.00  0.00    +0.000 A 
ATOM     15  C   UNL     1       6.812   4.720  15.745  0.00  0.00    +0.000 A 
ATOM     16  F   UNL     1       7.682   4.971  14.759  0.00  0.00    +0.000 F 
ATOM     17  C   UNL     1       7.203   4.885  17.067  0.00  0.00    +0.000 A 
ATOM     18  C   UNL     1       6.294   4.628  18.096  0.00  0.00    +0.000 A 
ENDBRANCH  11  12
ENDBRANCH   8  11
ENDBRANCH   1   9
BRANCH   4  19
ATOM     19  C   UNL     1       0.259  11.168  19.432  0.00  0.00    +0.000 C 
BRANCH  19  20
ATOM     20  C   UNL     1      -1.154  11.186  18.907  0.00  0.00    +0.000 C 
ATOM     21  C   UNL     1      -1.591  10.498  17.850  0.00  0.00    +0.000 C 
ATOM     22  C   UNL     1      -3.005  10.795  17.688  0.00  0.00    +0.000 C 
ATOM     23  O   UNL     1      -3.698  10.369  16.782  0.00  0.00    +0.000 OA
ATOM     24  O   UNL     1      -3.422  11.605  18.699  0.00  0.00    +0.000 OA
ATOM     25  C   UNL     1      -2.274  11.931  19.447  0.00  0.00    +0.000 C 
ATOM     26  C   UNL     1      -2.378  12.831  20.445  0.00  0.00    +0.000 C 
ATOM     27 BR   UNL     1      -0.979  13.488  21.498  0.00  0.00    +0.000 Br
ATOM     28 BR   UNL     1      -4.051  13.598  20.888  0.00  0.00    +0.000 Br
ENDBRANCH  19  20
ENDBRANCH   4  19
TORSDOF 5
ENDMDL
MODEL 4
REMARK VINA RESULT:      -8.0      2.763      3.382
REMARK  Name = 
REMARK  5 active torsions:
REMARK  status: ('A' for Active; 'I' for Inactive)
REMARK    1  A    between atoms: C_2  and  C_3
REMARK    2  A    between atoms: C_3  and  C_4
REMARK    3  A    between atoms: N_11  and  C_12
REMARK    4  A    between atoms: C_15  and  C_16
REMARK    5  A    between atoms: C_16  and  C_17
REMARK                            x       y       z     vdW  Elec       q    Type
REMARK                         _______ _______ _______ _____ _____    ______ ____
ROOT
ATOM      1  C   UNL     1       2.337   7.575  19.165  0.00  0.00    +0.000 A 
ATOM      2  C   UNL     1       1.691   7.827  20.376  0.00  0.00    +0.000 A 
ATOM      3  C   UNL     1       0.871   8.953  20.535  0.00  0.00    +0.000 A 
ATOM      4  C   UNL     1       0.677   9.855  19.482  0.00  0.00    +0.000 A 
ATOM      5  C   UNL     1       1.324   9.604  18.265  0.00  0.00    +0.000 A 
ATOM      6  C   UNL     1       2.147   8.476  18.110  0.00  0.00    +0.000 A 
ENDROOT
BRANCH   1   9
ATOM      7  O   UNL     1       1.705   4.704  19.039  0.00  0.00    +0.000 OA
ATOM      8  C   UNL     1       2.857   5.138  18.989  0.00  0.00    +0.000 C 
ATOM      9  N   UNL     1       3.210   6.477  18.968  0.00  0.00    +0.000 N 
ATOM     10  H   UNL     1       4.166   6.698  18.711  0.00  0.00    +0.000 HD
BRANCH   8  11
ATOM     11  C   UNL     1       4.031   4.173  18.929  0.00  0.00    +0.000 C 
BRANCH  11  12
ATOM     12  C   UNL     1       4.967   4.338  17.750  0.00  0.00    +0.000 A 
ATOM     13  C   UNL     1       6.328   4.593  17.998  0.00  0.00    +0.000 A 
ATOM     14  C   UNL     1       7.240   4.701  16.944  0.00  0.00    +0.000 A 
ATOM     15  C   UNL     1       6.798   4.540  15.638  0.00  0.00    +0.000 A 
ATOM     16  F   UNL     1       7.671   4.644  14.629  0.00  0.00    +0.000 F 
ATOM     17  C   UNL     1       5.465   4.262  15.368  0.00  0.00    +0.000 A 
ATOM     18  C   UNL     1       4.553   4.148  16.422  0.00  0.00    +0.000 A 
ENDBRANCH  11  12
ENDBRANCH   8  11
ENDBRANCH   1   9
BRANCH   4  19
ATOM     19  C   UNL     1      -0.178  11.097  19.690  0.00  0.00    +0.000 C 
BRANCH  19  20
ATOM     20  C   UNL     1      -1.483  11.117  18.935  0.00  0.00    +0.000 C 
ATOM     21  C   UNL     1      -1.725  10.458  17.799  0.00  0.00    +0.000 C 
ATOM     22  C   UNL     1      -3.096  10.745  17.410  0.00  0.00    +0.000 C 
ATOM     23  O   UNL     1      -3.620  10.342  16.387  0.00  0.00    +0.000 OA
ATOM     24  O   UNL     1      -3.690  11.517  18.360  0.00  0.00    +0.000 OA
ATOM     25  C   UNL     1      -2.690  11.832  19.300  0.00  0.00    +0.000 C 
ATOM     26  C   UNL     1      -2.975  12.697  20.293  0.00  0.00    +0.000 C 
ATOM     27 BR   UNL     1      -1.784  13.335  21.587  0.00  0.00    +0.000 Br
ATOM     28 BR   UNL     1      -4.711  13.432  20.471  0.00  0.00    +0.000 Br
ENDBRANCH  19  20
ENDBRANCH   4  19
TORSDOF 5
ENDMDL
MODEL 5
REMARK VINA RESULT:      -7.9      4.880      9.840
REMARK  Name = 
REMARK  5 active torsions:
REMARK  status: ('A' for Active; 'I' for Inactive)
REMARK    1  A    between atoms: C_2  and  C_3
REMARK    2  A    between atoms: C_3  and  C_4
REMARK    3  A    between atoms: N_11  and  C_12
REMARK    4  A    between atoms: C_15  and  C_16
REMARK    5  A    between atoms: C_16  and  C_17
REMARK                            x       y       z     vdW  Elec       q    Type
REMARK                         _______ _______ _______ _____ _____    ______ ____
ROOT
ATOM      1  C   UNL     1       0.930   8.867  20.321  0.00  0.00    +0.000 A 
ATOM      2  C   UNL     1       1.596   7.686  20.655  0.00  0.00    +0.000 A 
ATOM      3  C   UNL     1       2.433   7.045  19.731  0.00  0.00    +0.000 A 
ATOM      4  C   UNL     1       2.626   7.573  18.449  0.00  0.00    +0.000 A 
ATOM      5  C   UNL     1       1.959   8.759  18.112  0.00  0.00    +0.000 A 
ATOM      6  C   UNL     1       1.118   9.398  19.040  0.00  0.00    +0.000 A 
ENDROOT
BRANCH   1   9
ATOM      7  O   UNL     1       1.154  11.546  21.517  0.00  0.00    +0.000 OA
ATOM      8  C   UNL     1       0.238  10.768  21.788  0.00  0.00    +0.000 C 
ATOM      9  N   UNL     1       0.040   9.527  21.203  0.00  0.00    +0.000 N 
ATOM     10  H   UNL     1      -0.859   9.084  21.356  0.00  0.00    +0.000 HD
BRANCH   8  11
ATOM     11  C   UNL     1      -0.800  11.148  22.832  0.00  0.00    +0.000 C 
BRANCH  11  12
ATOM     12  C   UNL     1      -2.000  11.920  22.326  0.00  0.00    +0.000 A 
ATOM     13  C   UNL     1      -3.025  12.249  23.233  0.00  0.00    +0.000 A 
ATOM     14  C   UNL     1      -4.126  13.006  22.824  0.00  0.00    +0.000 A 
ATOM     15  C   UNL     1      -4.203  13.449  21.510  0.00  0.00    +0.000 A 
ATOM     16  F   UNL     1      -5.258  14.173  21.119  0.00  0.00    +0.000 F 
ATOM     17  C   UNL     1      -3.193  13.159  20.603  0.00  0.00    +0.000 A 
ATOM     18  C   UNL     1      -2.088  12.408  21.012  0.00  0.00    +0.000 A 
ENDBRANCH  11  12
ENDBRANCH   8  11
ENDBRANCH   1   9
BRANCH   4  19
ATOM     19  C   UNL     1       3.500   6.837  17.444  0.00  0.00    +0.000 C 
BRANCH  19  20
ATOM     20  C   UNL     1       4.578   5.968  18.041  0.00  0.00    +0.000 C 
ATOM     21  C   UNL     1       5.839   6.348  18.260  0.00  0.00    +0.000 C 
ATOM     22  C   UNL     1       6.542   5.218  18.845  0.00  0.00    +0.000 C 
ATOM     23  O   UNL     1       7.729   5.212  19.118  0.00  0.00    +0.000 OA
ATOM     24  O   UNL     1       5.674   4.189  19.040  0.00  0.00    +0.000 OA
ATOM     25  C   UNL     1       4.445   4.594  18.483  0.00  0.00    +0.000 C 
ATOM     26  C   UNL     1       3.430   3.709  18.425  0.00  0.00    +0.000 C 
ATOM     27 BR   UNL     1       1.753   3.992  17.644  0.00  0.00    +0.000 Br
ATOM     28 BR   UNL     1       3.620   1.967  19.142  0.00  0.00    +0.000 Br
ENDBRANCH  19  20
ENDBRANCH   4  19
TORSDOF 5
ENDMDL
MODEL 6
REMARK VINA RESULT:      -7.9      5.107      9.930
REMARK  Name = 
REMARK  5 active torsions:
REMARK  status: ('A' for Active; 'I' for Inactive)
REMARK    1  A    between atoms: C_2  and  C_3
REMARK    2  A    between atoms: C_3  and  C_4
REMARK    3  A    between atoms: N_11  and  C_12
REMARK    4  A    between atoms: C_15  and  C_16
REMARK    5  A    between atoms: C_16  and  C_17
REMARK                            x       y       z     vdW  Elec       q    Type
REMARK                         _______ _______ _______ _____ _____    ______ ____
ROOT
ATOM      1  C   UNL     1       0.693   9.494  18.915  0.00  0.00    +0.000 A 
ATOM      2  C   UNL     1       1.475   9.117  17.822  0.00  0.00    +0.000 A 
ATOM      3  C   UNL     1       2.421   8.089  17.933  0.00  0.00    +0.000 A 
ATOM      4  C   UNL     1       2.608   7.412  19.144  0.00  0.00    +0.000 A 
ATOM      5  C   UNL     1       1.823   7.788  20.243  0.00  0.00    +0.000 A 
ATOM      6  C   UNL     1       0.877   8.821  20.129  0.00  0.00    +0.000 A 
ENDROOT
BRANCH   1   9
ATOM      7  O   UNL     1      -1.829   9.670  17.410  0.00  0.00    +0.000 OA
ATOM      8  C   UNL     1      -1.384  10.603  18.079  0.00  0.00    +0.000 C 
ATOM      9  N   UNL     1      -0.244  10.555  18.866  0.00  0.00    +0.000 N 
ATOM     10  H   UNL     1      -0.108  11.312  19.526  0.00  0.00    +0.000 HD
BRANCH   8  11
ATOM     11  C   UNL     1      -2.107  11.941  18.094  0.00  0.00    +0.000 C 
BRANCH  11  12
ATOM     12  C   UNL     1      -3.592  11.890  18.385  0.00  0.00    +0.000 A 
ATOM     13  C   UNL     1      -4.048  12.300  19.652  0.00  0.00    +0.000 A 
ATOM     14  C   UNL     1      -5.413  12.321  19.950  0.00  0.00    +0.000 A 
ATOM     15  C   UNL     1      -6.331  11.945  18.978  0.00  0.00    +0.000 A 
ATOM     16  F   UNL     1      -7.638  11.964  19.263  0.00  0.00    +0.000 F 
ATOM     17  C   UNL     1      -5.908  11.561  17.713  0.00  0.00    +0.000 A 
ATOM     18  C   UNL     1      -4.543  11.545  17.412  0.00  0.00    +0.000 A 
ENDBRANCH  11  12
ENDBRANCH   8  11
ENDBRANCH   1   9
BRANCH   4  19
ATOM     19  C   UNL     1       3.674   6.332  19.257  0.00  0.00    +0.000 C 
BRANCH  19  20
ATOM     20  C   UNL     1       3.447   5.107  18.408  0.00  0.00    +0.000 C 
ATOM     21  C   UNL     1       2.503   4.187  18.620  0.00  0.00    +0.000 C 
ATOM     22  C   UNL     1       2.628   3.183  17.577  0.00  0.00    +0.000 C 
ATOM     23  O   UNL     1       1.950   2.174  17.509  0.00  0.00    +0.000 OA
ATOM     24  O   UNL     1       3.602   3.550  16.701  0.00  0.00    +0.000 OA
ATOM     25  C   UNL     1       4.189   4.717  17.225  0.00  0.00    +0.000 C 
ATOM     26  C   UNL     1       5.277   5.232  16.617  0.00  0.00    +0.000 C 
ATOM     27 BR   UNL     1       6.276   6.706  17.190  0.00  0.00    +0.000 Br
ATOM     28 BR   UNL     1       5.970   4.445  15.041  0.00  0.00    +0.000 Br
ENDBRANCH  19  20
ENDBRANCH   4  19
TORSDOF 5
ENDMDL
MODEL 7
REMARK VINA RESULT:      -7.9      4.517      9.839
REMARK  Name = 
REMARK  5 active torsions:
REMARK  status: ('A' for Active; 'I' for Inactive)
REMARK    1  A    between atoms: C_2  and  C_3
REMARK    2  A    between atoms: C_3  and  C_4
REMARK    3  A    between atoms: N_11  and  C_12
REMARK    4  A    between atoms: C_15  and  C_16
REMARK    5  A    between atoms: C_16  and  C_17
REMARK                            x       y       z     vdW  Elec       q    Type
REMARK                         _______ _______ _______ _____ _____    ______ ____
ROOT
ATOM      1  C   UNL     1       0.651   9.563  19.116  0.00  0.00    +0.000 A 
ATOM      2  C   UNL     1       1.389   9.193  17.991  0.00  0.00    +0.000 A 
ATOM      3  C   UNL     1       2.320   8.147  18.050  0.00  0.00    +0.000 A 
ATOM      4  C   UNL     1       2.534   7.443  19.242  0.00  0.00    +0.000 A 
ATOM      5  C   UNL     1       1.794   7.812  20.373  0.00  0.00    +0.000 A 
ATOM      6  C   UNL     1       0.863   8.864  20.310  0.00  0.00    +0.000 A 
ENDROOT
BRANCH   1   9
ATOM      7  O   UNL     1       1.068  12.352  19.957  0.00  0.00    +0.000 OA
ATOM      8  C   UNL     1      -0.027  11.920  19.594  0.00  0.00    +0.000 C 
ATOM      9  N   UNL     1      -0.268  10.641  19.118  0.00  0.00    +0.000 N 
ATOM     10  H   UNL     1      -1.156  10.481  18.656  0.00  0.00    +0.000 HD
BRANCH   8  11
ATOM     11  C   UNL     1      -1.252  12.821  19.635  0.00  0.00    +0.000 C 
BRANCH  11  12
ATOM     12  C   UNL     1      -2.129  12.692  20.863  0.00  0.00    +0.000 A 
ATOM     13  C   UNL     1      -1.609  12.048  22.001  0.00  0.00    +0.000 A 
ATOM     14  C   UNL     1      -2.361  11.951  23.175  0.00  0.00    +0.000 A 
ATOM     15  C   UNL     1      -3.631  12.510  23.222  0.00  0.00    +0.000 A 
ATOM     16  F   UNL     1      -4.352  12.417  24.346  0.00  0.00    +0.000 F 
ATOM     17  C   UNL     1      -4.157  13.172  22.121  0.00  0.00    +0.000 A 
ATOM     18  C   UNL     1      -3.403  13.275  20.948  0.00  0.00    +0.000 A 
ENDBRANCH  11  12
ENDBRANCH   8  11
ENDBRANCH   1   9
BRANCH   4  19
ATOM     19  C   UNL     1       3.584   6.343  19.299  0.00  0.00    +0.000 C 
BRANCH  19  20
ATOM     20  C   UNL     1       3.286   5.121  18.468  0.00  0.00    +0.000 C 
ATOM     21  C   UNL     1       2.337   4.221  18.736  0.00  0.00    +0.000 C 
ATOM     22  C   UNL     1       2.383   3.211  17.690  0.00  0.00    +0.000 C 
ATOM     23  O   UNL     1       1.682   2.216  17.664  0.00  0.00    +0.000 OA
ATOM     24  O   UNL     1       3.315   3.556  16.761  0.00  0.00    +0.000 OA
ATOM     25  C   UNL     1       3.954   4.713  17.248  0.00  0.00    +0.000 C 
ATOM     26  C   UNL     1       5.016   5.204  16.579  0.00  0.00    +0.000 C 
ATOM     27 BR   UNL     1       6.075   6.659  17.091  0.00  0.00    +0.000 Br
ATOM     28 BR   UNL     1       5.606   4.399  14.970  0.00  0.00    +0.000 Br
ENDBRANCH  19  20
ENDBRANCH   4  19
TORSDOF 5
ENDMDL
MODEL 8
REMARK VINA RESULT:      -7.8      4.917      9.906
REMARK  Name = 
REMARK  5 active torsions:
REMARK  status: ('A' for Active; 'I' for Inactive)
REMARK    1  A    between atoms: C_2  and  C_3
REMARK    2  A    between atoms: C_3  and  C_4
REMARK    3  A    between atoms: N_11  and  C_12
REMARK    4  A    between atoms: C_15  and  C_16
REMARK    5  A    between atoms: C_16  and  C_17
REMARK                            x       y       z     vdW  Elec       q    Type
REMARK                         _______ _______ _______ _____ _____    ______ ____
ROOT
ATOM      1  C   UNL     1       0.734   9.591  19.026  0.00  0.00    +0.000 A 
ATOM      2  C   UNL     1       1.496   9.192  17.926  0.00  0.00    +0.000 A 
ATOM      3  C   UNL     1       2.401   8.126  18.025  0.00  0.00    +0.000 A 
ATOM      4  C   UNL     1       2.564   7.432  19.230  0.00  0.00    +0.000 A 
ATOM      5  C   UNL     1       1.800   7.830  20.335  0.00  0.00    +0.000 A 
ATOM      6  C   UNL     1       0.895   8.901  20.233  0.00  0.00    +0.000 A 
ENDROOT
BRANCH   1   9
ATOM      7  O   UNL     1      -2.059   9.676  18.104  0.00  0.00    +0.000 OA
ATOM      8  C   UNL     1      -1.447  10.678  18.476  0.00  0.00    +0.000 C 
ATOM      9  N   UNL     1      -0.160  10.689  18.988  0.00  0.00    +0.000 N 
ATOM     10  H   UNL     1       0.144  11.538  19.451  0.00  0.00    +0.000 HD
BRANCH   8  11
ATOM     11  C   UNL     1      -2.111  12.045  18.403  0.00  0.00    +0.000 C 
BRANCH  11  12
ATOM     12  C   UNL     1      -3.242  12.287  19.379  0.00  0.00    +0.000 A 
ATOM     13  C   UNL     1      -4.561  12.018  18.967  0.00  0.00    +0.000 A 
ATOM     14  C   UNL     1      -5.633  12.176  19.849  0.00  0.00    +0.000 A 
ATOM     15  C   UNL     1      -5.392  12.590  21.152  0.00  0.00    +0.000 A 
ATOM     16  F   UNL     1      -6.419  12.742  21.997  0.00  0.00    +0.000 F 
ATOM     17  C   UNL     1      -4.098  12.837  21.591  0.00  0.00    +0.000 A 
ATOM     18  C   UNL     1      -3.024  12.674  20.711  0.00  0.00    +0.000 A 
ENDBRANCH  11  12
ENDBRANCH   8  11
ENDBRANCH   1   9
BRANCH   4  19
ATOM     19  C   UNL     1       3.587   6.309  19.330  0.00  0.00    +0.000 C 
BRANCH  19  20
ATOM     20  C   UNL     1       3.303   5.098  18.478  0.00  0.00    +0.000 C 
ATOM     21  C   UNL     1       2.362   4.185  18.729  0.00  0.00    +0.000 C 
ATOM     22  C   UNL     1       2.421   3.192  17.667  0.00  0.00    +0.000 C 
ATOM     23  O   UNL     1       1.730   2.191  17.622  0.00  0.00    +0.000 OA
ATOM     24  O   UNL     1       3.352   3.561  16.747  0.00  0.00    +0.000 OA
ATOM     25  C   UNL     1       3.979   4.716  17.254  0.00  0.00    +0.000 C 
ATOM     26  C   UNL     1       5.038   5.228  16.597  0.00  0.00    +0.000 C 
ATOM     27 BR   UNL     1       6.082   6.684  17.135  0.00  0.00    +0.000 Br
ATOM     28 BR   UNL     1       5.640   4.454  14.976  0.00  0.00    +0.000 Br
ENDBRANCH  19  20
ENDBRANCH   4  19
TORSDOF 5
ENDMDL
MODEL 9
REMARK VINA RESULT:      -7.8      0.229      1.330
REMARK  Name = 
REMARK  5 active torsions:
REMARK  status: ('A' for Active; 'I' for Inactive)
REMARK    1  A    between atoms: C_2  and  C_3
REMARK    2  A    between atoms: C_3  and  C_4
REMARK    3  A    between atoms: N_11  and  C_12
REMARK    4  A    between atoms: C_15  and  C_16
REMARK    5  A    between atoms: C_16  and  C_17
REMARK                            x       y       z     vdW  Elec       q    Type
REMARK                         _______ _______ _______ _____ _____    ______ ____
ROOT
ATOM      1  C   UNL     1       2.393   7.536  18.883  0.00  0.00    +0.000 A 
ATOM      2  C   UNL     1       2.058   8.286  17.754  0.00  0.00    +0.000 A 
ATOM      3  C   UNL     1       1.205   9.394  17.852  0.00  0.00    +0.000 A 
ATOM      4  C   UNL     1       0.667   9.779  19.086  0.00  0.00    +0.000 A 
ATOM      5  C   UNL     1       1.002   9.028  20.220  0.00  0.00    +0.000 A 
ATOM      6  C   UNL     1       1.855   7.916  20.118  0.00  0.00    +0.000 A 
ENDROOT
BRANCH   1   9
ATOM      7  O   UNL     1       2.030   4.939  20.219  0.00  0.00    +0.000 OA
ATOM      8  C   UNL     1       3.022   5.209  19.539  0.00  0.00    +0.000 C 
ATOM      9  N   UNL     1       3.214   6.382  18.828  0.00  0.00    +0.000 N 
ATOM     10  H   UNL     1       3.964   6.391  18.147  0.00  0.00    +0.000 HD
BRANCH   8  11
ATOM     11  C   UNL     1       4.160   4.206  19.422  0.00  0.00    +0.000 C 
BRANCH  11  12
ATOM     12  C   UNL     1       5.032   4.332  18.191  0.00  0.00    +0.000 A 
ATOM     13  C   UNL     1       6.367   4.751  18.348  0.00  0.00    +0.000 A 
ATOM     14  C   UNL     1       7.226   4.832  17.249  0.00  0.00    +0.000 A 
ATOM     15  C   UNL     1       6.759   4.482  15.989  0.00  0.00    +0.000 A 
ATOM     16  F   UNL     1       7.582   4.560  14.936  0.00  0.00    +0.000 F 
ATOM     17  C   UNL     1       5.455   4.041  15.812  0.00  0.00    +0.000 A 
ATOM     18  C   UNL     1       4.596   3.953  16.911  0.00  0.00    +0.000 A 
ENDBRANCH  11  12
ENDBRANCH   8  11
ENDBRANCH   1   9
BRANCH   4  19
ATOM     19  C   UNL     1      -0.296  10.956  19.164  0.00  0.00    +0.000 C 
BRANCH  19  20
ATOM     20  C   UNL     1      -0.217  11.773  20.428  0.00  0.00    +0.000 C 
ATOM     21  C   UNL     1      -1.083  11.707  21.442  0.00  0.00    +0.000 C 
ATOM     22  C   UNL     1      -0.643  12.651  22.457  0.00  0.00    +0.000 C 
ATOM     23  O   UNL     1      -1.243  12.878  23.491  0.00  0.00    +0.000 OA
ATOM     24  O   UNL     1       0.530  13.224  22.071  0.00  0.00    +0.000 OA
ATOM     25  C   UNL     1       0.795  12.752  20.772  0.00  0.00    +0.000 C 
ATOM     26  C   UNL     1       1.843  13.261  20.093  0.00  0.00    +0.000 C 
ATOM     27 BR   UNL     1       2.323  12.861  18.329  0.00  0.00    +0.000 Br
ATOM     28 BR   UNL     1       2.987  14.540  20.892  0.00  0.00    +0.000 Br
ENDBRANCH  19  20
ENDBRANCH   4  19
TORSDOF 5
ENDMDL
