MODEL 1
REMARK VINA RESULT:      -6.1      0.000      0.000
REMARK  Name = 
REMARK  3 active torsions:
REMARK  status: ('A' for Active; 'I' for Inactive)
REMARK    1  A    between atoms: C_1  and  C_2
REMARK    2  A    between atoms: C_5  and  C_6
REMARK    3  A    between atoms: C_7  and  N_8
REMARK                            x       y       z     vdW  Elec       q    Type
REMARK                         _______ _______ _______ _____ _____    ______ ____
ROOT
ATOM      1  C   UNL     1       6.113   3.856  13.421  0.00  0.00    +0.000 C 
ATOM      2  C   UNL     1       6.168   4.237  14.870  0.00  0.00    +0.000 A 
ATOM      3  C   UNL     1       7.301   4.851  15.392  0.00  0.00    +0.000 A 
ATOM      4  N   UNL     1       7.330   5.188  16.699  0.00  0.00    +0.000 NA
ATOM      5  C   UNL     1       6.276   4.981  17.533  0.00  0.00    +0.000 A 
ATOM      6  C   UNL     1       6.499   5.347  18.978  0.00  0.00    +0.000 C 
ATOM      7  C   UNL     1       5.091   4.368  17.006  0.00  0.00    +0.000 A 
ATOM      8  N   UNL     1       5.102   3.997  15.689  0.00  0.00    +0.000 NA
ENDROOT
BRANCH   7   9
ATOM      9  N   UNL     1       3.939   4.062  17.818  0.00  0.00    +0.000 N 
ATOM     10  C   UNL     1       2.835   4.995  17.993  0.00  0.00    +0.000 C 
ATOM     11  C   UNL     1       1.507   4.278  17.760  0.00  0.00    +0.000 C 
ATOM     12  N   UNL     1       1.405   3.117  18.650  0.00  0.00    +0.000 NA
ATOM     13  C   UNL     1       2.467   2.156  18.325  0.00  0.00    +0.000 C 
ATOM     14  C   UNL     1       3.841   2.801  18.552  0.00  0.00    +0.000 C 
ATOM     15  H   UNL     1       0.475   2.667  18.506  0.00  0.00    +0.000 HD
ENDBRANCH   7   9
TORSDOF 1
ENDMDL
MODEL 2
REMARK VINA RESULT:      -6.1      1.146      1.222
REMARK  Name = 
REMARK  3 active torsions:
REMARK  status: ('A' for Active; 'I' for Inactive)
REMARK    1  A    between atoms: C_1  and  C_2
REMARK    2  A    between atoms: C_5  and  C_6
REMARK    3  A    between atoms: C_7  and  N_8
REMARK                            x       y       z     vdW  Elec       q    Type
REMARK                         _______ _______ _______ _____ _____    ______ ____
ROOT
ATOM      1  C   UNL     1       5.663   3.518  12.992  0.00  0.00    +0.000 C 
ATOM      2  C   UNL     1       6.050   4.262  14.236  0.00  0.00    +0.000 A 
ATOM      3  C   UNL     1       7.237   4.985  14.281  0.00  0.00    +0.000 A 
ATOM      4  N   UNL     1       7.566   5.649  15.410  0.00  0.00    +0.000 NA
ATOM      5  C   UNL     1       6.766   5.669  16.508  0.00  0.00    +0.000 A 
ATOM      6  C   UNL     1       7.314   6.396  17.709  0.00  0.00    +0.000 C 
ATOM      7  C   UNL     1       5.527   4.947  16.471  0.00  0.00    +0.000 A 
ATOM      8  N   UNL     1       5.236   4.247  15.332  0.00  0.00    +0.000 NA
ENDROOT
BRANCH   7   9
ATOM      9  N   UNL     1       4.632   4.866  17.599  0.00  0.00    +0.000 N 
ATOM     10  C   UNL     1       3.537   5.805  17.797  0.00  0.00    +0.000 C 
ATOM     11  C   UNL     1       2.249   5.044  18.104  0.00  0.00    +0.000 C 
ATOM     12  N   UNL     1       2.452   4.169  19.263  0.00  0.00    +0.000 NA
ATOM     13  C   UNL     1       3.473   3.162  18.943  0.00  0.00    +0.000 C 
ATOM     14  C   UNL     1       4.809   3.853  18.638  0.00  0.00    +0.000 C 
ATOM     15  H   UNL     1       1.552   3.690  19.483  0.00  0.00    +0.000 HD
ENDBRANCH   7   9
TORSDOF 1
ENDMDL
MODEL 3
REMARK VINA RESULT:      -6.1      1.491      2.051
REMARK  Name = 
REMARK  3 active torsions:
REMARK  status: ('A' for Active; 'I' for Inactive)
REMARK    1  A    between atoms: C_1  and  C_2
REMARK    2  A    between atoms: C_5  and  C_6
REMARK    3  A    between atoms: C_7  and  N_8
REMARK                            x       y       z     vdW  Elec       q    Type
REMARK                         _______ _______ _______ _____ _____    ______ ____
ROOT
ATOM      1  C   UNL     1       5.832   3.505  12.687  0.00  0.00    +0.000 C 
ATOM      2  C   UNL     1       6.131   4.171  13.998  0.00  0.00    +0.000 A 
ATOM      3  C   UNL     1       7.307   4.893  14.166  0.00  0.00    +0.000 A 
ATOM      4  N   UNL     1       7.556   5.486  15.354  0.00  0.00    +0.000 NA
ATOM      5  C   UNL     1       6.684   5.435  16.395  0.00  0.00    +0.000 A 
ATOM      6  C   UNL     1       7.146   6.087  17.673  0.00  0.00    +0.000 C 
ATOM      7  C   UNL     1       5.455   4.713  16.231  0.00  0.00    +0.000 A 
ATOM      8  N   UNL     1       5.245   4.085  15.034  0.00  0.00    +0.000 NA
ENDROOT
BRANCH   7   9
ATOM      9  N   UNL     1       4.487   4.560  17.289  0.00  0.00    +0.000 N 
ATOM     10  C   UNL     1       4.251   3.286  17.954  0.00  0.00    +0.000 C 
ATOM     11  C   UNL     1       4.264   3.481  19.469  0.00  0.00    +0.000 C 
ATOM     12  N   UNL     1       3.282   4.501  19.849  0.00  0.00    +0.000 NA
ATOM     13  C   UNL     1       3.660   5.790  19.253  0.00  0.00    +0.000 C 
ATOM     14  C   UNL     1       3.653   5.679  17.723  0.00  0.00    +0.000 C 
ATOM     15  H   UNL     1       3.276   4.589  20.888  0.00  0.00    +0.000 HD
ENDBRANCH   7   9
TORSDOF 1
ENDMDL
MODEL 4
REMARK VINA RESULT:      -6.0      2.016      3.139
REMARK  Name = 
REMARK  3 active torsions:
REMARK  status: ('A' for Active; 'I' for Inactive)
REMARK    1  A    between atoms: C_1  and  C_2
REMARK    2  A    between atoms: C_5  and  C_6
REMARK    3  A    between atoms: C_7  and  N_8
REMARK                            x       y       z     vdW  Elec       q    Type
REMARK                         _______ _______ _______ _____ _____    ______ ____
ROOT
ATOM      1  C   UNL     1       7.934   5.846  19.104  0.00  0.00    +0.000 C 
ATOM      2  C   UNL     1       6.683   5.208  18.576  0.00  0.00    +0.000 A 
ATOM      3  C   UNL     1       6.558   4.926  17.220  0.00  0.00    +0.000 A 
ATOM      4  N   UNL     1       5.424   4.350  16.765  0.00  0.00    +0.000 NA
ATOM      5  C   UNL     1       4.400   3.999  17.587  0.00  0.00    +0.000 A 
ATOM      6  C   UNL     1       3.178   3.434  16.910  0.00  0.00    +0.000 C 
ATOM      7  C   UNL     1       4.522   4.263  18.991  0.00  0.00    +0.000 A 
ATOM      8  N   UNL     1       5.661   4.886  19.422  0.00  0.00    +0.000 NA
ENDROOT
BRANCH   7   9
ATOM      9  N   UNL     1       3.473   3.974  19.938  0.00  0.00    +0.000 N 
ATOM     10  C   UNL     1       2.568   4.998  20.439  0.00  0.00    +0.000 C 
ATOM     11  C   UNL     1       1.124   4.510  20.339  0.00  0.00    +0.000 C 
ATOM     12  N   UNL     1       0.978   3.237  21.052  0.00  0.00    +0.000 NA
ATOM     13  C   UNL     1       1.816   2.217  20.408  0.00  0.00    +0.000 C 
ATOM     14  C   UNL     1       3.292   2.630  20.484  0.00  0.00    +0.000 C 
ATOM     15  H   UNL     1      -0.021   2.942  21.009  0.00  0.00    +0.000 HD
ENDBRANCH   7   9
TORSDOF 1
ENDMDL
MODEL 5
REMARK VINA RESULT:      -5.9      1.983      5.301
REMARK  Name = 
REMARK  3 active torsions:
REMARK  status: ('A' for Active; 'I' for Inactive)
REMARK    1  A    between atoms: C_1  and  C_2
REMARK    2  A    between atoms: C_5  and  C_6
REMARK    3  A    between atoms: C_7  and  N_8
REMARK                            x       y       z     vdW  Elec       q    Type
REMARK                         _______ _______ _______ _____ _____    ______ ____
ROOT
ATOM      1  C   UNL     1       2.175   2.935  21.505  0.00  0.00    +0.000 C 
ATOM      2  C   UNL     1       2.559   4.023  20.547  0.00  0.00    +0.000 A 
ATOM      3  C   UNL     1       1.826   5.203  20.494  0.00  0.00    +0.000 A 
ATOM      4  N   UNL     1       2.190   6.171  19.626  0.00  0.00    +0.000 NA
ATOM      5  C   UNL     1       3.273   6.057  18.812  0.00  0.00    +0.000 A 
ATOM      6  C   UNL     1       3.497   7.195  17.851  0.00  0.00    +0.000 C 
ATOM      7  C   UNL     1       4.053   4.855  18.869  0.00  0.00    +0.000 A 
ATOM      8  N   UNL     1       3.640   3.871  19.726  0.00  0.00    +0.000 NA
ENDROOT
BRANCH   7   9
ATOM      9  N   UNL     1       5.190   4.616  18.015  0.00  0.00    +0.000 N 
ATOM     10  C   UNL     1       5.069   3.977  16.712  0.00  0.00    +0.000 C 
ATOM     11  C   UNL     1       5.822   4.790  15.662  0.00  0.00    +0.000 C 
ATOM     12  N   UNL     1       7.220   4.961  16.073  0.00  0.00    +0.000 NA
ATOM     13  C   UNL     1       7.271   5.732  17.323  0.00  0.00    +0.000 C 
ATOM     14  C   UNL     1       6.545   4.967  18.437  0.00  0.00    +0.000 C 
ATOM     15  H   UNL     1       7.727   5.482  15.325  0.00  0.00    +0.000 HD
ENDBRANCH   7   9
TORSDOF 1
ENDMDL
MODEL 6
REMARK VINA RESULT:      -5.9      1.637      2.266
REMARK  Name = 
REMARK  3 active torsions:
REMARK  status: ('A' for Active; 'I' for Inactive)
REMARK    1  A    between atoms: C_1  and  C_2
REMARK    2  A    between atoms: C_5  and  C_6
REMARK    3  A    between atoms: C_7  and  N_8
REMARK                            x       y       z     vdW  Elec       q    Type
REMARK                         _______ _______ _______ _____ _____    ______ ____
ROOT
ATOM      1  C   UNL     1       6.418   4.248  14.630  0.00  0.00    +0.000 C 
ATOM      2  C   UNL     1       5.513   4.788  15.696  0.00  0.00    +0.000 A 
ATOM      3  C   UNL     1       5.345   6.160  15.846  0.00  0.00    +0.000 A 
ATOM      4  N   UNL     1       4.524   6.625  16.812  0.00  0.00    +0.000 NA
ATOM      5  C   UNL     1       3.820   5.804  17.634  0.00  0.00    +0.000 A 
ATOM      6  C   UNL     1       3.006   6.484  18.705  0.00  0.00    +0.000 C 
ATOM      7  C   UNL     1       3.964   4.385  17.479  0.00  0.00    +0.000 A 
ATOM      8  N   UNL     1       4.834   3.938  16.522  0.00  0.00    +0.000 NA
ENDROOT
BRANCH   7   9
ATOM      9  N   UNL     1       3.299   3.431  18.331  0.00  0.00    +0.000 N 
ATOM     10  C   UNL     1       3.853   3.005  19.609  0.00  0.00    +0.000 C 
ATOM     11  C   UNL     1       2.780   3.086  20.693  0.00  0.00    +0.000 C 
ATOM     12  N   UNL     1       1.611   2.293  20.297  0.00  0.00    +0.000 NA
ATOM     13  C   UNL     1       1.024   2.862  19.077  0.00  0.00    +0.000 C 
ATOM     14  C   UNL     1       2.042   2.801  17.931  0.00  0.00    +0.000 C 
ATOM     15  H   UNL     1       0.909   2.326  21.067  0.00  0.00    +0.000 HD
ENDBRANCH   7   9
TORSDOF 1
ENDMDL
MODEL 7
REMARK VINA RESULT:      -5.9      2.172      2.816
REMARK  Name = 
REMARK  3 active torsions:
REMARK  status: ('A' for Active; 'I' for Inactive)
REMARK    1  A    between atoms: C_1  and  C_2
REMARK    2  A    between atoms: C_5  and  C_6
REMARK    3  A    between atoms: C_7  and  N_8
REMARK                            x       y       z     vdW  Elec       q    Type
REMARK                         _______ _______ _______ _____ _____    ______ ____
ROOT
ATOM      1  C   UNL     1       7.689   4.596  17.614  0.00  0.00    +0.000 C 
ATOM      2  C   UNL     1       6.300   5.145  17.753  0.00  0.00    +0.000 A 
ATOM      3  C   UNL     1       5.991   6.405  17.251  0.00  0.00    +0.000 A 
ATOM      4  N   UNL     1       4.733   6.880  17.385  0.00  0.00    +0.000 NA
ATOM      5  C   UNL     1       3.737   6.163  17.967  0.00  0.00    +0.000 A 
ATOM      6  C   UNL     1       2.412   6.868  18.102  0.00  0.00    +0.000 C 
ATOM      7  C   UNL     1       4.034   4.853  18.470  0.00  0.00    +0.000 A 
ATOM      8  N   UNL     1       5.324   4.411  18.362  0.00  0.00    +0.000 NA
ENDROOT
BRANCH   7   9
ATOM      9  N   UNL     1       3.059   4.033  19.147  0.00  0.00    +0.000 N 
ATOM     10  C   UNL     1       2.621   4.303  20.509  0.00  0.00    +0.000 C 
ATOM     11  C   UNL     1       1.095   4.270  20.579  0.00  0.00    +0.000 C 
ATOM     12  N   UNL     1       0.601   2.985  20.077  0.00  0.00    +0.000 NA
ATOM     13  C   UNL     1       0.963   2.841  18.660  0.00  0.00    +0.000 C 
ATOM     14  C   UNL     1       2.490   2.848  18.508  0.00  0.00    +0.000 C 
ATOM     15  H   UNL     1      -0.437   2.965  20.172  0.00  0.00    +0.000 HD
ENDBRANCH   7   9
TORSDOF 1
ENDMDL
MODEL 8
REMARK VINA RESULT:      -5.9      1.976      5.299
REMARK  Name = 
REMARK  3 active torsions:
REMARK  status: ('A' for Active; 'I' for Inactive)
REMARK    1  A    between atoms: C_1  and  C_2
REMARK    2  A    between atoms: C_5  and  C_6
REMARK    3  A    between atoms: C_7  and  N_8
REMARK                            x       y       z     vdW  Elec       q    Type
REMARK                         _______ _______ _______ _____ _____    ______ ____
ROOT
ATOM      1  C   UNL     1       2.711   2.768  21.265  0.00  0.00    +0.000 C 
ATOM      2  C   UNL     1       2.841   3.998  20.417  0.00  0.00    +0.000 A 
ATOM      3  C   UNL     1       1.908   5.024  20.521  0.00  0.00    +0.000 A 
ATOM      4  N   UNL     1       2.043   6.124  19.749  0.00  0.00    +0.000 NA
ATOM      5  C   UNL     1       3.081   6.291  18.887  0.00  0.00    +0.000 A 
ATOM      6  C   UNL     1       3.043   7.542  18.048  0.00  0.00    +0.000 C 
ATOM      7  C   UNL     1       4.065   5.253  18.784  0.00  0.00    +0.000 A 
ATOM      8  N   UNL     1       3.882   4.130  19.543  0.00  0.00    +0.000 NA
ENDROOT
BRANCH   7   9
ATOM      9  N   UNL     1       5.175   5.312  17.865  0.00  0.00    +0.000 N 
ATOM     10  C   UNL     1       6.508   5.727  18.276  0.00  0.00    +0.000 C 
ATOM     11  C   UNL     1       7.544   4.729  17.764  0.00  0.00    +0.000 C 
ATOM     12  N   UNL     1       7.425   4.590  16.310  0.00  0.00    +0.000 NA
ATOM     13  C   UNL     1       6.105   4.038  15.977  0.00  0.00    +0.000 C 
ATOM     14  C   UNL     1       5.005   4.999  16.447  0.00  0.00    +0.000 C 
ATOM     15  H   UNL     1       8.167   3.937  15.974  0.00  0.00    +0.000 HD
ENDBRANCH   7   9
TORSDOF 1
ENDMDL
MODEL 9
REMARK VINA RESULT:      -5.8      2.256      3.162
REMARK  Name = 
REMARK  3 active torsions:
REMARK  status: ('A' for Active; 'I' for Inactive)
REMARK    1  A    between atoms: C_1  and  C_2
REMARK    2  A    between atoms: C_5  and  C_6
REMARK    3  A    between atoms: C_7  and  N_8
REMARK                            x       y       z     vdW  Elec       q    Type
REMARK                         _______ _______ _______ _____ _____    ______ ____
ROOT
ATOM      1  C   UNL     1       7.070   4.506  17.604  0.00  0.00    +0.000 C 
ATOM      2  C   UNL     1       5.797   5.288  17.736  0.00  0.00    +0.000 A 
ATOM      3  C   UNL     1       5.697   6.562  17.188  0.00  0.00    +0.000 A 
ATOM      4  N   UNL     1       4.541   7.249  17.316  0.00  0.00    +0.000 NA
ATOM      5  C   UNL     1       3.447   6.734  17.937  0.00  0.00    +0.000 A 
ATOM      6  C   UNL     1       2.263   7.659  18.059  0.00  0.00    +0.000 C 
ATOM      7  C   UNL     1       3.527   5.413  18.489  0.00  0.00    +0.000 A 
ATOM      8  N   UNL     1       4.721   4.754  18.384  0.00  0.00    +0.000 NA
ENDROOT
BRANCH   7   9
ATOM      9  N   UNL     1       2.439   4.796  19.208  0.00  0.00    +0.000 N 
ATOM     10  C   UNL     1       1.446   3.956  18.554  0.00  0.00    +0.000 C 
ATOM     11  C   UNL     1       1.266   2.658  19.339  0.00  0.00    +0.000 C 
ATOM     12  N   UNL     1       0.913   2.962  20.729  0.00  0.00    +0.000 NA
ATOM     13  C   UNL     1       2.018   3.692  21.366  0.00  0.00    +0.000 C 
ATOM     14  C   UNL     1       2.250   5.023  20.640  0.00  0.00    +0.000 C 
ATOM     15  H   UNL     1       0.753   2.065  21.237  0.00  0.00    +0.000 HD
ENDBRANCH   7   9
TORSDOF 1
ENDMDL
