MODEL 1
REMARK VINA RESULT:      -7.9      0.000      0.000
REMARK  Name = 
REMARK  11 active torsions:
REMARK  status: ('A' for Active; 'I' for Inactive)
REMARK    1  A    between atoms: C_1  and  C_2
REMARK    2  A    between atoms: C_2  and  N_4
REMARK    3  A    between atoms: N_4  and  C_5
REMARK    4  A    between atoms: C_5  and  C_6
REMARK    5  A    between atoms: C_6  and  C_7
REMARK    6  A    between atoms: C_7  and  C_8
REMARK    7  A    between atoms: C_8  and  C_9
REMARK    8  A    between atoms: C_9  and  N_10
REMARK    9  A    between atoms: C_9  and  C_18
REMARK   10  A    between atoms: C_11  and  C_13
REMARK   11  A    between atoms: N_20  and  C_21
REMARK                            x       y       z     vdW  Elec       q    Type
REMARK                         _______ _______ _______ _____ _____    ______ ____
ROOT
ATOM      1  C   UNL     1       7.392   5.929  17.784  0.00  0.00    +0.000 C 
ENDROOT
BRANCH   1   2
ATOM      2  N   UNL     1       7.386   5.114  16.582  0.00  0.00    +0.000 N 
ATOM      3  C   UNL     1       6.587   5.328  15.485  0.00  0.00    +0.000 C 
ATOM      4  O   UNL     1       5.713   6.186  15.448  0.00  0.00    +0.000 OA
ATOM      5  H   UNL     1       8.152   4.460  16.422  0.00  0.00    +0.000 HD
BRANCH   3   6
ATOM      6  C   UNL     1       6.858   4.332  14.345  0.00  0.00    +0.000 C 
ATOM      7  C   UNL     1       7.507   4.993  13.144  0.00  0.00    +0.000 C 
ATOM      8  C   UNL     1       7.148   4.065  11.999  0.00  0.00    +0.000 C 
ATOM      9  C   UNL     1       5.822   3.439  12.402  0.00  0.00    +0.000 C 
ATOM     10  N   UNL     1       5.567   3.839  13.788  0.00  0.00    +0.000 NA
ATOM     11  H   UNL     1       5.244   3.042  14.336  0.00  0.00    +0.000 HD
ENDBRANCH   3   6
ENDBRANCH   1   2
BRANCH   1  12
ATOM     12  C   UNL     1       6.292   5.474  18.770  0.00  0.00    +0.000 C 
ATOM     13  O   UNL     1       6.622   5.163  19.916  0.00  0.00    +0.000 OA
ATOM     14  N   UNL     1       5.009   5.378  18.256  0.00  0.00    +0.000 N 
ATOM     15  H   UNL     1       4.934   5.339  17.239  0.00  0.00    +0.000 HD
BRANCH  14  16
ATOM     16  C   UNL     1       3.836   5.102  19.002  0.00  0.00    +0.000 A 
ATOM     17  C   UNL     1       3.070   6.097  19.620  0.00  0.00    +0.000 A 
ATOM     18  C   UNL     1       1.923   5.780  20.353  0.00  0.00    +0.000 A 
ATOM     19  C   UNL     1       1.513   4.456  20.466  0.00  0.00    +0.000 A 
ATOM     20  C   UNL     1       2.252   3.452  19.841  0.00  0.00    +0.000 A 
ATOM     21  C   UNL     1       3.407   3.772  19.111  0.00  0.00    +0.000 A 
ENDBRANCH  14  16
ENDBRANCH   1  12
BRANCH   1  22
ATOM     22  C   UNL     1       7.478   7.431  17.497  0.00  0.00    +0.000 C 
BRANCH  22  23
ATOM     23  C   UNL     1       8.338   8.222  18.487  0.00  0.00    +0.000 C 
BRANCH  23  24
ATOM     24  C   UNL     1       8.548   9.698  18.130  0.00  0.00    +0.000 C 
BRANCH  24  25
ATOM     25  C   UNL     1       9.307  10.383  19.263  0.00  0.00    +0.000 C 
BRANCH  25  26
ATOM     26  N   UNL     1      10.331  11.298  18.806  0.00  0.00    +0.000 N 
ATOM     27  H   UNL     1      11.311  11.063  18.931  0.00  0.00    +0.000 HD
BRANCH  26  29
ATOM     28  C   UNL     1      10.914  12.948  17.060  0.00  0.00    +0.000 C 
ATOM     29  C   UNL     1      10.078  12.521  18.243  0.00  0.00    +0.000 C 
ATOM     30  S   UNL     1       8.873  13.490  18.870  0.00  0.00    +0.000 S 
ENDBRANCH  26  29
ENDBRANCH  25  26
ENDBRANCH  24  25
ENDBRANCH  23  24
ENDBRANCH  22  23
ENDBRANCH   1  22
TORSDOF 10
ENDMDL
MODEL 2
REMARK VINA RESULT:      -7.8      1.574      5.599
REMARK  Name = 
REMARK  11 active torsions:
REMARK  status: ('A' for Active; 'I' for Inactive)
REMARK    1  A    between atoms: C_1  and  C_2
REMARK    2  A    between atoms: C_2  and  N_4
REMARK    3  A    between atoms: N_4  and  C_5
REMARK    4  A    between atoms: C_5  and  C_6
REMARK    5  A    between atoms: C_6  and  C_7
REMARK    6  A    between atoms: C_7  and  C_8
REMARK    7  A    between atoms: C_8  and  C_9
REMARK    8  A    between atoms: C_9  and  N_10
REMARK    9  A    between atoms: C_9  and  C_18
REMARK   10  A    between atoms: C_11  and  C_13
REMARK   11  A    between atoms: N_20  and  C_21
REMARK                            x       y       z     vdW  Elec       q    Type
REMARK                         _______ _______ _______ _____ _____    ______ ____
ROOT
ATOM      1  C   UNL     1       6.699   6.402  17.609  0.00  0.00    +0.000 C 
ENDROOT
BRANCH   1   2
ATOM      2  N   UNL     1       5.758   5.769  18.516  0.00  0.00    +0.000 N 
ATOM      3  C   UNL     1       4.489   5.361  18.183  0.00  0.00    +0.000 C 
ATOM      4  O   UNL     1       3.978   5.585  17.091  0.00  0.00    +0.000 OA
ATOM      5  H   UNL     1       6.097   5.401  19.404  0.00  0.00    +0.000 HD
BRANCH   3   6
ATOM      6  C   UNL     1       3.760   4.667  19.344  0.00  0.00    +0.000 C 
ATOM      7  C   UNL     1       2.594   3.820  18.869  0.00  0.00    +0.000 C 
ATOM      8  C   UNL     1       1.704   3.735  20.094  0.00  0.00    +0.000 C 
ATOM      9  C   UNL     1       1.966   5.022  20.861  0.00  0.00    +0.000 C 
ATOM     10  N   UNL     1       3.095   5.685  20.204  0.00  0.00    +0.000 NA
ATOM     11  H   UNL     1       3.759   6.029  20.898  0.00  0.00    +0.000 HD
ENDBRANCH   3   6
ENDBRANCH   1   2
BRANCH   1  12
ATOM     12  C   UNL     1       7.048   5.468  16.428  0.00  0.00    +0.000 C 
ATOM     13  O   UNL     1       7.879   4.577  16.610  0.00  0.00    +0.000 OA
ATOM     14  N   UNL     1       6.444   5.760  15.216  0.00  0.00    +0.000 N 
ATOM     15  H   UNL     1       6.053   6.699  15.123  0.00  0.00    +0.000 HD
BRANCH  14  16
ATOM     16  C   UNL     1       6.522   4.974  14.040  0.00  0.00    +0.000 A 
ATOM     17  C   UNL     1       7.540   5.118  13.089  0.00  0.00    +0.000 A 
ATOM     18  C   UNL     1       7.576   4.326  11.938  0.00  0.00    +0.000 A 
ATOM     19  C   UNL     1       6.598   3.361  11.727  0.00  0.00    +0.000 A 
ATOM     20  C   UNL     1       5.586   3.189  12.671  0.00  0.00    +0.000 A 
ATOM     21  C   UNL     1       5.549   3.989  13.822  0.00  0.00    +0.000 A 
ENDBRANCH  14  16
ENDBRANCH   1  12
BRANCH   1  22
ATOM     22  C   UNL     1       7.876   7.070  18.327  0.00  0.00    +0.000 C 
BRANCH  22  23
ATOM     23  C   UNL     1       8.120   8.529  17.932  0.00  0.00    +0.000 C 
BRANCH  23  24
ATOM     24  C   UNL     1       8.940   9.347  18.936  0.00  0.00    +0.000 C 
BRANCH  24  25
ATOM     25  C   UNL     1       9.116  10.764  18.402  0.00  0.00    +0.000 C 
BRANCH  25  26
ATOM     26  N   UNL     1      10.491  11.218  18.398  0.00  0.00    +0.000 N 
ATOM     27  H   UNL     1      11.129  10.892  17.679  0.00  0.00    +0.000 HD
BRANCH  26  29
ATOM     28  C   UNL     1      10.424  12.035  20.730  0.00  0.00    +0.000 C 
ATOM     29  C   UNL     1      11.033  12.042  19.348  0.00  0.00    +0.000 C 
ATOM     30  S   UNL     1      12.331  13.017  18.960  0.00  0.00    +0.000 S 
ENDBRANCH  26  29
ENDBRANCH  25  26
ENDBRANCH  24  25
ENDBRANCH  23  24
ENDBRANCH  22  23
ENDBRANCH   1  22
TORSDOF 10
ENDMDL
MODEL 3
REMARK VINA RESULT:      -7.7      1.649      5.895
REMARK  Name = 
REMARK  11 active torsions:
REMARK  status: ('A' for Active; 'I' for Inactive)
REMARK    1  A    between atoms: C_1  and  C_2
REMARK    2  A    between atoms: C_2  and  N_4
REMARK    3  A    between atoms: N_4  and  C_5
REMARK    4  A    between atoms: C_5  and  C_6
REMARK    5  A    between atoms: C_6  and  C_7
REMARK    6  A    between atoms: C_7  and  C_8
REMARK    7  A    between atoms: C_8  and  C_9
REMARK    8  A    between atoms: C_9  and  N_10
REMARK    9  A    between atoms: C_9  and  C_18
REMARK   10  A    between atoms: C_11  and  C_13
REMARK   11  A    between atoms: N_20  and  C_21
REMARK                            x       y       z     vdW  Elec       q    Type
REMARK                         _______ _______ _______ _____ _____    ______ ____
ROOT
ATOM      1  C   UNL     1       5.564   5.952  17.810  0.00  0.00    +0.000 C 
ENDROOT
BRANCH   1   2
ATOM      2  N   UNL     1       4.394   5.277  18.344  0.00  0.00    +0.000 N 
ATOM      3  C   UNL     1       3.152   5.845  18.492  0.00  0.00    +0.000 C 
ATOM      4  O   UNL     1       2.925   7.030  18.275  0.00  0.00    +0.000 OA
ATOM      5  H   UNL     1       4.405   4.262  18.432  0.00  0.00    +0.000 HD
BRANCH   3   6
ATOM      6  C   UNL     1       2.103   4.857  19.027  0.00  0.00    +0.000 C 
ATOM      7  C   UNL     1       1.901   4.985  20.525  0.00  0.00    +0.000 C 
ATOM      8  C   UNL     1       1.348   3.629  20.920  0.00  0.00    +0.000 C 
ATOM      9  C   UNL     1       1.935   2.656  19.908  0.00  0.00    +0.000 C 
ATOM     10  N   UNL     1       2.605   3.462  18.884  0.00  0.00    +0.000 NA
ATOM     11  H   UNL     1       2.378   3.113  17.952  0.00  0.00    +0.000 HD
ENDBRANCH   3   6
ENDBRANCH   1   2
BRANCH   1  12
ATOM     12  C   UNL     1       5.600   5.864  16.267  0.00  0.00    +0.000 C 
ATOM     13  O   UNL     1       5.084   6.772  15.614  0.00  0.00    +0.000 OA
ATOM     14  N   UNL     1       6.155   4.712  15.731  0.00  0.00    +0.000 N 
ATOM     15  H   UNL     1       6.234   3.915  16.363  0.00  0.00    +0.000 HD
BRANCH  14  16
ATOM     16  C   UNL     1       6.401   4.473  14.356  0.00  0.00    +0.000 A 
ATOM     17  C   UNL     1       5.632   3.595  13.583  0.00  0.00    +0.000 A 
ATOM     18  C   UNL     1       5.913   3.381  12.230  0.00  0.00    +0.000 A 
ATOM     19  C   UNL     1       6.965   4.059  11.624  0.00  0.00    +0.000 A 
ATOM     20  C   UNL     1       7.731   4.951  12.373  0.00  0.00    +0.000 A 
ATOM     21  C   UNL     1       7.451   5.159  13.731  0.00  0.00    +0.000 A 
ENDBRANCH  14  16
ENDBRANCH   1  12
BRANCH   1  22
ATOM     22  C   UNL     1       6.858   5.596  18.547  0.00  0.00    +0.000 C 
BRANCH  22  23
ATOM     23  C   UNL     1       7.823   6.769  18.746  0.00  0.00    +0.000 C 
BRANCH  23  24
ATOM     24  C   UNL     1       7.962   7.708  17.542  0.00  0.00    +0.000 C 
BRANCH  24  25
ATOM     25  C   UNL     1       8.022   9.149  18.037  0.00  0.00    +0.000 C 
BRANCH  25  26
ATOM     26  N   UNL     1       9.091   9.396  18.982  0.00  0.00    +0.000 N 
ATOM     27  H   UNL     1       9.510   8.619  19.485  0.00  0.00    +0.000 HD
BRANCH  26  29
ATOM     28  C   UNL     1       9.345  11.150  20.704  0.00  0.00    +0.000 C 
ATOM     29  C   UNL     1       9.567  10.640  19.301  0.00  0.00    +0.000 C 
ATOM     30  S   UNL     1      10.366  11.545  18.148  0.00  0.00    +0.000 S 
ENDBRANCH  26  29
ENDBRANCH  25  26
ENDBRANCH  24  25
ENDBRANCH  23  24
ENDBRANCH  22  23
ENDBRANCH   1  22
TORSDOF 10
ENDMDL
MODEL 4
REMARK VINA RESULT:      -7.7      0.941      1.356
REMARK  Name = 
REMARK  11 active torsions:
REMARK  status: ('A' for Active; 'I' for Inactive)
REMARK    1  A    between atoms: C_1  and  C_2
REMARK    2  A    between atoms: C_2  and  N_4
REMARK    3  A    between atoms: N_4  and  C_5
REMARK    4  A    between atoms: C_5  and  C_6
REMARK    5  A    between atoms: C_6  and  C_7
REMARK    6  A    between atoms: C_7  and  C_8
REMARK    7  A    between atoms: C_8  and  C_9
REMARK    8  A    between atoms: C_9  and  N_10
REMARK    9  A    between atoms: C_9  and  C_18
REMARK   10  A    between atoms: C_11  and  C_13
REMARK   11  A    between atoms: N_20  and  C_21
REMARK                            x       y       z     vdW  Elec       q    Type
REMARK                         _______ _______ _______ _____ _____    ______ ____
ROOT
ATOM      1  C   UNL     1       6.894   5.589  17.776  0.00  0.00    +0.000 C 
ENDROOT
BRANCH   1   2
ATOM      2  N   UNL     1       7.124   4.905  16.517  0.00  0.00    +0.000 N 
ATOM      3  C   UNL     1       6.492   5.194  15.331  0.00  0.00    +0.000 C 
ATOM      4  O   UNL     1       5.582   6.010  15.237  0.00  0.00    +0.000 OA
ATOM      5  H   UNL     1       7.944   4.307  16.420  0.00  0.00    +0.000 HD
BRANCH   3   6
ATOM      6  C   UNL     1       6.997   4.336  14.160  0.00  0.00    +0.000 C 
ATOM      7  C   UNL     1       7.391   5.174  12.958  0.00  0.00    +0.000 C 
ATOM      8  C   UNL     1       7.273   4.201  11.801  0.00  0.00    +0.000 C 
ATOM      9  C   UNL     1       6.194   3.215  12.225  0.00  0.00    +0.000 C 
ATOM     10  N   UNL     1       5.883   3.504  13.627  0.00  0.00    +0.000 NA
ATOM     11  H   UNL     1       5.819   2.638  14.163  0.00  0.00    +0.000 HD
ENDBRANCH   3   6
ENDBRANCH   1   2
BRANCH   1  12
ATOM     12  C   UNL     1       5.739   4.931  18.565  0.00  0.00    +0.000 C 
ATOM     13  O   UNL     1       6.019   4.202  19.518  0.00  0.00    +0.000 OA
ATOM     14  N   UNL     1       4.460   5.156  18.083  0.00  0.00    +0.000 N 
ATOM     15  H   UNL     1       4.394   5.487  17.120  0.00  0.00    +0.000 HD
BRANCH  14  16
ATOM     16  C   UNL     1       3.254   4.755  18.711  0.00  0.00    +0.000 A 
ATOM     17  C   UNL     1       2.378   3.816  18.156  0.00  0.00    +0.000 A 
ATOM     18  C   UNL     1       1.194   3.454  18.806  0.00  0.00    +0.000 A 
ATOM     19  C   UNL     1       0.876   4.018  20.036  0.00  0.00    +0.000 A 
ATOM     20  C   UNL     1       1.746   4.941  20.615  0.00  0.00    +0.000 A 
ATOM     21  C   UNL     1       2.930   5.308  19.958  0.00  0.00    +0.000 A 
ENDBRANCH  14  16
ENDBRANCH   1  12
BRANCH   1  22
ATOM     22  C   UNL     1       6.846   7.114  17.636  0.00  0.00    +0.000 C 
BRANCH  22  23
ATOM     23  C   UNL     1       8.150   7.830  18.001  0.00  0.00    +0.000 C 
BRANCH  23  24
ATOM     24  C   UNL     1       8.155   9.342  17.748  0.00  0.00    +0.000 C 
BRANCH  24  25
ATOM     25  C   UNL     1       8.995  10.026  18.821  0.00  0.00    +0.000 C 
BRANCH  25  26
ATOM     26  N   UNL     1       9.067  11.464  18.674  0.00  0.00    +0.000 N 
ATOM     27  H   UNL     1       8.367  11.952  18.124  0.00  0.00    +0.000 HD
BRANCH  26  29
ATOM     28  C   UNL     1      10.750  11.777  20.457  0.00  0.00    +0.000 C 
ATOM     29  C   UNL     1      10.066  12.243  19.194  0.00  0.00    +0.000 C 
ATOM     30  S   UNL     1      10.494  13.665  18.432  0.00  0.00    +0.000 S 
ENDBRANCH  26  29
ENDBRANCH  25  26
ENDBRANCH  24  25
ENDBRANCH  23  24
ENDBRANCH  22  23
ENDBRANCH   1  22
TORSDOF 10
ENDMDL
MODEL 5
REMARK VINA RESULT:      -7.6      0.748      1.210
REMARK  Name = 
REMARK  11 active torsions:
REMARK  status: ('A' for Active; 'I' for Inactive)
REMARK    1  A    between atoms: C_1  and  C_2
REMARK    2  A    between atoms: C_2  and  N_4
REMARK    3  A    between atoms: N_4  and  C_5
REMARK    4  A    between atoms: C_5  and  C_6
REMARK    5  A    between atoms: C_6  and  C_7
REMARK    6  A    between atoms: C_7  and  C_8
REMARK    7  A    between atoms: C_8  and  C_9
REMARK    8  A    between atoms: C_9  and  N_10
REMARK    9  A    between atoms: C_9  and  C_18
REMARK   10  A    between atoms: C_11  and  C_13
REMARK   11  A    between atoms: N_20  and  C_21
REMARK                            x       y       z     vdW  Elec       q    Type
REMARK                         _______ _______ _______ _____ _____    ______ ____
ROOT
ATOM      1  C   UNL     1       7.327   6.191  17.744  0.00  0.00    +0.000 C 
ENDROOT
BRANCH   1   2
ATOM      2  N   UNL     1       7.425   5.360  16.557  0.00  0.00    +0.000 N 
ATOM      3  C   UNL     1       6.575   5.416  15.479  0.00  0.00    +0.000 C 
ATOM      4  O   UNL     1       5.571   6.119  15.452  0.00  0.00    +0.000 OA
ATOM      5  H   UNL     1       8.283   4.837  16.388  0.00  0.00    +0.000 HD
BRANCH   3   6
ATOM      6  C   UNL     1       6.977   4.453  14.350  0.00  0.00    +0.000 C 
ATOM      7  C   UNL     1       7.494   5.184  13.125  0.00  0.00    +0.000 C 
ATOM      8  C   UNL     1       7.263   4.190  12.003  0.00  0.00    +0.000 C 
ATOM      9  C   UNL     1       6.058   3.373  12.444  0.00  0.00    +0.000 C 
ATOM     10  N   UNL     1       5.770   3.755  13.828  0.00  0.00    +0.000 NA
ATOM     11  H   UNL     1       5.585   2.927  14.395  0.00  0.00    +0.000 HD
ENDBRANCH   3   6
ENDBRANCH   1   2
BRANCH   1  12
ATOM     12  C   UNL     1       6.480   5.501  18.838  0.00  0.00    +0.000 C 
ATOM     13  O   UNL     1       6.985   5.327  19.948  0.00  0.00    +0.000 OA
ATOM     14  N   UNL     1       5.225   5.057  18.454  0.00  0.00    +0.000 N 
ATOM     15  H   UNL     1       5.069   4.964  17.450  0.00  0.00    +0.000 HD
BRANCH  14  16
ATOM     16  C   UNL     1       4.240   4.512  19.314  0.00  0.00    +0.000 A 
ATOM     17  C   UNL     1       4.189   3.156  19.657  0.00  0.00    +0.000 A 
ATOM     18  C   UNL     1       3.195   2.657  20.503  0.00  0.00    +0.000 A 
ATOM     19  C   UNL     1       2.239   3.516  21.035  0.00  0.00    +0.000 A 
ATOM     20  C   UNL     1       2.284   4.874  20.721  0.00  0.00    +0.000 A 
ATOM     21  C   UNL     1       3.279   5.370  19.866  0.00  0.00    +0.000 A 
ENDBRANCH  14  16
ENDBRANCH   1  12
BRANCH   1  22
ATOM     22  C   UNL     1       6.987   7.652  17.433  0.00  0.00    +0.000 C 
BRANCH  22  23
ATOM     23  C   UNL     1       8.170   8.619  17.541  0.00  0.00    +0.000 C 
BRANCH  23  24
ATOM     24  C   UNL     1       8.697   8.846  18.963  0.00  0.00    +0.000 C 
BRANCH  24  25
ATOM     25  C   UNL     1       9.351  10.221  19.040  0.00  0.00    +0.000 C 
BRANCH  25  26
ATOM     26  N   UNL     1       8.812  11.175  18.094  0.00  0.00    +0.000 N 
ATOM     27  H   UNL     1       8.022  10.917  17.511  0.00  0.00    +0.000 HD
BRANCH  26  29
ATOM     28  C   UNL     1      10.778  12.535  17.462  0.00  0.00    +0.000 C 
ATOM     29  C   UNL     1       9.331  12.425  17.879  0.00  0.00    +0.000 C 
ATOM     30  S   UNL     1       8.365  13.771  18.081  0.00  0.00    +0.000 S 
ENDBRANCH  26  29
ENDBRANCH  25  26
ENDBRANCH  24  25
ENDBRANCH  23  24
ENDBRANCH  22  23
ENDBRANCH   1  22
TORSDOF 10
ENDMDL
MODEL 6
REMARK VINA RESULT:      -7.6      1.669      2.013
REMARK  Name = 
REMARK  11 active torsions:
REMARK  status: ('A' for Active; 'I' for Inactive)
REMARK    1  A    between atoms: C_1  and  C_2
REMARK    2  A    between atoms: C_2  and  N_4
REMARK    3  A    between atoms: N_4  and  C_5
REMARK    4  A    between atoms: C_5  and  C_6
REMARK    5  A    between atoms: C_6  and  C_7
REMARK    6  A    between atoms: C_7  and  C_8
REMARK    7  A    between atoms: C_8  and  C_9
REMARK    8  A    between atoms: C_9  and  N_10
REMARK    9  A    between atoms: C_9  and  C_18
REMARK   10  A    between atoms: C_11  and  C_13
REMARK   11  A    between atoms: N_20  and  C_21
REMARK                            x       y       z     vdW  Elec       q    Type
REMARK                         _______ _______ _______ _____ _____    ______ ____
ROOT
ATOM      1  C   UNL     1       6.861   5.043  18.069  0.00  0.00    +0.000 C 
ENDROOT
BRANCH   1   2
ATOM      2  N   UNL     1       6.860   5.186  16.625  0.00  0.00    +0.000 N 
ATOM      3  C   UNL     1       6.107   4.435  15.755  0.00  0.00    +0.000 C 
ATOM      4  O   UNL     1       5.420   3.484  16.111  0.00  0.00    +0.000 OA
ATOM      5  H   UNL     1       7.273   6.020  16.209  0.00  0.00    +0.000 HD
BRANCH   3   6
ATOM      6  C   UNL     1       6.277   4.868  14.290  0.00  0.00    +0.000 C 
ATOM      7  C   UNL     1       6.306   3.686  13.339  0.00  0.00    +0.000 C 
ATOM      8  C   UNL     1       7.044   4.228  12.131  0.00  0.00    +0.000 C 
ATOM      9  C   UNL     1       7.978   5.292  12.686  0.00  0.00    +0.000 C 
ATOM     10  N   UNL     1       7.623   5.475  14.095  0.00  0.00    +0.000 NA
ATOM     11  H   UNL     1       7.584   6.468  14.327  0.00  0.00    +0.000 HD
ENDBRANCH   3   6
ENDBRANCH   1   2
BRANCH   1  12
ATOM     12  C   UNL     1       5.426   4.852  18.611  0.00  0.00    +0.000 C 
ATOM     13  O   UNL     1       4.702   5.844  18.719  0.00  0.00    +0.000 OA
ATOM     14  N   UNL     1       5.085   3.570  19.010  0.00  0.00    +0.000 N 
ATOM     15  H   UNL     1       5.863   2.931  19.179  0.00  0.00    +0.000 HD
BRANCH  14  16
ATOM     16  C   UNL     1       3.797   3.143  19.420  0.00  0.00    +0.000 A 
ATOM     17  C   UNL     1       2.876   2.549  18.550  0.00  0.00    +0.000 A 
ATOM     18  C   UNL     1       1.612   2.149  18.993  0.00  0.00    +0.000 A 
ATOM     19  C   UNL     1       1.255   2.324  20.326  0.00  0.00    +0.000 A 
ATOM     20  C   UNL     1       2.166   2.897  21.212  0.00  0.00    +0.000 A 
ATOM     21  C   UNL     1       3.432   3.304  20.763  0.00  0.00    +0.000 A 
ENDBRANCH  14  16
ENDBRANCH   1  12
BRANCH   1  22
ATOM     22  C   UNL     1       7.729   6.085  18.781  0.00  0.00    +0.000 C 
BRANCH  22  23
ATOM     23  C   UNL     1       7.850   7.424  18.047  0.00  0.00    +0.000 C 
BRANCH  23  24
ATOM     24  C   UNL     1       8.671   8.494  18.776  0.00  0.00    +0.000 C 
BRANCH  24  25
ATOM     25  C   UNL     1       8.553   9.814  18.023  0.00  0.00    +0.000 C 
BRANCH  25  26
ATOM     26  N   UNL     1       8.887  10.972  18.824  0.00  0.00    +0.000 N 
ATOM     27  H   UNL     1       8.160  11.454  19.344  0.00  0.00    +0.000 HD
BRANCH  26  29
ATOM     28  C   UNL     1      10.912  11.721  17.620  0.00  0.00    +0.000 C 
ATOM     29  C   UNL     1      10.140  11.521  18.902  0.00  0.00    +0.000 C 
ATOM     30  S   UNL     1      10.770  11.946  20.388  0.00  0.00    +0.000 S 
ENDBRANCH  26  29
ENDBRANCH  25  26
ENDBRANCH  24  25
ENDBRANCH  23  24
ENDBRANCH  22  23
ENDBRANCH   1  22
TORSDOF 10
ENDMDL
MODEL 7
REMARK VINA RESULT:      -7.5      1.291      5.725
REMARK  Name = 
REMARK  11 active torsions:
REMARK  status: ('A' for Active; 'I' for Inactive)
REMARK    1  A    between atoms: C_1  and  C_2
REMARK    2  A    between atoms: C_2  and  N_4
REMARK    3  A    between atoms: N_4  and  C_5
REMARK    4  A    between atoms: C_5  and  C_6
REMARK    5  A    between atoms: C_6  and  C_7
REMARK    6  A    between atoms: C_7  and  C_8
REMARK    7  A    between atoms: C_8  and  C_9
REMARK    8  A    between atoms: C_9  and  N_10
REMARK    9  A    between atoms: C_9  and  C_18
REMARK   10  A    between atoms: C_11  and  C_13
REMARK   11  A    between atoms: N_20  and  C_21
REMARK                            x       y       z     vdW  Elec       q    Type
REMARK                         _______ _______ _______ _____ _____    ______ ____
ROOT
ATOM      1  C   UNL     1       6.020   6.431  17.738  0.00  0.00    +0.000 C 
ENDROOT
BRANCH   1   2
ATOM      2  N   UNL     1       4.938   5.849  18.511  0.00  0.00    +0.000 N 
ATOM      3  C   UNL     1       4.883   4.544  18.938  0.00  0.00    +0.000 C 
ATOM      4  O   UNL     1       5.711   3.698  18.620  0.00  0.00    +0.000 OA
ATOM      5  H   UNL     1       4.261   6.466  18.959  0.00  0.00    +0.000 HD
BRANCH   3   6
ATOM      6  C   UNL     1       3.639   4.246  19.791  0.00  0.00    +0.000 C 
ATOM      7  C   UNL     1       2.480   3.730  18.958  0.00  0.00    +0.000 C 
ATOM      8  C   UNL     1       1.267   4.064  19.805  0.00  0.00    +0.000 C 
ATOM      9  C   UNL     1       1.668   5.301  20.594  0.00  0.00    +0.000 C 
ATOM     10  N   UNL     1       3.097   5.514  20.354  0.00  0.00    +0.000 NA
ATOM     11  H   UNL     1       3.577   5.729  21.228  0.00  0.00    +0.000 HD
ENDBRANCH   3   6
ENDBRANCH   1   2
BRANCH   1  12
ATOM     12  C   UNL     1       5.855   6.125  16.232  0.00  0.00    +0.000 C 
ATOM     13  O   UNL     1       5.086   6.824  15.571  0.00  0.00    +0.000 OA
ATOM     14  N   UNL     1       6.542   5.021  15.752  0.00  0.00    +0.000 N 
ATOM     15  H   UNL     1       6.863   4.352  16.452  0.00  0.00    +0.000 HD
BRANCH  14  16
ATOM     16  C   UNL     1       6.634   4.628  14.393  0.00  0.00    +0.000 A 
ATOM     17  C   UNL     1       5.782   3.682  13.811  0.00  0.00    +0.000 A 
ATOM     18  C   UNL     1       5.912   3.317  12.468  0.00  0.00    +0.000 A 
ATOM     19  C   UNL     1       6.892   3.909  11.678  0.00  0.00    +0.000 A 
ATOM     20  C   UNL     1       7.737   4.868  12.235  0.00  0.00    +0.000 A 
ATOM     21  C   UNL     1       7.609   5.227  13.585  0.00  0.00    +0.000 A 
ENDBRANCH  14  16
ENDBRANCH   1  12
BRANCH   1  22
ATOM     22  C   UNL     1       7.403   6.173  18.343  0.00  0.00    +0.000 C 
BRANCH  22  23
ATOM     23  C   UNL     1       8.213   7.437  18.647  0.00  0.00    +0.000 C 
BRANCH  23  24
ATOM     24  C   UNL     1       8.165   8.518  17.560  0.00  0.00    +0.000 C 
BRANCH  24  25
ATOM     25  C   UNL     1       8.170   9.892  18.221  0.00  0.00    +0.000 C 
BRANCH  25  26
ATOM     26  N   UNL     1       9.372  10.170  18.978  0.00  0.00    +0.000 N 
ATOM     27  H   UNL     1       9.787   9.442  19.552  0.00  0.00    +0.000 HD
BRANCH  26  29
ATOM     28  C   UNL     1      10.979  11.650  20.134  0.00  0.00    +0.000 C 
ATOM     29  C   UNL     1       9.990  11.391  19.022  0.00  0.00    +0.000 C 
ATOM     30  S   UNL     1       9.640  12.542  17.866  0.00  0.00    +0.000 S 
ENDBRANCH  26  29
ENDBRANCH  25  26
ENDBRANCH  24  25
ENDBRANCH  23  24
ENDBRANCH  22  23
ENDBRANCH   1  22
TORSDOF 10
ENDMDL
MODEL 8
REMARK VINA RESULT:      -7.5      1.591      1.909
REMARK  Name = 
REMARK  11 active torsions:
REMARK  status: ('A' for Active; 'I' for Inactive)
REMARK    1  A    between atoms: C_1  and  C_2
REMARK    2  A    between atoms: C_2  and  N_4
REMARK    3  A    between atoms: N_4  and  C_5
REMARK    4  A    between atoms: C_5  and  C_6
REMARK    5  A    between atoms: C_6  and  C_7
REMARK    6  A    between atoms: C_7  and  C_8
REMARK    7  A    between atoms: C_8  and  C_9
REMARK    8  A    between atoms: C_9  and  N_10
REMARK    9  A    between atoms: C_9  and  C_18
REMARK   10  A    between atoms: C_11  and  C_13
REMARK   11  A    between atoms: N_20  and  C_21
REMARK                            x       y       z     vdW  Elec       q    Type
REMARK                         _______ _______ _______ _____ _____    ______ ____
ROOT
ATOM      1  C   UNL     1       6.679   5.369  17.951  0.00  0.00    +0.000 C 
ENDROOT
BRANCH   1   2
ATOM      2  N   UNL     1       6.705   5.419  16.500  0.00  0.00    +0.000 N 
ATOM      3  C   UNL     1       6.118   4.498  15.666  0.00  0.00    +0.000 C 
ATOM      4  O   UNL     1       5.587   3.470  16.069  0.00  0.00    +0.000 OA
ATOM      5  H   UNL     1       6.988   6.283  16.039  0.00  0.00    +0.000 HD
BRANCH   3   6
ATOM      6  C   UNL     1       6.265   4.860  14.179  0.00  0.00    +0.000 C 
ATOM      7  C   UNL     1       6.271   3.634  13.285  0.00  0.00    +0.000 C 
ATOM      8  C   UNL     1       6.992   4.114  12.040  0.00  0.00    +0.000 C 
ATOM      9  C   UNL     1       7.941   5.198  12.528  0.00  0.00    +0.000 C 
ATOM     10  N   UNL     1       7.611   5.449  13.933  0.00  0.00    +0.000 NA
ATOM     11  H   UNL     1       7.581   6.452  14.118  0.00  0.00    +0.000 HD
ENDBRANCH   3   6
ENDBRANCH   1   2
BRANCH   1  12
ATOM     12  C   UNL     1       5.228   5.305  18.480  0.00  0.00    +0.000 C 
ATOM     13  O   UNL     1       4.527   6.315  18.396  0.00  0.00    +0.000 OA
ATOM     14  N   UNL     1       4.847   4.119  19.085  0.00  0.00    +0.000 N 
ATOM     15  H   UNL     1       5.605   3.503  19.383  0.00  0.00    +0.000 HD
BRANCH  14  16
ATOM     16  C   UNL     1       3.540   3.796  19.529  0.00  0.00    +0.000 A 
ATOM     17  C   UNL     1       2.761   4.661  20.306  0.00  0.00    +0.000 A 
ATOM     18  C   UNL     1       1.479   4.301  20.730  0.00  0.00    +0.000 A 
ATOM     19  C   UNL     1       0.948   3.068  20.367  0.00  0.00    +0.000 A 
ATOM     20  C   UNL     1       1.701   2.200  19.578  0.00  0.00    +0.000 A 
ATOM     21  C   UNL     1       2.990   2.561  19.160  0.00  0.00    +0.000 A 
ENDBRANCH  14  16
ENDBRANCH   1  12
BRANCH   1  22
ATOM     22  C   UNL     1       7.604   6.398  18.609  0.00  0.00    +0.000 C 
BRANCH  22  23
ATOM     23  C   UNL     1       7.786   7.694  17.813  0.00  0.00    +0.000 C 
BRANCH  23  24
ATOM     24  C   UNL     1       8.690   8.742  18.472  0.00  0.00    +0.000 C 
BRANCH  24  25
ATOM     25  C   UNL     1       8.258  10.132  18.018  0.00  0.00    +0.000 C 
BRANCH  25  26
ATOM     26  N   UNL     1       9.282  11.142  18.187  0.00  0.00    +0.000 N 
ATOM     27  H   UNL     1       9.484  11.788  17.430  0.00  0.00    +0.000 HD
BRANCH  26  29
ATOM     28  C   UNL     1       9.401  11.115  20.656  0.00  0.00    +0.000 C 
ATOM     29  C   UNL     1      10.060  11.271  19.306  0.00  0.00    +0.000 C 
ATOM     30  S   UNL     1      11.690  11.593  19.152  0.00  0.00    +0.000 S 
ENDBRANCH  26  29
ENDBRANCH  25  26
ENDBRANCH  24  25
ENDBRANCH  23  24
ENDBRANCH  22  23
ENDBRANCH   1  22
TORSDOF 10
ENDMDL
MODEL 9
REMARK VINA RESULT:      -7.5      1.166      1.382
REMARK  Name = 
REMARK  11 active torsions:
REMARK  status: ('A' for Active; 'I' for Inactive)
REMARK    1  A    between atoms: C_1  and  C_2
REMARK    2  A    between atoms: C_2  and  N_4
REMARK    3  A    between atoms: N_4  and  C_5
REMARK    4  A    between atoms: C_5  and  C_6
REMARK    5  A    between atoms: C_6  and  C_7
REMARK    6  A    between atoms: C_7  and  C_8
REMARK    7  A    between atoms: C_8  and  C_9
REMARK    8  A    between atoms: C_9  and  N_10
REMARK    9  A    between atoms: C_9  and  C_18
REMARK   10  A    between atoms: C_11  and  C_13
REMARK   11  A    between atoms: N_20  and  C_21
REMARK                            x       y       z     vdW  Elec       q    Type
REMARK                         _______ _______ _______ _____ _____    ______ ____
ROOT
ATOM      1  C   UNL     1       6.978   6.634  17.604  0.00  0.00    +0.000 C 
ENDROOT
BRANCH   1   2
ATOM      2  N   UNL     1       6.600   6.241  16.259  0.00  0.00    +0.000 N 
ATOM      3  C   UNL     1       7.052   5.121  15.604  0.00  0.00    +0.000 C 
ATOM      4  O   UNL     1       7.912   4.377  16.062  0.00  0.00    +0.000 OA
ATOM      5  H   UNL     1       5.795   6.687  15.820  0.00  0.00    +0.000 HD
BRANCH   3   6
ATOM      6  C   UNL     1       6.420   4.945  14.214  0.00  0.00    +0.000 C 
ATOM      7  C   UNL     1       5.650   3.643  14.091  0.00  0.00    +0.000 C 
ATOM      8  C   UNL     1       5.637   3.387  12.596  0.00  0.00    +0.000 C 
ATOM      9  C   UNL     1       6.911   4.035  12.075  0.00  0.00    +0.000 C 
ATOM     10  N   UNL     1       7.489   4.790  13.189  0.00  0.00    +0.000 NA
ATOM     11  H   UNL     1       7.794   5.712  12.874  0.00  0.00    +0.000 HD
ENDBRANCH   3   6
ENDBRANCH   1   2
BRANCH   1  12
ATOM     12  C   UNL     1       6.122   5.898  18.660  0.00  0.00    +0.000 C 
ATOM     13  O   UNL     1       6.679   5.463  19.669  0.00  0.00    +0.000 OA
ATOM     14  N   UNL     1       4.784   5.717  18.347  0.00  0.00    +0.000 N 
ATOM     15  H   UNL     1       4.534   5.823  17.363  0.00  0.00    +0.000 HD
BRANCH  14  16
ATOM     16  C   UNL     1       3.795   5.183  19.211  0.00  0.00    +0.000 A 
ATOM     17  C   UNL     1       2.756   5.949  19.750  0.00  0.00    +0.000 A 
ATOM     18  C   UNL     1       1.805   5.384  20.605  0.00  0.00    +0.000 A 
ATOM     19  C   UNL     1       1.871   4.031  20.921  0.00  0.00    +0.000 A 
ATOM     20  C   UNL     1       2.888   3.247  20.378  0.00  0.00    +0.000 A 
ATOM     21  C   UNL     1       3.845   3.818  19.526  0.00  0.00    +0.000 A 
ENDBRANCH  14  16
ENDBRANCH   1  12
BRANCH   1  22
ATOM     22  C   UNL     1       7.124   8.149  17.775  0.00  0.00    +0.000 C 
BRANCH  22  23
ATOM     23  C   UNL     1       8.431   8.594  18.440  0.00  0.00    +0.000 C 
BRANCH  23  24
ATOM     24  C   UNL     1       8.741  10.091  18.328  0.00  0.00    +0.000 C 
BRANCH  24  25
ATOM     25  C   UNL     1       9.510  10.536  19.567  0.00  0.00    +0.000 C 
BRANCH  25  26
ATOM     26  N   UNL     1      10.686  11.326  19.269  0.00  0.00    +0.000 N 
ATOM     27  H   UNL     1      11.584  10.868  19.144  0.00  0.00    +0.000 HD
BRANCH  26  29
ATOM     28  C   UNL     1      10.803  13.483  20.471  0.00  0.00    +0.000 C 
ATOM     29  C   UNL     1      10.696  12.693  19.188  0.00  0.00    +0.000 C 
ATOM     30  S   UNL     1      10.592  13.438  17.699  0.00  0.00    +0.000 S 
ENDBRANCH  26  29
ENDBRANCH  25  26
ENDBRANCH  24  25
ENDBRANCH  23  24
ENDBRANCH  22  23
ENDBRANCH   1  22
TORSDOF 10
ENDMDL
