MODEL 1
REMARK VINA RESULT:      -6.6      0.000      0.000
REMARK  Name = 
REMARK  2 active torsions:
REMARK  status: ('A' for Active; 'I' for Inactive)
REMARK    1  A    between atoms: C_2  and  C_3
REMARK    2  A    between atoms: C_6  and  N_7
REMARK                            x       y       z     vdW  Elec       q    Type
REMARK                         _______ _______ _______ _____ _____    ______ ____
ROOT
ATOM      1  C   UNL     1       6.295   5.363  15.958  0.00  0.00    +0.000 A 
ATOM      2  C   UNL     1       5.225   4.479  16.065  0.00  0.00    +0.000 A 
ATOM      3  C   UNL     1       4.400   4.480  17.214  0.00  0.00    +0.000 A 
ATOM      4  C   UNL     1       3.275   3.628  17.389  0.00  0.00    +0.000 A 
ATOM      5  C   UNL     1       2.586   3.653  18.613  0.00  0.00    +0.000 A 
ATOM      6  C   UNL     1       2.966   4.618  19.546  0.00  0.00    +0.000 A 
ATOM      7  N   UNL     1       4.006   5.461  19.353  0.00  0.00    +0.000 NA
ATOM      8  C   UNL     1       4.717   5.396  18.236  0.00  0.00    +0.000 A 
ATOM      9  N   UNL     1       5.744   6.237  18.134  0.00  0.00    +0.000 NA
ATOM     10  C   UNL     1       6.506   6.214  17.022  0.00  0.00    +0.000 A 
ATOM     11 CL   UNL     1       7.786   7.364  17.061  0.00  0.00    +0.000 Cl
ATOM     12  C   UNL     1       2.280   4.750  20.883  0.00  0.00    +0.000 C 
ATOM     13  C   UNL     1       0.897   4.111  20.915  0.00  0.00    +0.000 C 
ATOM     14  C   UNL     1       0.970   2.703  20.346  0.00  0.00    +0.000 C 
ATOM     15  C   UNL     1       1.411   2.742  18.884  0.00  0.00    +0.000 C 
ENDROOT
BRANCH   4  16
ATOM     16  N   UNL     1       2.986   2.615  16.445  0.00  0.00    +0.000 N 
ATOM     17  H   UNL     1       3.298   1.684  16.697  0.00  0.00    +0.000 HD
ATOM     18  H   UNL     1       3.264   2.835  15.494  0.00  0.00    +0.000 HD
ENDBRANCH   4  16
BRANCH   1  20
ATOM     19  N   UNL     1       7.796   5.416  13.851  0.00  0.00    +0.000 NA
ATOM     20  C   UNL     1       7.107   5.375  14.784  0.00  0.00    +0.000 C 
ENDBRANCH   1  20
TORSDOF 2
ENDMDL
MODEL 2
REMARK VINA RESULT:      -6.5      4.373      5.404
REMARK  Name = 
REMARK  2 active torsions:
REMARK  status: ('A' for Active; 'I' for Inactive)
REMARK    1  A    between atoms: C_2  and  C_3
REMARK    2  A    between atoms: C_6  and  N_7
REMARK                            x       y       z     vdW  Elec       q    Type
REMARK                         _______ _______ _______ _____ _____    ______ ____
ROOT
ATOM      1  C   UNL     1       3.702   6.163  17.872  0.00  0.00    +0.000 A 
ATOM      2  C   UNL     1       3.138   7.431  17.763  0.00  0.00    +0.000 A 
ATOM      3  C   UNL     1       2.331   7.954  18.801  0.00  0.00    +0.000 A 
ATOM      4  C   UNL     1       1.741   9.247  18.778  0.00  0.00    +0.000 A 
ATOM      5  C   UNL     1       0.882   9.622  19.824  0.00  0.00    +0.000 A 
ATOM      6  C   UNL     1       0.761   8.746  20.903  0.00  0.00    +0.000 A 
ATOM      7  N   UNL     1       1.366   7.538  20.943  0.00  0.00    +0.000 NA
ATOM      8  C   UNL     1       2.117   7.136  19.927  0.00  0.00    +0.000 A 
ATOM      9  N   UNL     1       2.652   5.920  20.027  0.00  0.00    +0.000 NA
ATOM     10  C   UNL     1       3.422   5.456  19.022  0.00  0.00    +0.000 A 
ATOM     11 CL   UNL     1       4.028   3.873  19.318  0.00  0.00    +0.000 Cl
ATOM     12  C   UNL     1      -0.116   9.058  22.090  0.00  0.00    +0.000 C 
ATOM     13  C   UNL     1      -0.439  10.541  22.227  0.00  0.00    +0.000 C 
ATOM     14  C   UNL     1      -0.918  11.085  20.890  0.00  0.00    +0.000 C 
ATOM     15  C   UNL     1       0.185  10.963  19.840  0.00  0.00    +0.000 C 
ENDROOT
BRANCH   4  16
ATOM     16  N   UNL     1       1.832  10.059  17.623  0.00  0.00    +0.000 N 
ATOM     17  H   UNL     1       2.713  10.008  17.125  0.00  0.00    +0.000 HD
ATOM     18  H   UNL     1       1.564  11.027  17.768  0.00  0.00    +0.000 HD
ENDBRANCH   4  16
BRANCH   1  20
ATOM     19  N   UNL     1       5.177   5.228  15.964  0.00  0.00    +0.000 NA
ATOM     20  C   UNL     1       4.537   5.653  16.834  0.00  0.00    +0.000 C 
ENDBRANCH   1  20
TORSDOF 2
ENDMDL
MODEL 3
REMARK VINA RESULT:      -6.3      3.971      6.541
REMARK  Name = 
REMARK  2 active torsions:
REMARK  status: ('A' for Active; 'I' for Inactive)
REMARK    1  A    between atoms: C_2  and  C_3
REMARK    2  A    between atoms: C_6  and  N_7
REMARK                            x       y       z     vdW  Elec       q    Type
REMARK                         _______ _______ _______ _____ _____    ______ ____
ROOT
ATOM      1  C   UNL     1       0.703   8.889  20.839  0.00  0.00    +0.000 A 
ATOM      2  C   UNL     1       1.367   7.666  20.860  0.00  0.00    +0.000 A 
ATOM      3  C   UNL     1       2.221   7.291  19.797  0.00  0.00    +0.000 A 
ATOM      4  C   UNL     1       2.954   6.073  19.754  0.00  0.00    +0.000 A 
ATOM      5  C   UNL     1       3.699   5.766  18.603  0.00  0.00    +0.000 A 
ATOM      6  C   UNL     1       3.785   6.745  17.613  0.00  0.00    +0.000 A 
ATOM      7  N   UNL     1       3.126   7.923  17.682  0.00  0.00    +0.000 NA
ATOM      8  C   UNL     1       2.356   8.195  18.725  0.00  0.00    +0.000 A 
ATOM      9  N   UNL     1       1.715   9.363  18.705  0.00  0.00    +0.000 NA
ATOM     10  C   UNL     1       0.913   9.691  19.738  0.00  0.00    +0.000 A 
ATOM     11 CL   UNL     1       0.167  11.230  19.545  0.00  0.00    +0.000 Cl
ATOM     12  C   UNL     1       4.575   6.531  16.345  0.00  0.00    +0.000 C 
ATOM     13  C   UNL     1       5.615   5.424  16.465  0.00  0.00    +0.000 C 
ATOM     14  C   UNL     1       4.973   4.181  17.061  0.00  0.00    +0.000 C 
ATOM     15  C   UNL     1       4.463   4.470  18.471  0.00  0.00    +0.000 C 
ENDROOT
BRANCH   4  16
ATOM     16  N   UNL     1       2.765   5.084  20.748  0.00  0.00    +0.000 N 
ATOM     17  H   UNL     1       3.364   5.167  21.562  0.00  0.00    +0.000 HD
ATOM     18  H   UNL     1       2.773   4.131  20.399  0.00  0.00    +0.000 HD
ENDBRANCH   4  16
BRANCH   1  20
ATOM     19  N   UNL     1      -0.786   9.617  22.826  0.00  0.00    +0.000 NA
ATOM     20  C   UNL     1      -0.137   9.273  21.928  0.00  0.00    +0.000 C 
ENDBRANCH   1  20
TORSDOF 2
ENDMDL
MODEL 4
REMARK VINA RESULT:      -6.3      2.787      6.391
REMARK  Name = 
REMARK  2 active torsions:
REMARK  status: ('A' for Active; 'I' for Inactive)
REMARK    1  A    between atoms: C_2  and  C_3
REMARK    2  A    between atoms: C_6  and  N_7
REMARK                            x       y       z     vdW  Elec       q    Type
REMARK                         _______ _______ _______ _____ _____    ______ ____
ROOT
ATOM      1  C   UNL     1       2.556   3.154  19.973  0.00  0.00    +0.000 A 
ATOM      2  C   UNL     1       3.804   3.749  19.808  0.00  0.00    +0.000 A 
ATOM      3  C   UNL     1       4.327   3.980  18.514  0.00  0.00    +0.000 A 
ATOM      4  C   UNL     1       5.579   4.605  18.260  0.00  0.00    +0.000 A 
ATOM      5  C   UNL     1       6.038   4.698  16.936  0.00  0.00    +0.000 A 
ATOM      6  C   UNL     1       5.169   4.287  15.924  0.00  0.00    +0.000 A 
ATOM      7  N   UNL     1       3.958   3.740  16.170  0.00  0.00    +0.000 NA
ATOM      8  C   UNL     1       3.543   3.573  17.417  0.00  0.00    +0.000 A 
ATOM      9  N   UNL     1       2.352   2.998  17.578  0.00  0.00    +0.000 NA
ATOM     10  C   UNL     1       1.881   2.798  18.826  0.00  0.00    +0.000 A 
ATOM     11 CL   UNL     1       0.333   2.046  18.845  0.00  0.00    +0.000 Cl
ATOM     12  C   UNL     1       5.549   4.362  14.466  0.00  0.00    +0.000 C 
ATOM     13  C   UNL     1       6.691   5.334  14.192  0.00  0.00    +0.000 C 
ATOM     14  C   UNL     1       7.833   5.067  15.160  0.00  0.00    +0.000 C 
ATOM     15  C   UNL     1       7.378   5.307  16.598  0.00  0.00    +0.000 C 
ENDROOT
BRANCH   4  16
ATOM     16  N   UNL     1       6.452   4.928  19.326  0.00  0.00    +0.000 N 
ATOM     17  H   UNL     1       7.297   5.420  19.061  0.00  0.00    +0.000 HD
ATOM     18  H   UNL     1       6.674   4.149  19.937  0.00  0.00    +0.000 HD
ENDBRANCH   4  16
BRANCH   1  20
ATOM     19  N   UNL     1       1.554   2.754  22.325  0.00  0.00    +0.000 NA
ATOM     20  C   UNL     1       2.023   2.948  21.281  0.00  0.00    +0.000 C 
ENDBRANCH   1  20
TORSDOF 2
ENDMDL
MODEL 5
REMARK VINA RESULT:      -6.2      1.586      2.760
REMARK  Name = 
REMARK  2 active torsions:
REMARK  status: ('A' for Active; 'I' for Inactive)
REMARK    1  A    between atoms: C_2  and  C_3
REMARK    2  A    between atoms: C_6  and  N_7
REMARK                            x       y       z     vdW  Elec       q    Type
REMARK                         _______ _______ _______ _____ _____    ______ ____
ROOT
ATOM      1  C   UNL     1       6.379   6.430  17.313  0.00  0.00    +0.000 A 
ATOM      2  C   UNL     1       5.357   6.445  18.258  0.00  0.00    +0.000 A 
ATOM      3  C   UNL     1       4.435   5.375  18.341  0.00  0.00    +0.000 A 
ATOM      4  C   UNL     1       3.381   5.303  19.293  0.00  0.00    +0.000 A 
ATOM      5  C   UNL     1       2.469   4.237  19.220  0.00  0.00    +0.000 A 
ATOM      6  C   UNL     1       2.731   3.229  18.291  0.00  0.00    +0.000 A 
ATOM      7  N   UNL     1       3.765   3.279  17.421  0.00  0.00    +0.000 NA
ATOM      8  C   UNL     1       4.589   4.317  17.425  0.00  0.00    +0.000 A 
ATOM      9  N   UNL     1       5.563   4.307  16.517  0.00  0.00    +0.000 NA
ATOM     10  C   UNL     1       6.429   5.340  16.471  0.00  0.00    +0.000 A 
ATOM     11 CL   UNL     1       7.619   5.163  15.240  0.00  0.00    +0.000 Cl
ATOM     12  C   UNL     1       1.831   2.027  18.142  0.00  0.00    +0.000 C 
ATOM     13  C   UNL     1       0.951   1.779  19.361  0.00  0.00    +0.000 C 
ATOM     14  C   UNL     1       0.264   3.074  19.768  0.00  0.00    +0.000 C 
ATOM     15  C   UNL     1       1.299   4.122  20.169  0.00  0.00    +0.000 C 
ENDROOT
BRANCH   4  16
ATOM     16  N   UNL     1       3.115   6.391  20.157  0.00  0.00    +0.000 N 
ATOM     17  H   UNL     1       3.851   6.611  20.818  0.00  0.00    +0.000 HD
ATOM     18  H   UNL     1       2.219   6.342  20.631  0.00  0.00    +0.000 HD
ENDBRANCH   4  16
BRANCH   1  20
ATOM     19  N   UNL     1       8.056   8.397  17.225  0.00  0.00    +0.000 NA
ATOM     20  C   UNL     1       7.322   7.499  17.253  0.00  0.00    +0.000 C 
ENDBRANCH   1  20
TORSDOF 2
ENDMDL
MODEL 6
REMARK VINA RESULT:      -6.0      3.790      5.294
REMARK  Name = 
REMARK  2 active torsions:
REMARK  status: ('A' for Active; 'I' for Inactive)
REMARK    1  A    between atoms: C_2  and  C_3
REMARK    2  A    between atoms: C_6  and  N_7
REMARK                            x       y       z     vdW  Elec       q    Type
REMARK                         _______ _______ _______ _____ _____    ______ ____
ROOT
ATOM      1  C   UNL     1       4.020   4.358  19.069  0.00  0.00    +0.000 A 
ATOM      2  C   UNL     1       3.198   5.137  19.878  0.00  0.00    +0.000 A 
ATOM      3  C   UNL     1       2.756   6.409  19.445  0.00  0.00    +0.000 A 
ATOM      4  C   UNL     1       1.896   7.254  20.199  0.00  0.00    +0.000 A 
ATOM      5  C   UNL     1       1.599   8.536  19.708  0.00  0.00    +0.000 A 
ATOM      6  C   UNL     1       2.062   8.860  18.433  0.00  0.00    +0.000 A 
ATOM      7  N   UNL     1       2.838   8.032  17.698  0.00  0.00    +0.000 NA
ATOM      8  C   UNL     1       3.193   6.850  18.180  0.00  0.00    +0.000 A 
ATOM      9  N   UNL     1       3.985   6.105  17.410  0.00  0.00    +0.000 NA
ATOM     10  C   UNL     1       4.382   4.894  17.851  0.00  0.00    +0.000 A 
ATOM     11 CL   UNL     1       5.399   4.074  16.732  0.00  0.00    +0.000 Cl
ATOM     12  C   UNL     1       1.783  10.200  17.798  0.00  0.00    +0.000 C 
ATOM     13  C   UNL     1       0.601  10.929  18.426  0.00  0.00    +0.000 C 
ATOM     14  C   UNL     1       0.747  10.931  19.940  0.00  0.00    +0.000 C 
ATOM     15  C   UNL     1       0.730   9.503  20.479  0.00  0.00    +0.000 C 
ENDROOT
BRANCH   4  16
ATOM     16  N   UNL     1       1.523   6.908  21.519  0.00  0.00    +0.000 N 
ATOM     17  H   UNL     1       0.968   6.064  21.606  0.00  0.00    +0.000 HD
ATOM     18  H   UNL     1       1.102   7.664  22.048  0.00  0.00    +0.000 HD
ENDBRANCH   4  16
BRANCH   1  20
ATOM     19  N   UNL     1       4.805   2.033  19.887  0.00  0.00    +0.000 NA
ATOM     20  C   UNL     1       4.440   3.064  19.500  0.00  0.00    +0.000 C 
ENDBRANCH   1  20
TORSDOF 2
ENDMDL
MODEL 7
REMARK VINA RESULT:      -6.0      5.249      6.483
REMARK  Name = 
REMARK  2 active torsions:
REMARK  status: ('A' for Active; 'I' for Inactive)
REMARK    1  A    between atoms: C_2  and  C_3
REMARK    2  A    between atoms: C_6  and  N_7
REMARK                            x       y       z     vdW  Elec       q    Type
REMARK                         _______ _______ _______ _____ _____    ______ ____
ROOT
ATOM      1  C   UNL     1       2.884   6.731  18.617  0.00  0.00    +0.000 A 
ATOM      2  C   UNL     1       2.417   8.026  18.410  0.00  0.00    +0.000 A 
ATOM      3  C   UNL     1       1.648   8.683  19.399  0.00  0.00    +0.000 A 
ATOM      4  C   UNL     1       1.157  10.012  19.276  0.00  0.00    +0.000 A 
ATOM      5  C   UNL     1       0.325  10.526  20.284  0.00  0.00    +0.000 A 
ATOM      6  C   UNL     1       0.135   9.744  21.423  0.00  0.00    +0.000 A 
ATOM      7  N   UNL     1       0.647   8.500  21.557  0.00  0.00    +0.000 NA
ATOM      8  C   UNL     1       1.369   7.969  20.580  0.00  0.00    +0.000 A 
ATOM      9  N   UNL     1       1.811   6.727  20.774  0.00  0.00    +0.000 NA
ATOM     10  C   UNL     1       2.547   6.134  19.812  0.00  0.00    +0.000 A 
ATOM     11 CL   UNL     1       3.032   4.536  20.229  0.00  0.00    +0.000 Cl
ATOM     12  C   UNL     1      -0.721  10.207  22.576  0.00  0.00    +0.000 C 
ATOM     13  C   UNL     1      -0.931  11.716  22.601  0.00  0.00    +0.000 C 
ATOM     14  C   UNL     1      -1.363  12.195  21.223  0.00  0.00    +0.000 C 
ATOM     15  C   UNL     1      -0.269  11.913  20.196  0.00  0.00    +0.000 C 
ENDROOT
BRANCH   4  16
ATOM     16  N   UNL     1       1.313  10.727  18.065  0.00  0.00    +0.000 N 
ATOM     17  H   UNL     1       0.590  11.410  17.869  0.00  0.00    +0.000 HD
ATOM     18  H   UNL     1       1.479  10.144  17.252  0.00  0.00    +0.000 HD
ENDBRANCH   4  16
BRANCH   1  20
ATOM     19  N   UNL     1       4.358   5.598  16.818  0.00  0.00    +0.000 NA
ATOM     20  C   UNL     1       3.682   6.085  17.626  0.00  0.00    +0.000 C 
ENDBRANCH   1  20
TORSDOF 2
ENDMDL
MODEL 8
REMARK VINA RESULT:      -6.0      3.414      5.773
REMARK  Name = 
REMARK  2 active torsions:
REMARK  status: ('A' for Active; 'I' for Inactive)
REMARK    1  A    between atoms: C_2  and  C_3
REMARK    2  A    between atoms: C_6  and  N_7
REMARK                            x       y       z     vdW  Elec       q    Type
REMARK                         _______ _______ _______ _____ _____    ______ ____
ROOT
ATOM      1  C   UNL     1       1.303   8.508  20.682  0.00  0.00    +0.000 A 
ATOM      2  C   UNL     1       1.568   7.181  21.009  0.00  0.00    +0.000 A 
ATOM      3  C   UNL     1       2.136   6.302  20.057  0.00  0.00    +0.000 A 
ATOM      4  C   UNL     1       2.460   4.943  20.320  0.00  0.00    +0.000 A 
ATOM      5  C   UNL     1       2.935   4.141  19.269  0.00  0.00    +0.000 A 
ATOM      6  C   UNL     1       3.189   4.765  18.048  0.00  0.00    +0.000 A 
ATOM      7  N   UNL     1       2.927   6.071  17.819  0.00  0.00    +0.000 NA
ATOM      8  C   UNL     1       2.405   6.823  18.777  0.00  0.00    +0.000 A 
ATOM      9  N   UNL     1       2.145   8.092  18.464  0.00  0.00    +0.000 NA
ATOM     10  C   UNL     1       1.609   8.903  19.398  0.00  0.00    +0.000 A 
ATOM     11 CL   UNL     1       1.339  10.502  18.821  0.00  0.00    +0.000 Cl
ATOM     12  C   UNL     1       3.721   4.004  16.858  0.00  0.00    +0.000 C 
ATOM     13  C   UNL     1       4.388   2.687  17.235  0.00  0.00    +0.000 C 
ATOM     14  C   UNL     1       3.480   1.903  18.169  0.00  0.00    +0.000 C 
ATOM     15  C   UNL     1       3.254   2.677  19.466  0.00  0.00    +0.000 C 
ENDROOT
BRANCH   4  16
ATOM     16  N   UNL     1       2.106   4.343  21.552  0.00  0.00    +0.000 N 
ATOM     17  H   UNL     1       2.180   4.944  22.364  0.00  0.00    +0.000 HD
ATOM     18  H   UNL     1       2.556   3.452  21.730  0.00  0.00    +0.000 HD
ENDBRANCH   4  16
BRANCH   1  20
ATOM     19  N   UNL     1       0.341  10.102  22.479  0.00  0.00    +0.000 NA
ATOM     20  C   UNL     1       0.755   9.395  21.656  0.00  0.00    +0.000 C 
ENDBRANCH   1  20
TORSDOF 2
ENDMDL
MODEL 9
REMARK VINA RESULT:      -6.0      4.093      5.682
REMARK  Name = 
REMARK  2 active torsions:
REMARK  status: ('A' for Active; 'I' for Inactive)
REMARK    1  A    between atoms: C_2  and  C_3
REMARK    2  A    between atoms: C_6  and  N_7
REMARK                            x       y       z     vdW  Elec       q    Type
REMARK                         _______ _______ _______ _____ _____    ______ ____
ROOT
ATOM      1  C   UNL     1       2.898   3.767  19.411  0.00  0.00    +0.000 A 
ATOM      2  C   UNL     1       3.026   4.916  18.635  0.00  0.00    +0.000 A 
ATOM      3  C   UNL     1       2.506   6.153  19.086  0.00  0.00    +0.000 A 
ATOM      4  C   UNL     1       2.618   7.374  18.367  0.00  0.00    +0.000 A 
ATOM      5  C   UNL     1       1.982   8.521  18.870  0.00  0.00    +0.000 A 
ATOM      6  C   UNL     1       1.383   8.426  20.126  0.00  0.00    +0.000 A 
ATOM      7  N   UNL     1       1.324   7.273  20.829  0.00  0.00    +0.000 NA
ATOM      8  C   UNL     1       1.851   6.162  20.332  0.00  0.00    +0.000 A 
ATOM      9  N   UNL     1       1.724   5.060  21.070  0.00  0.00    +0.000 NA
ATOM     10  C   UNL     1       2.237   3.900  20.613  0.00  0.00    +0.000 A 
ATOM     11 CL   UNL     1       1.981   2.584  21.691  0.00  0.00    +0.000 Cl
ATOM     12  C   UNL     1       0.690   9.601  20.772  0.00  0.00    +0.000 C 
ATOM     13  C   UNL     1       1.117  10.944  20.191  0.00  0.00    +0.000 C 
ATOM     14  C   UNL     1       1.049  10.889  18.673  0.00  0.00    +0.000 C 
ATOM     15  C   UNL     1       2.020   9.841  18.134  0.00  0.00    +0.000 C 
ENDROOT
BRANCH   4  16
ATOM     16  N   UNL     1       3.165   7.394  17.062  0.00  0.00    +0.000 N 
ATOM     17  H   UNL     1       2.650   7.943  16.384  0.00  0.00    +0.000 HD
ATOM     18  H   UNL     1       3.382   6.478  16.684  0.00  0.00    +0.000 HD
ENDBRANCH   4  16
BRANCH   1  20
ATOM     19  N   UNL     1       3.857   1.500  18.616  0.00  0.00    +0.000 NA
ATOM     20  C   UNL     1       3.448   2.529  18.962  0.00  0.00    +0.000 C 
ENDBRANCH   1  20
TORSDOF 2
ENDMDL
