MODEL 1
REMARK VINA RESULT:      -8.2      0.000      0.000
REMARK  Name = 
REMARK  5 active torsions:
REMARK  status: ('A' for Active; 'I' for Inactive)
REMARK    1  A    between atoms: C_1  and  C_2
REMARK    2  A    between atoms: C_2  and  C_3
REMARK    3  A    between atoms: C_7  and  C_8
REMARK    4  A    between atoms: C_12  and  C_13
REMARK    5  A    between atoms: C_12  and  C_14
REMARK                            x       y       z     vdW  Elec       q    Type
REMARK                         _______ _______ _______ _____ _____    ______ ____
ROOT
ATOM      1  C   UNL     1       2.796   5.919  18.241  0.00  0.00    +0.000 C 
ATOM      2  C   UNL     1       2.012   6.910  19.091  0.00  0.00    +0.000 C 
ATOM      3  C   UNL     1       1.244   6.537  20.128  0.00  0.00    +0.000 C 
ATOM      4  C   UNL     1       0.443   7.498  20.966  0.00  0.00    +0.000 C 
ATOM      5  C   UNL     1       1.057   8.915  21.043  0.00  0.00    +0.000 C 
ATOM      6  C   UNL     1       2.281   8.933  21.979  0.00  0.00    +0.000 C 
ATOM      7  C   UNL     1       0.055   9.905  21.680  0.00  0.00    +0.000 C 
ATOM      8  C   UNL     1       1.410   9.394  19.624  0.00  0.00    +0.000 C 
ATOM      9  C   UNL     1       1.958   8.337  18.673  0.00  0.00    +0.000 C 
ATOM     10  O   UNL     1       2.307   8.639  17.533  0.00  0.00    +0.000 OA
ATOM     11  O   UNL     1       1.115   5.213  20.523  0.00  0.00    +0.000 OA
ATOM     12  C   UNL     1       1.536   4.231  19.656  0.00  0.00    +0.000 A 
ATOM     13  C   UNL     1       1.247   2.916  20.015  0.00  0.00    +0.000 A 
ATOM     14  C   UNL     1       1.701   1.859  19.225  0.00  0.00    +0.000 A 
ATOM     15  C   UNL     1       2.397   2.120  18.046  0.00  0.00    +0.000 A 
ATOM     16  C   UNL     1       2.657   3.437  17.666  0.00  0.00    +0.000 A 
ATOM     17  C   UNL     1       2.287   4.506  18.502  0.00  0.00    +0.000 A 
ENDROOT
BRANCH   1  24
ATOM     18  C   UNL     1       7.337   5.072  15.889  0.00  0.00    +0.000 C 
ATOM     19  C   UNL     1       5.814   4.897  15.839  0.00  0.00    +0.000 C 
ATOM     20  C   UNL     1       5.438   4.156  14.536  0.00  0.00    +0.000 C 
ATOM     21  C   UNL     1       5.317   4.022  16.994  0.00  0.00    +0.000 C 
ATOM     22  C   UNL     1       5.110   4.708  18.323  0.00  0.00    +0.000 C 
ATOM     23  O   UNL     1       5.435   4.152  19.372  0.00  0.00    +0.000 OA
ATOM     24  C   UNL     1       4.370   6.027  18.310  0.00  0.00    +0.000 C 
ATOM     25  C   UNL     1       5.044   6.871  17.230  0.00  0.00    +0.000 C 
ATOM     26  O   UNL     1       5.473   8.000  17.470  0.00  0.00    +0.000 OA
ATOM     27  C   UNL     1       5.139   6.273  15.836  0.00  0.00    +0.000 C 
ENDBRANCH   1  24
TORSDOF 1
ENDMDL
MODEL 2
REMARK VINA RESULT:      -8.1      1.542      4.417
REMARK  Name = 
REMARK  5 active torsions:
REMARK  status: ('A' for Active; 'I' for Inactive)
REMARK    1  A    between atoms: C_1  and  C_2
REMARK    2  A    between atoms: C_2  and  C_3
REMARK    3  A    between atoms: C_7  and  C_8
REMARK    4  A    between atoms: C_12  and  C_13
REMARK    5  A    between atoms: C_12  and  C_14
REMARK                            x       y       z     vdW  Elec       q    Type
REMARK                         _______ _______ _______ _____ _____    ______ ____
ROOT
ATOM      1  C   UNL     1       2.756   6.314  19.167  0.00  0.00    +0.000 C 
ATOM      2  C   UNL     1       2.231   7.740  19.076  0.00  0.00    +0.000 C 
ATOM      3  C   UNL     1       2.505   8.556  18.044  0.00  0.00    +0.000 C 
ATOM      4  C   UNL     1       2.016   9.977  17.946  0.00  0.00    +0.000 C 
ATOM      5  C   UNL     1       0.674  10.222  18.676  0.00  0.00    +0.000 C 
ATOM      6  C   UNL     1      -0.503   9.635  17.875  0.00  0.00    +0.000 C 
ATOM      7  C   UNL     1       0.377  11.736  18.768  0.00  0.00    +0.000 C 
ATOM      8  C   UNL     1       0.754   9.635  20.096  0.00  0.00    +0.000 C 
ATOM      9  C   UNL     1       1.513   8.321  20.242  0.00  0.00    +0.000 C 
ATOM     10  O   UNL     1       1.590   7.758  21.333  0.00  0.00    +0.000 OA
ATOM     11  O   UNL     1       3.280   8.158  16.964  0.00  0.00    +0.000 OA
ATOM     12  C   UNL     1       4.033   7.014  17.088  0.00  0.00    +0.000 A 
ATOM     13  C   UNL     1       4.917   6.733  16.049  0.00  0.00    +0.000 A 
ATOM     14  C   UNL     1       5.665   5.555  16.066  0.00  0.00    +0.000 A 
ATOM     15  C   UNL     1       5.570   4.685  17.151  0.00  0.00    +0.000 A 
ATOM     16  C   UNL     1       4.712   4.982  18.211  0.00  0.00    +0.000 A 
ATOM     17  C   UNL     1       3.884   6.118  18.159  0.00  0.00    +0.000 A 
ENDROOT
BRANCH   1  24
ATOM     18  C   UNL     1       1.810   1.220  18.998  0.00  0.00    +0.000 C 
ATOM     19  C   UNL     1       2.869   2.329  18.982  0.00  0.00    +0.000 C 
ATOM     20  C   UNL     1       4.268   1.682  18.873  0.00  0.00    +0.000 C 
ATOM     21  C   UNL     1       2.711   3.230  17.753  0.00  0.00    +0.000 C 
ATOM     22  C   UNL     1       1.681   4.331  17.848  0.00  0.00    +0.000 C 
ATOM     23  O   UNL     1       0.961   4.598  16.886  0.00  0.00    +0.000 OA
ATOM     24  C   UNL     1       1.676   5.163  19.110  0.00  0.00    +0.000 C 
ATOM     25  C   UNL     1       1.683   4.164  20.266  0.00  0.00    +0.000 C 
ATOM     26  O   UNL     1       0.836   4.208  21.159  0.00  0.00    +0.000 OA
ATOM     27  C   UNL     1       2.795   3.129  20.287  0.00  0.00    +0.000 C 
ENDBRANCH   1  24
TORSDOF 1
ENDMDL
MODEL 3
REMARK VINA RESULT:      -7.4      9.902     11.589
REMARK  Name = 
REMARK  5 active torsions:
REMARK  status: ('A' for Active; 'I' for Inactive)
REMARK    1  A    between atoms: C_1  and  C_2
REMARK    2  A    between atoms: C_2  and  C_3
REMARK    3  A    between atoms: C_7  and  C_8
REMARK    4  A    between atoms: C_12  and  C_13
REMARK    5  A    between atoms: C_12  and  C_14
REMARK                            x       y       z     vdW  Elec       q    Type
REMARK                         _______ _______ _______ _____ _____    ______ ____
ROOT
ATOM      1  C   UNL     1       8.594  14.549  18.299  0.00  0.00    +0.000 C 
ATOM      2  C   UNL     1       7.695  14.630  19.525  0.00  0.00    +0.000 C 
ATOM      3  C   UNL     1       8.020  14.082  20.708  0.00  0.00    +0.000 C 
ATOM      4  C   UNL     1       7.135  14.130  21.925  0.00  0.00    +0.000 C 
ATOM      5  C   UNL     1       6.216  15.373  21.975  0.00  0.00    +0.000 C 
ATOM      6  C   UNL     1       7.016  16.632  22.359  0.00  0.00    +0.000 C 
ATOM      7  C   UNL     1       5.157  15.218  23.091  0.00  0.00    +0.000 C 
ATOM      8  C   UNL     1       5.504  15.533  20.621  0.00  0.00    +0.000 C 
ATOM      9  C   UNL     1       6.328  15.199  19.382  0.00  0.00    +0.000 C 
ATOM     10  O   UNL     1       5.853  15.339  18.256  0.00  0.00    +0.000 OA
ATOM     11  O   UNL     1       9.216  13.409  20.915  0.00  0.00    +0.000 OA
ATOM     12  C   UNL     1       9.949  13.029  19.814  0.00  0.00    +0.000 A 
ATOM     13  C   UNL     1      11.057  12.220  20.052  0.00  0.00    +0.000 A 
ATOM     14  C   UNL     1      11.893  11.850  18.997  0.00  0.00    +0.000 A 
ATOM     15  C   UNL     1      11.587  12.244  17.696  0.00  0.00    +0.000 A 
ATOM     16  C   UNL     1      10.458  13.026  17.450  0.00  0.00    +0.000 A 
ATOM     17  C   UNL     1       9.662  13.483  18.516  0.00  0.00    +0.000 A 
ENDROOT
BRANCH   1  24
ATOM     18  C   UNL     1      11.787  18.540  19.159  0.00  0.00    +0.000 C 
ATOM     19  C   UNL     1      11.166  17.252  19.713  0.00  0.00    +0.000 C 
ATOM     20  C   UNL     1      11.708  17.008  21.140  0.00  0.00    +0.000 C 
ATOM     21  C   UNL     1       9.645  17.380  19.844  0.00  0.00    +0.000 C 
ATOM     22  C   UNL     1       8.835  17.134  18.593  0.00  0.00    +0.000 C 
ATOM     23  O   UNL     1       7.861  17.840  18.329  0.00  0.00    +0.000 OA
ATOM     24  C   UNL     1       9.188  15.914  17.772  0.00  0.00    +0.000 C 
ATOM     25  C   UNL     1      10.702  15.969  17.577  0.00  0.00    +0.000 C 
ATOM     26  O   UNL     1      11.208  15.913  16.456  0.00  0.00    +0.000 OA
ATOM     27  C   UNL     1      11.563  16.067  18.825  0.00  0.00    +0.000 C 
ENDBRANCH   1  24
TORSDOF 1
ENDMDL
MODEL 4
REMARK VINA RESULT:      -7.2      5.917      8.355
REMARK  Name = 
REMARK  5 active torsions:
REMARK  status: ('A' for Active; 'I' for Inactive)
REMARK    1  A    between atoms: C_1  and  C_2
REMARK    2  A    between atoms: C_2  and  C_3
REMARK    3  A    between atoms: C_7  and  C_8
REMARK    4  A    between atoms: C_12  and  C_13
REMARK    5  A    between atoms: C_12  and  C_14
REMARK                            x       y       z     vdW  Elec       q    Type
REMARK                         _______ _______ _______ _____ _____    ______ ____
ROOT
ATOM      1  C   UNL     1      -0.822  12.708  18.686  0.00  0.00    +0.000 C 
ATOM      2  C   UNL     1      -1.308  13.571  19.842  0.00  0.00    +0.000 C 
ATOM      3  C   UNL     1      -2.509  13.409  20.422  0.00  0.00    +0.000 C 
ATOM      4  C   UNL     1      -3.018  14.267  21.550  0.00  0.00    +0.000 C 
ATOM      5  C   UNL     1      -1.895  14.843  22.446  0.00  0.00    +0.000 C 
ATOM      6  C   UNL     1      -1.321  13.755  23.374  0.00  0.00    +0.000 C 
ATOM      7  C   UNL     1      -2.463  15.919  23.399  0.00  0.00    +0.000 C 
ATOM      8  C   UNL     1      -0.810  15.475  21.558  0.00  0.00    +0.000 C 
ATOM      9  C   UNL     1      -0.497  14.748  20.255  0.00  0.00    +0.000 C 
ATOM     10  O   UNL     1       0.386  15.158  19.504  0.00  0.00    +0.000 OA
ATOM     11  O   UNL     1      -3.403  12.425  20.025  0.00  0.00    +0.000 OA
ATOM     12  C   UNL     1      -3.189  11.799  18.818  0.00  0.00    +0.000 A 
ATOM     13  C   UNL     1      -4.188  10.934  18.378  0.00  0.00    +0.000 A 
ATOM     14  C   UNL     1      -4.015  10.207  17.200  0.00  0.00    +0.000 A 
ATOM     15  C   UNL     1      -2.866  10.387  16.432  0.00  0.00    +0.000 A 
ATOM     16  C   UNL     1      -1.879  11.280  16.853  0.00  0.00    +0.000 A 
ATOM     17  C   UNL     1      -1.999  11.946  18.086  0.00  0.00    +0.000 A 
ENDROOT
BRANCH   1  24
ATOM     18  C   UNL     1       1.398   9.237  21.831  0.00  0.00    +0.000 C 
ATOM     19  C   UNL     1       0.214  10.184  21.597  0.00  0.00    +0.000 C 
ATOM     20  C   UNL     1      -0.755  10.079  22.797  0.00  0.00    +0.000 C 
ATOM     21  C   UNL     1       0.674  11.644  21.539  0.00  0.00    +0.000 C 
ATOM     22  C   UNL     1       1.216  12.131  20.216  0.00  0.00    +0.000 C 
ATOM     23  O   UNL     1       2.197  12.873  20.176  0.00  0.00    +0.000 OA
ATOM     24  C   UNL     1       0.423  11.782  18.976  0.00  0.00    +0.000 C 
ATOM     25  C   UNL     1       0.151  10.281  19.066  0.00  0.00    +0.000 C 
ATOM     26  O   UNL     1       0.451   9.517  18.148  0.00  0.00    +0.000 OA
ATOM     27  C   UNL     1      -0.531   9.770  20.323  0.00  0.00    +0.000 C 
ENDBRANCH   1  24
TORSDOF 1
ENDMDL
MODEL 5
REMARK VINA RESULT:      -7.1      5.767     10.674
REMARK  Name = 
REMARK  5 active torsions:
REMARK  status: ('A' for Active; 'I' for Inactive)
REMARK    1  A    between atoms: C_1  and  C_2
REMARK    2  A    between atoms: C_2  and  C_3
REMARK    3  A    between atoms: C_7  and  C_8
REMARK    4  A    between atoms: C_12  and  C_13
REMARK    5  A    between atoms: C_12  and  C_14
REMARK                            x       y       z     vdW  Elec       q    Type
REMARK                         _______ _______ _______ _____ _____    ______ ____
ROOT
ATOM      1  C   UNL     1      -1.900  12.354  22.517  0.00  0.00    +0.000 C 
ATOM      2  C   UNL     1      -1.180  11.612  21.400  0.00  0.00    +0.000 C 
ATOM      3  C   UNL     1      -1.632  11.578  20.134  0.00  0.00    +0.000 C 
ATOM      4  C   UNL     1      -0.948  10.832  19.020  0.00  0.00    +0.000 C 
ATOM      5  C   UNL     1       0.583  10.706  19.205  0.00  0.00    +0.000 C 
ATOM      6  C   UNL     1       1.285  12.043  18.900  0.00  0.00    +0.000 C 
ATOM      7  C   UNL     1       1.171   9.707  18.184  0.00  0.00    +0.000 C 
ATOM      8  C   UNL     1       0.883  10.209  20.630  0.00  0.00    +0.000 C 
ATOM      9  C   UNL     1      -0.013  10.754  21.737  0.00  0.00    +0.000 C 
ATOM     10  O   UNL     1       0.182  10.444  22.911  0.00  0.00    +0.000 OA
ATOM     11  O   UNL     1      -2.788  12.235  19.737  0.00  0.00    +0.000 OA
ATOM     12  C   UNL     1      -3.654  12.676  20.711  0.00  0.00    +0.000 A 
ATOM     13  C   UNL     1      -4.875  13.187  20.276  0.00  0.00    +0.000 A 
ATOM     14  C   UNL     1      -5.778  13.719  21.196  0.00  0.00    +0.000 A 
ATOM     15  C   UNL     1      -5.484  13.690  22.558  0.00  0.00    +0.000 A 
ATOM     16  C   UNL     1      -4.277  13.148  23.000  0.00  0.00    +0.000 A 
ATOM     17  C   UNL     1      -3.319  12.695  22.075  0.00  0.00    +0.000 A 
ENDROOT
BRANCH   1  24
ATOM     18  C   UNL     1      -1.018  17.460  22.392  0.00  0.00    +0.000 C 
ATOM     19  C   UNL     1      -1.707  16.261  21.730  0.00  0.00    +0.000 C 
ATOM     20  C   UNL     1      -2.487  16.754  20.490  0.00  0.00    +0.000 C 
ATOM     21  C   UNL     1      -0.682  15.243  21.220  0.00  0.00    +0.000 C 
ATOM     22  C   UNL     1      -0.139  14.263  22.234  0.00  0.00    +0.000 C 
ATOM     23  O   UNL     1       1.053  13.956  22.230  0.00  0.00    +0.000 OA
ATOM     24  C   UNL     1      -1.139  13.588  23.144  0.00  0.00    +0.000 C 
ATOM     25  C   UNL     1      -2.009  14.709  23.711  0.00  0.00    +0.000 C 
ATOM     26  O   UNL     1      -2.168  14.850  24.923  0.00  0.00    +0.000 OA
ATOM     27  C   UNL     1      -2.696  15.628  22.715  0.00  0.00    +0.000 C 
ENDBRANCH   1  24
TORSDOF 1
ENDMDL
MODEL 6
REMARK VINA RESULT:      -7.0      6.289     10.846
REMARK  Name = 
REMARK  5 active torsions:
REMARK  status: ('A' for Active; 'I' for Inactive)
REMARK    1  A    between atoms: C_1  and  C_2
REMARK    2  A    between atoms: C_2  and  C_3
REMARK    3  A    between atoms: C_7  and  C_8
REMARK    4  A    between atoms: C_12  and  C_13
REMARK    5  A    between atoms: C_12  and  C_14
REMARK                            x       y       z     vdW  Elec       q    Type
REMARK                         _______ _______ _______ _____ _____    ______ ____
ROOT
ATOM      1  C   UNL     1      -1.383  12.424  23.070  0.00  0.00    +0.000 C 
ATOM      2  C   UNL     1      -0.711  13.721  22.642  0.00  0.00    +0.000 C 
ATOM      3  C   UNL     1       0.203  13.783  21.658  0.00  0.00    +0.000 C 
ATOM      4  C   UNL     1       0.896  15.051  21.236  0.00  0.00    +0.000 C 
ATOM      5  C   UNL     1       0.052  16.326  21.469  0.00  0.00    +0.000 C 
ATOM      6  C   UNL     1      -1.066  16.445  20.415  0.00  0.00    +0.000 C 
ATOM      7  C   UNL     1       0.918  17.591  21.274  0.00  0.00    +0.000 C 
ATOM      8  C   UNL     1      -0.507  16.311  22.902  0.00  0.00    +0.000 C 
ATOM      9  C   UNL     1      -0.946  14.954  23.441  0.00  0.00    +0.000 C 
ATOM     10  O   UNL     1      -1.445  14.855  24.561  0.00  0.00    +0.000 OA
ATOM     11  O   UNL     1       0.597  12.666  20.936  0.00  0.00    +0.000 OA
ATOM     12  C   UNL     1       0.278  11.423  21.432  0.00  0.00    +0.000 A 
ATOM     13  C   UNL     1       0.825  10.327  20.769  0.00  0.00    +0.000 A 
ATOM     14  C   UNL     1       0.493   9.031  21.167  0.00  0.00    +0.000 A 
ATOM     15  C   UNL     1      -0.342   8.832  22.264  0.00  0.00    +0.000 A 
ATOM     16  C   UNL     1      -0.863   9.928  22.953  0.00  0.00    +0.000 A 
ATOM     17  C   UNL     1      -0.612  11.236  22.503  0.00  0.00    +0.000 A 
ENDROOT
BRANCH   1  24
ATOM     18  C   UNL     1      -5.916  14.911  22.697  0.00  0.00    +0.000 C 
ATOM     19  C   UNL     1      -4.418  15.013  23.014  0.00  0.00    +0.000 C 
ATOM     20  C   UNL     1      -4.084  16.477  23.379  0.00  0.00    +0.000 C 
ATOM     21  C   UNL     1      -4.050  14.167  24.236  0.00  0.00    +0.000 C 
ATOM     22  C   UNL     1      -3.812  12.695  23.994  0.00  0.00    +0.000 C 
ATOM     23  O   UNL     1      -4.224  11.854  24.793  0.00  0.00    +0.000 OA
ATOM     24  C   UNL     1      -2.938  12.323  22.817  0.00  0.00    +0.000 C 
ATOM     25  C   UNL     1      -3.488  13.107  21.627  0.00  0.00    +0.000 C 
ATOM     26  O   UNL     1      -3.804  12.545  20.577  0.00  0.00    +0.000 OA
ATOM     27  C   UNL     1      -3.603  14.614  21.778  0.00  0.00    +0.000 C 
ENDBRANCH   1  24
TORSDOF 1
ENDMDL
MODEL 7
REMARK VINA RESULT:      -6.9      6.901     10.243
REMARK  Name = 
REMARK  5 active torsions:
REMARK  status: ('A' for Active; 'I' for Inactive)
REMARK    1  A    between atoms: C_1  and  C_2
REMARK    2  A    between atoms: C_2  and  C_3
REMARK    3  A    between atoms: C_7  and  C_8
REMARK    4  A    between atoms: C_12  and  C_13
REMARK    5  A    between atoms: C_12  and  C_14
REMARK                            x       y       z     vdW  Elec       q    Type
REMARK                         _______ _______ _______ _____ _____    ______ ____
ROOT
ATOM      1  C   UNL     1       0.171  14.610  21.001  0.00  0.00    +0.000 C 
ATOM      2  C   UNL     1      -1.204  14.587  21.655  0.00  0.00    +0.000 C 
ATOM      3  C   UNL     1      -2.258  15.260  21.164  0.00  0.00    +0.000 C 
ATOM      4  C   UNL     1      -3.620  15.269  21.808  0.00  0.00    +0.000 C 
ATOM      5  C   UNL     1      -3.939  13.981  22.603  0.00  0.00    +0.000 C 
ATOM      6  C   UNL     1      -4.265  12.815  21.651  0.00  0.00    +0.000 C 
ATOM      7  C   UNL     1      -5.217  14.172  23.450  0.00  0.00    +0.000 C 
ATOM      8  C   UNL     1      -2.758  13.653  23.533  0.00  0.00    +0.000 C 
ATOM      9  C   UNL     1      -1.365  13.923  22.976  0.00  0.00    +0.000 C 
ATOM     10  O   UNL     1      -0.362  13.650  23.634  0.00  0.00    +0.000 OA
ATOM     11  O   UNL     1      -2.184  16.023  20.007  0.00  0.00    +0.000 OA
ATOM     12  C   UNL     1      -0.939  16.344  19.517  0.00  0.00    +0.000 A 
ATOM     13  C   UNL     1      -0.900  17.239  18.451  0.00  0.00    +0.000 A 
ATOM     14  C   UNL     1       0.318  17.561  17.852  0.00  0.00    +0.000 A 
ATOM     15  C   UNL     1       1.504  17.031  18.356  0.00  0.00    +0.000 A 
ATOM     16  C   UNL     1       1.471  16.161  19.447  0.00  0.00    +0.000 A 
ATOM     17  C   UNL     1       0.242  15.756  19.998  0.00  0.00    +0.000 A 
ENDROOT
BRANCH   1  24
ATOM     18  C   UNL     1      -0.910  10.365  18.230  0.00  0.00    +0.000 C 
ATOM     19  C   UNL     1      -1.446  11.657  18.860  0.00  0.00    +0.000 C 
ATOM     20  C   UNL     1      -2.956  11.776  18.549  0.00  0.00    +0.000 C 
ATOM     21  C   UNL     1      -1.319  11.625  20.386  0.00  0.00    +0.000 C 
ATOM     22  C   UNL     1       0.025  12.001  20.962  0.00  0.00    +0.000 C 
ATOM     23  O   UNL     1       0.493  11.381  21.917  0.00  0.00    +0.000 OA
ATOM     24  C   UNL     1       0.690  13.241  20.408  0.00  0.00    +0.000 C 
ATOM     25  C   UNL     1       0.640  13.095  18.888  0.00  0.00    +0.000 C 
ATOM     26  O   UNL     1       1.657  13.184  18.200  0.00  0.00    +0.000 OA
ATOM     27  C   UNL     1      -0.721  12.863  18.254  0.00  0.00    +0.000 C 
ENDBRANCH   1  24
TORSDOF 1
ENDMDL
MODEL 8
REMARK VINA RESULT:      -6.9      9.717     11.530
REMARK  Name = 
REMARK  5 active torsions:
REMARK  status: ('A' for Active; 'I' for Inactive)
REMARK    1  A    between atoms: C_1  and  C_2
REMARK    2  A    between atoms: C_2  and  C_3
REMARK    3  A    between atoms: C_7  and  C_8
REMARK    4  A    between atoms: C_12  and  C_13
REMARK    5  A    between atoms: C_12  and  C_14
REMARK                            x       y       z     vdW  Elec       q    Type
REMARK                         _______ _______ _______ _____ _____    ______ ____
ROOT
ATOM      1  C   UNL     1       8.460  14.062  19.693  0.00  0.00    +0.000 C 
ATOM      2  C   UNL     1       8.132  13.799  21.156  0.00  0.00    +0.000 C 
ATOM      3  C   UNL     1       8.906  13.046  21.956  0.00  0.00    +0.000 C 
ATOM      4  C   UNL     1       8.588  12.755  23.398  0.00  0.00    +0.000 C 
ATOM      5  C   UNL     1       7.767  13.869  24.090  0.00  0.00    +0.000 C 
ATOM      6  C   UNL     1       8.654  15.088  24.408  0.00  0.00    +0.000 C 
ATOM      7  C   UNL     1       7.248  13.386  25.463  0.00  0.00    +0.000 C 
ATOM      8  C   UNL     1       6.569  14.245  23.200  0.00  0.00    +0.000 C 
ATOM      9  C   UNL     1       6.823  14.256  21.697  0.00  0.00    +0.000 C 
ATOM     10  O   UNL     1       5.935  14.587  20.913  0.00  0.00    +0.000 OA
ATOM     11  O   UNL     1      10.084  12.459  21.516  0.00  0.00    +0.000 OA
ATOM     12  C   UNL     1      10.310  12.389  20.161  0.00  0.00    +0.000 A 
ATOM     13  C   UNL     1      11.420  11.654  19.751  0.00  0.00    +0.000 A 
ATOM     14  C   UNL     1      11.759  11.594  18.398  0.00  0.00    +0.000 A 
ATOM     15  C   UNL     1      10.955  12.223  17.450  0.00  0.00    +0.000 A 
ATOM     16  C   UNL     1       9.822  12.931  17.855  0.00  0.00    +0.000 A 
ATOM     17  C   UNL     1       9.525  13.078  19.222  0.00  0.00    +0.000 A 
ENDROOT
BRANCH   1  24
ATOM     18  C   UNL     1      11.046  18.402  20.854  0.00  0.00    +0.000 C 
ATOM     19  C   UNL     1      10.677  16.975  21.280  0.00  0.00    +0.000 C 
ATOM     20  C   UNL     1      11.357  16.666  22.633  0.00  0.00    +0.000 C 
ATOM     21  C   UNL     1       9.169  16.836  21.512  0.00  0.00    +0.000 C 
ATOM     22  C   UNL     1       8.315  16.602  20.288  0.00  0.00    +0.000 C 
ATOM     23  O   UNL     1       7.226  17.163  20.168  0.00  0.00    +0.000 OA
ATOM     24  C   UNL     1       8.791  15.557  19.305  0.00  0.00    +0.000 C 
ATOM     25  C   UNL     1      10.259  15.881  19.033  0.00  0.00    +0.000 C 
ATOM     26  O   UNL     1      10.682  16.034  17.886  0.00  0.00    +0.000 OA
ATOM     27  C   UNL     1      11.186  15.978  20.233  0.00  0.00    +0.000 C 
ENDBRANCH   1  24
TORSDOF 1
ENDMDL
MODEL 9
REMARK VINA RESULT:      -6.9      8.041     12.006
REMARK  Name = 
REMARK  5 active torsions:
REMARK  status: ('A' for Active; 'I' for Inactive)
REMARK    1  A    between atoms: C_1  and  C_2
REMARK    2  A    between atoms: C_2  and  C_3
REMARK    3  A    between atoms: C_7  and  C_8
REMARK    4  A    between atoms: C_12  and  C_13
REMARK    5  A    between atoms: C_12  and  C_14
REMARK                            x       y       z     vdW  Elec       q    Type
REMARK                         _______ _______ _______ _____ _____    ______ ____
ROOT
ATOM      1  C   UNL     1      -3.974  13.205  20.640  0.00  0.00    +0.000 C 
ATOM      2  C   UNL     1      -3.722  12.488  19.320  0.00  0.00    +0.000 C 
ATOM      3  C   UNL     1      -2.498  12.104  18.918  0.00  0.00    +0.000 C 
ATOM      4  C   UNL     1      -2.224  11.416  17.608  0.00  0.00    +0.000 C 
ATOM      5  C   UNL     1      -3.411  10.569  17.092  0.00  0.00    +0.000 C 
ATOM      6  C   UNL     1      -3.540   9.258  17.891  0.00  0.00    +0.000 C 
ATOM      7  C   UNL     1      -3.164  10.123  15.633  0.00  0.00    +0.000 C 
ATOM      8  C   UNL     1      -4.699  11.410  17.153  0.00  0.00    +0.000 C 
ATOM      9  C   UNL     1      -4.842  12.337  18.354  0.00  0.00    +0.000 C 
ATOM     10  O   UNL     1      -5.858  13.014  18.507  0.00  0.00    +0.000 OA
ATOM     11  O   UNL     1      -1.360  12.316  19.684  0.00  0.00    +0.000 OA
ATOM     12  C   UNL     1      -1.437  13.203  20.734  0.00  0.00    +0.000 A 
ATOM     13  C   UNL     1      -0.242  13.511  21.379  0.00  0.00    +0.000 A 
ATOM     14  C   UNL     1      -0.246  14.347  22.496  0.00  0.00    +0.000 A 
ATOM     15  C   UNL     1      -1.438  14.919  22.935  0.00  0.00    +0.000 A 
ATOM     16  C   UNL     1      -2.632  14.641  22.268  0.00  0.00    +0.000 A 
ATOM     17  C   UNL     1      -2.655  13.726  21.200  0.00  0.00    +0.000 A 
ENDROOT
BRANCH   1  24
ATOM     18  C   UNL     1      -7.619  13.420  24.320  0.00  0.00    +0.000 C 
ATOM     19  C   UNL     1      -6.745  14.203  23.332  0.00  0.00    +0.000 C 
ATOM     20  C   UNL     1      -7.070  15.709  23.462  0.00  0.00    +0.000 C 
ATOM     21  C   UNL     1      -5.257  14.051  23.664  0.00  0.00    +0.000 C 
ATOM     22  C   UNL     1      -4.573  12.806  23.152  0.00  0.00    +0.000 C 
ATOM     23  O   UNL     1      -3.758  12.206  23.853  0.00  0.00    +0.000 OA
ATOM     24  C   UNL     1      -4.829  12.422  21.712  0.00  0.00    +0.000 C 
ATOM     25  C   UNL     1      -6.346  12.461  21.535  0.00  0.00    +0.000 C 
ATOM     26  O   UNL     1      -6.968  11.495  21.092  0.00  0.00    +0.000 OA
ATOM     27  C   UNL     1      -7.057  13.753  21.900  0.00  0.00    +0.000 C 
ENDBRANCH   1  24
TORSDOF 1
ENDMDL
