MODEL 1
REMARK VINA RESULT:      -6.6      0.000      0.000
REMARK  Name = 
REMARK  6 active torsions:
REMARK  status: ('A' for Active; 'I' for Inactive)
REMARK    1  A    between atoms: C_1  and  O_2
REMARK    2  A    between atoms: O_2  and  C_3
REMARK    3  A    between atoms: C_7  and  C_8
REMARK    4  A    between atoms: N_9  and  C_10
REMARK    5  A    between atoms: C_13  and  O_14
REMARK    6  A    between atoms: C_17  and  O_18
REMARK                            x       y       z     vdW  Elec       q    Type
REMARK                         _______ _______ _______ _____ _____    ______ ____
ROOT
ATOM      1  C   UNL     1       6.264   4.896  18.533  0.00  0.00    +0.000 A 
ATOM      2  C   UNL     1       5.640   5.088  17.292  0.00  0.00    +0.000 A 
ATOM      3  C   UNL     1       5.925   6.199  16.498  0.00  0.00    +0.000 A 
ATOM      4  C   UNL     1       6.849   7.144  16.939  0.00  0.00    +0.000 A 
ATOM      5  C   UNL     1       7.480   6.970  18.173  0.00  0.00    +0.000 A 
ATOM      6  C   UNL     1       7.187   5.852  18.979  0.00  0.00    +0.000 A 
ENDROOT
BRANCH   1   8
ATOM      7  C   UNL     1       4.474   3.430  19.155  0.00  0.00    +0.000 C 
ATOM      8  O   UNL     1       5.860   3.746  19.160  0.00  0.00    +0.000 OA
ENDBRANCH   1   8
BRANCH   5   9
ATOM      9  C   UNL     1       8.459   7.999  18.593  0.00  0.00    +0.000 C 
ATOM     10  N   UNL     1       8.296   9.236  18.247  0.00  0.00    +0.000 NA
BRANCH  10  11
ATOM     11  C   UNL     1       9.220  10.217  18.637  0.00  0.00    +0.000 A 
ATOM     12  C   UNL     1       9.959  10.995  17.738  0.00  0.00    +0.000 A 
ATOM     13  C   UNL     1      10.822  11.994  18.199  0.00  0.00    +0.000 A 
ATOM     14  C   UNL     1      10.928  12.230  19.566  0.00  0.00    +0.000 A 
ATOM     15  C   UNL     1      10.188  11.485  20.473  0.00  0.00    +0.000 A 
ATOM     16  C   UNL     1       9.338  10.481  20.006  0.00  0.00    +0.000 A 
BRANCH  14  17
ATOM     17  O   UNL     1      11.747  13.201  20.056  0.00  0.00    +0.000 OA
ATOM     18  H   UNL     1      11.353  14.068  19.862  0.00  0.00    +0.000 HD
ENDBRANCH  14  17
ENDBRANCH  10  11
ENDBRANCH   5   9
BRANCH   6  19
ATOM     19  O   UNL     1       7.805   5.695  20.194  0.00  0.00    +0.000 OA
ATOM     20  H   UNL     1       8.764   5.882  20.069  0.00  0.00    +0.000 HD
ENDBRANCH   6  19
TORSDOF 5
ENDMDL
MODEL 2
REMARK VINA RESULT:      -6.5      0.159      1.147
REMARK  Name = 
REMARK  6 active torsions:
REMARK  status: ('A' for Active; 'I' for Inactive)
REMARK    1  A    between atoms: C_1  and  O_2
REMARK    2  A    between atoms: O_2  and  C_3
REMARK    3  A    between atoms: C_7  and  C_8
REMARK    4  A    between atoms: N_9  and  C_10
REMARK    5  A    between atoms: C_13  and  O_14
REMARK    6  A    between atoms: C_17  and  O_18
REMARK                            x       y       z     vdW  Elec       q    Type
REMARK                         _______ _______ _______ _____ _____    ______ ____
ROOT
ATOM      1  C   UNL     1       6.354   4.875  18.430  0.00  0.00    +0.000 A 
ATOM      2  C   UNL     1       5.810   5.061  17.150  0.00  0.00    +0.000 A 
ATOM      3  C   UNL     1       6.113   6.190  16.388  0.00  0.00    +0.000 A 
ATOM      4  C   UNL     1       6.976   7.157  16.899  0.00  0.00    +0.000 A 
ATOM      5  C   UNL     1       7.526   6.989  18.172  0.00  0.00    +0.000 A 
ATOM      6  C   UNL     1       7.214   5.853  18.946  0.00  0.00    +0.000 A 
ENDROOT
BRANCH   1   8
ATOM      7  C   UNL     1       4.586   3.598  19.419  0.00  0.00    +0.000 C 
ATOM      8  O   UNL     1       5.944   3.706  19.017  0.00  0.00    +0.000 OA
ENDBRANCH   1   8
BRANCH   5   9
ATOM      9  C   UNL     1       8.442   8.043  18.667  0.00  0.00    +0.000 C 
ATOM     10  N   UNL     1       8.311   9.266  18.262  0.00  0.00    +0.000 NA
BRANCH  10  11
ATOM     11  C   UNL     1       9.175  10.270  18.722  0.00  0.00    +0.000 A 
ATOM     12  C   UNL     1       9.397  10.549  20.076  0.00  0.00    +0.000 A 
ATOM     13  C   UNL     1      10.315  11.529  20.463  0.00  0.00    +0.000 A 
ATOM     14  C   UNL     1      11.033  12.216  19.490  0.00  0.00    +0.000 A 
ATOM     15  C   UNL     1      10.845  11.941  18.143  0.00  0.00    +0.000 A 
ATOM     16  C   UNL     1       9.916  10.970  17.764  0.00  0.00    +0.000 A 
BRANCH  14  17
ATOM     17  O   UNL     1      11.947  13.170  19.824  0.00  0.00    +0.000 OA
ATOM     18  H   UNL     1      11.790  13.442  20.743  0.00  0.00    +0.000 HD
ENDBRANCH  14  17
ENDBRANCH  10  11
ENDBRANCH   5   9
BRANCH   6  19
ATOM     19  O   UNL     1       7.753   5.702  20.199  0.00  0.00    +0.000 OA
ATOM     20  H   UNL     1       8.374   6.451  20.351  0.00  0.00    +0.000 HD
ENDBRANCH   6  19
TORSDOF 5
ENDMDL
MODEL 3
REMARK VINA RESULT:      -6.4      6.750      9.100
REMARK  Name = 
REMARK  6 active torsions:
REMARK  status: ('A' for Active; 'I' for Inactive)
REMARK    1  A    between atoms: C_1  and  O_2
REMARK    2  A    between atoms: O_2  and  C_3
REMARK    3  A    between atoms: C_7  and  C_8
REMARK    4  A    between atoms: N_9  and  C_10
REMARK    5  A    between atoms: C_13  and  O_14
REMARK    6  A    between atoms: C_17  and  O_18
REMARK                            x       y       z     vdW  Elec       q    Type
REMARK                         _______ _______ _______ _____ _____    ______ ____
ROOT
ATOM      1  C   UNL     1       0.920   9.870  20.216  0.00  0.00    +0.000 A 
ATOM      2  C   UNL     1       0.941  10.517  18.971  0.00  0.00    +0.000 A 
ATOM      3  C   UNL     1       1.499   9.912  17.845  0.00  0.00    +0.000 A 
ATOM      4  C   UNL     1       2.050   8.636  17.948  0.00  0.00    +0.000 A 
ATOM      5  C   UNL     1       2.040   7.977  19.180  0.00  0.00    +0.000 A 
ATOM      6  C   UNL     1       1.483   8.591  20.320  0.00  0.00    +0.000 A 
ENDROOT
BRANCH   1   8
ATOM      7  C   UNL     1      -0.790  11.427  20.840  0.00  0.00    +0.000 C 
ATOM      8  O   UNL     1       0.325  10.621  21.196  0.00  0.00    +0.000 OA
ENDBRANCH   1   8
BRANCH   5   9
ATOM      9  C   UNL     1       2.632   6.620  19.235  0.00  0.00    +0.000 C 
ATOM     10  N   UNL     1       2.251   5.707  18.400  0.00  0.00    +0.000 NA
BRANCH  10  11
ATOM     11  C   UNL     1       2.804   4.418  18.446  0.00  0.00    +0.000 A 
ATOM     12  C   UNL     1       3.779   4.020  19.367  0.00  0.00    +0.000 A 
ATOM     13  C   UNL     1       4.245   2.702  19.390  0.00  0.00    +0.000 A 
ATOM     14  C   UNL     1       3.713   1.773  18.502  0.00  0.00    +0.000 A 
ATOM     15  C   UNL     1       2.729   2.141  17.595  0.00  0.00    +0.000 A 
ATOM     16  C   UNL     1       2.279   3.463  17.569  0.00  0.00    +0.000 A 
BRANCH  14  17
ATOM     17  O   UNL     1       4.129   0.475  18.499  0.00  0.00    +0.000 OA
ATOM     18  H   UNL     1       3.522  -0.047  19.048  0.00  0.00    +0.000 HD
ENDBRANCH  14  17
ENDBRANCH  10  11
ENDBRANCH   5   9
BRANCH   6  19
ATOM     19  O   UNL     1       1.486   7.938  21.527  0.00  0.00    +0.000 OA
ATOM     20  H   UNL     1       1.155   8.567  22.209  0.00  0.00    +0.000 HD
ENDBRANCH   6  19
TORSDOF 5
ENDMDL
MODEL 4
REMARK VINA RESULT:      -6.4      6.813      9.092
REMARK  Name = 
REMARK  6 active torsions:
REMARK  status: ('A' for Active; 'I' for Inactive)
REMARK    1  A    between atoms: C_1  and  O_2
REMARK    2  A    between atoms: O_2  and  C_3
REMARK    3  A    between atoms: C_7  and  C_8
REMARK    4  A    between atoms: N_9  and  C_10
REMARK    5  A    between atoms: C_13  and  O_14
REMARK    6  A    between atoms: C_17  and  O_18
REMARK                            x       y       z     vdW  Elec       q    Type
REMARK                         _______ _______ _______ _____ _____    ______ ____
ROOT
ATOM      1  C   UNL     1       1.074   9.735  20.580  0.00  0.00    +0.000 A 
ATOM      2  C   UNL     1       0.918  10.537  19.439  0.00  0.00    +0.000 A 
ATOM      3  C   UNL     1       1.299  10.086  18.175  0.00  0.00    +0.000 A 
ATOM      4  C   UNL     1       1.845   8.812  18.032  0.00  0.00    +0.000 A 
ATOM      5  C   UNL     1       2.009   8.000  19.157  0.00  0.00    +0.000 A 
ATOM      6  C   UNL     1       1.631   8.457  20.435  0.00  0.00    +0.000 A 
ENDROOT
BRANCH   1   8
ATOM      7  C   UNL     1      -0.648  10.954  21.713  0.00  0.00    +0.000 C 
ATOM      8  O   UNL     1       0.637  10.349  21.724  0.00  0.00    +0.000 OA
ENDBRANCH   1   8
BRANCH   5   9
ATOM      9  C   UNL     1       2.587   6.652  18.950  0.00  0.00    +0.000 C 
ATOM     10  N   UNL     1       1.859   5.595  19.126  0.00  0.00    +0.000 NA
BRANCH  10  11
ATOM     11  C   UNL     1       2.399   4.314  18.936  0.00  0.00    +0.000 A 
ATOM     12  C   UNL     1       1.890   3.380  18.025  0.00  0.00    +0.000 A 
ATOM     13  C   UNL     1       2.513   2.141  17.849  0.00  0.00    +0.000 A 
ATOM     14  C   UNL     1       3.664   1.845  18.571  0.00  0.00    +0.000 A 
ATOM     15  C   UNL     1       4.198   2.765  19.463  0.00  0.00    +0.000 A 
ATOM     16  C   UNL     1       3.563   3.995  19.643  0.00  0.00    +0.000 A 
BRANCH  14  17
ATOM     17  O   UNL     1       4.310   0.655  18.420  0.00  0.00    +0.000 OA
ATOM     18  H   UNL     1       5.107   0.799  17.884  0.00  0.00    +0.000 HD
ENDBRANCH  14  17
ENDBRANCH  10  11
ENDBRANCH   5   9
BRANCH   6  19
ATOM     19  O   UNL     1       1.804   7.655  21.535  0.00  0.00    +0.000 OA
ATOM     20  H   UNL     1       1.426   6.771  21.324  0.00  0.00    +0.000 HD
ENDBRANCH   6  19
TORSDOF 5
ENDMDL
MODEL 5
REMARK VINA RESULT:      -6.4      5.850      7.839
REMARK  Name = 
REMARK  6 active torsions:
REMARK  status: ('A' for Active; 'I' for Inactive)
REMARK    1  A    between atoms: C_1  and  O_2
REMARK    2  A    between atoms: O_2  and  C_3
REMARK    3  A    between atoms: C_7  and  C_8
REMARK    4  A    between atoms: N_9  and  C_10
REMARK    5  A    between atoms: C_13  and  O_14
REMARK    6  A    between atoms: C_17  and  O_18
REMARK                            x       y       z     vdW  Elec       q    Type
REMARK                         _______ _______ _______ _____ _____    ______ ____
ROOT
ATOM      1  C   UNL     1       1.003   9.013  21.052  0.00  0.00    +0.000 A 
ATOM      2  C   UNL     1       0.529  10.239  20.562  0.00  0.00    +0.000 A 
ATOM      3  C   UNL     1       0.705  10.606  19.228  0.00  0.00    +0.000 A 
ATOM      4  C   UNL     1       1.362   9.743  18.354  0.00  0.00    +0.000 A 
ATOM      5  C   UNL     1       1.843   8.518  18.825  0.00  0.00    +0.000 A 
ATOM      6  C   UNL     1       1.672   8.149  20.175  0.00  0.00    +0.000 A 
ENDROOT
BRANCH   1   8
ATOM      7  C   UNL     1      -0.246   9.667  22.988  0.00  0.00    +0.000 C 
ATOM      8  O   UNL     1       0.730   8.831  22.383  0.00  0.00    +0.000 OA
ENDBRANCH   1   8
BRANCH   5   9
ATOM      9  C   UNL     1       2.529   7.633  17.855  0.00  0.00    +0.000 C 
ATOM     10  N   UNL     1       3.565   6.946  18.218  0.00  0.00    +0.000 NA
BRANCH  10  11
ATOM     11  C   UNL     1       4.223   6.107  17.306  0.00  0.00    +0.000 A 
ATOM     12  C   UNL     1       5.002   6.571  16.240  0.00  0.00    +0.000 A 
ATOM     13  C   UNL     1       5.675   5.676  15.403  0.00  0.00    +0.000 A 
ATOM     14  C   UNL     1       5.585   4.310  15.649  0.00  0.00    +0.000 A 
ATOM     15  C   UNL     1       4.836   3.829  16.714  0.00  0.00    +0.000 A 
ATOM     16  C   UNL     1       4.157   4.729  17.538  0.00  0.00    +0.000 A 
BRANCH  14  17
ATOM     17  O   UNL     1       6.235   3.404  14.866  0.00  0.00    +0.000 OA
ATOM     18  H   UNL     1       5.574   2.845  14.424  0.00  0.00    +0.000 HD
ENDBRANCH  14  17
ENDBRANCH  10  11
ENDBRANCH   5   9
BRANCH   6  19
ATOM     19  O   UNL     1       2.155   6.948  20.629  0.00  0.00    +0.000 OA
ATOM     20  H   UNL     1       3.058   7.105  20.991  0.00  0.00    +0.000 HD
ENDBRANCH   6  19
TORSDOF 5
ENDMDL
MODEL 6
REMARK VINA RESULT:      -6.4      5.446      7.445
REMARK  Name = 
REMARK  6 active torsions:
REMARK  status: ('A' for Active; 'I' for Inactive)
REMARK    1  A    between atoms: C_1  and  O_2
REMARK    2  A    between atoms: O_2  and  C_3
REMARK    3  A    between atoms: C_7  and  C_8
REMARK    4  A    between atoms: N_9  and  C_10
REMARK    5  A    between atoms: C_13  and  O_14
REMARK    6  A    between atoms: C_17  and  O_18
REMARK                            x       y       z     vdW  Elec       q    Type
REMARK                         _______ _______ _______ _____ _____    ______ ____
ROOT
ATOM      1  C   UNL     1       0.226   9.009  20.674  0.00  0.00    +0.000 A 
ATOM      2  C   UNL     1      -0.483   9.914  19.869  0.00  0.00    +0.000 A 
ATOM      3  C   UNL     1      -0.079  10.200  18.565  0.00  0.00    +0.000 A 
ATOM      4  C   UNL     1       1.051   9.577  18.040  0.00  0.00    +0.000 A 
ATOM      5  C   UNL     1       1.771   8.674  18.827  0.00  0.00    +0.000 A 
ATOM      6  C   UNL     1       1.368   8.390  20.147  0.00  0.00    +0.000 A 
ENDROOT
BRANCH   1   8
ATOM      7  C   UNL     1      -0.119   9.883  22.877  0.00  0.00    +0.000 C 
ATOM      8  O   UNL     1      -0.328   8.856  21.918  0.00  0.00    +0.000 OA
ENDBRANCH   1   8
BRANCH   5   9
ATOM      9  C   UNL     1       2.961   8.034  18.220  0.00  0.00    +0.000 C 
ATOM     10  N   UNL     1       3.224   6.788  18.456  0.00  0.00    +0.000 NA
BRANCH  10  11
ATOM     11  C   UNL     1       4.350   6.173  17.888  0.00  0.00    +0.000 A 
ATOM     12  C   UNL     1       4.765   6.373  16.566  0.00  0.00    +0.000 A 
ATOM     13  C   UNL     1       5.930   5.769  16.084  0.00  0.00    +0.000 A 
ATOM     14  C   UNL     1       6.696   4.981  16.936  0.00  0.00    +0.000 A 
ATOM     15  C   UNL     1       6.314   4.787  18.256  0.00  0.00    +0.000 A 
ATOM     16  C   UNL     1       5.142   5.383  18.727  0.00  0.00    +0.000 A 
BRANCH  14  17
ATOM     17  O   UNL     1       7.844   4.385  16.511  0.00  0.00    +0.000 OA
ATOM     18  H   UNL     1       7.650   3.460  16.286  0.00  0.00    +0.000 HD
ENDBRANCH  14  17
ENDBRANCH  10  11
ENDBRANCH   5   9
BRANCH   6  19
ATOM     19  O   UNL     1       2.087   7.509  20.915  0.00  0.00    +0.000 OA
ATOM     20  H   UNL     1       3.011   7.844  20.971  0.00  0.00    +0.000 HD
ENDBRANCH   6  19
TORSDOF 5
ENDMDL
MODEL 7
REMARK VINA RESULT:      -6.3      6.513      9.078
REMARK  Name = 
REMARK  6 active torsions:
REMARK  status: ('A' for Active; 'I' for Inactive)
REMARK    1  A    between atoms: C_1  and  O_2
REMARK    2  A    between atoms: O_2  and  C_3
REMARK    3  A    between atoms: C_7  and  C_8
REMARK    4  A    between atoms: N_9  and  C_10
REMARK    5  A    between atoms: C_13  and  O_14
REMARK    6  A    between atoms: C_17  and  O_18
REMARK                            x       y       z     vdW  Elec       q    Type
REMARK                         _______ _______ _______ _____ _____    ______ ____
ROOT
ATOM      1  C   UNL     1       0.372  10.396  21.530  0.00  0.00    +0.000 A 
ATOM      2  C   UNL     1      -0.208  11.019  20.415  0.00  0.00    +0.000 A 
ATOM      3  C   UNL     1      -0.012  10.528  19.124  0.00  0.00    +0.000 A 
ATOM      4  C   UNL     1       0.772   9.394  18.927  0.00  0.00    +0.000 A 
ATOM      5  C   UNL     1       1.359   8.761  20.026  0.00  0.00    +0.000 A 
ATOM      6  C   UNL     1       1.169   9.260  21.330  0.00  0.00    +0.000 A 
ENDROOT
BRANCH   1   8
ATOM      7  C   UNL     1      -1.243  11.564  22.857  0.00  0.00    +0.000 C 
ATOM      8  O   UNL     1       0.060  11.019  22.710  0.00  0.00    +0.000 OA
ENDBRANCH   1   8
BRANCH   5   9
ATOM      9  C   UNL     1       2.179   7.555  19.764  0.00  0.00    +0.000 C 
ATOM     10  N   UNL     1       1.894   6.433  20.345  0.00  0.00    +0.000 NA
BRANCH  10  11
ATOM     11  C   UNL     1       2.666   5.286  20.106  0.00  0.00    +0.000 A 
ATOM     12  C   UNL     1       3.852   5.284  19.363  0.00  0.00    +0.000 A 
ATOM     13  C   UNL     1       4.599   4.112  19.212  0.00  0.00    +0.000 A 
ATOM     14  C   UNL     1       4.168   2.942  19.827  0.00  0.00    +0.000 A 
ATOM     15  C   UNL     1       3.007   2.927  20.587  0.00  0.00    +0.000 A 
ATOM     16  C   UNL     1       2.260   4.098  20.723  0.00  0.00    +0.000 A 
BRANCH  14  17
ATOM     17  O   UNL     1       4.873   1.781  19.716  0.00  0.00    +0.000 OA
ATOM     18  H   UNL     1       4.790   1.287  20.549  0.00  0.00    +0.000 HD
ENDBRANCH  14  17
ENDBRANCH  10  11
ENDBRANCH   5   9
BRANCH   6  19
ATOM     19  O   UNL     1       1.757   8.636  22.401  0.00  0.00    +0.000 OA
ATOM     20  H   UNL     1       2.711   8.880  22.404  0.00  0.00    +0.000 HD
ENDBRANCH   6  19
TORSDOF 5
ENDMDL
MODEL 8
REMARK VINA RESULT:      -6.3      5.836      8.093
REMARK  Name = 
REMARK  6 active torsions:
REMARK  status: ('A' for Active; 'I' for Inactive)
REMARK    1  A    between atoms: C_1  and  O_2
REMARK    2  A    between atoms: O_2  and  C_3
REMARK    3  A    between atoms: C_7  and  C_8
REMARK    4  A    between atoms: N_9  and  C_10
REMARK    5  A    between atoms: C_13  and  O_14
REMARK    6  A    between atoms: C_17  and  O_18
REMARK                            x       y       z     vdW  Elec       q    Type
REMARK                         _______ _______ _______ _____ _____    ______ ____
ROOT
ATOM      1  C   UNL     1       0.607   9.310  21.063  0.00  0.00    +0.000 A 
ATOM      2  C   UNL     1      -0.119  10.333  20.435  0.00  0.00    +0.000 A 
ATOM      3  C   UNL     1      -0.009  10.566  19.064  0.00  0.00    +0.000 A 
ATOM      4  C   UNL     1       0.834   9.770  18.292  0.00  0.00    +0.000 A 
ATOM      5  C   UNL     1       1.566   8.747  18.901  0.00  0.00    +0.000 A 
ATOM      6  C   UNL     1       1.462   8.515  20.287  0.00  0.00    +0.000 A 
ENDROOT
BRANCH   1   8
ATOM      7  C   UNL     1      -0.667  10.049  22.952  0.00  0.00    +0.000 C 
ATOM      8  O   UNL     1       0.362   9.233  22.409  0.00  0.00    +0.000 OA
ENDBRANCH   1   8
BRANCH   5   9
ATOM      9  C   UNL     1       2.443   7.924  18.036  0.00  0.00    +0.000 C 
ATOM     10  N   UNL     1       2.900   6.789  18.460  0.00  0.00    +0.000 NA
BRANCH  10  11
ATOM     11  C   UNL     1       3.734   6.004  17.650  0.00  0.00    +0.000 A 
ATOM     12  C   UNL     1       3.638   4.611  17.549  0.00  0.00    +0.000 A 
ATOM     13  C   UNL     1       4.468   3.899  16.678  0.00  0.00    +0.000 A 
ATOM     14  C   UNL     1       5.381   4.588  15.887  0.00  0.00    +0.000 A 
ATOM     15  C   UNL     1       5.478   5.971  15.955  0.00  0.00    +0.000 A 
ATOM     16  C   UNL     1       4.655   6.674  16.837  0.00  0.00    +0.000 A 
BRANCH  14  17
ATOM     17  O   UNL     1       6.200   3.934  15.016  0.00  0.00    +0.000 OA
ATOM     18  H   UNL     1       6.140   4.367  14.149  0.00  0.00    +0.000 HD
ENDBRANCH  14  17
ENDBRANCH  10  11
ENDBRANCH   5   9
BRANCH   6  19
ATOM     19  O   UNL     1       2.192   7.513  20.877  0.00  0.00    +0.000 OA
ATOM     20  H   UNL     1       2.016   7.545  21.845  0.00  0.00    +0.000 HD
ENDBRANCH   6  19
TORSDOF 5
ENDMDL
MODEL 9
REMARK VINA RESULT:      -6.2      1.963      7.709
REMARK  Name = 
REMARK  6 active torsions:
REMARK  status: ('A' for Active; 'I' for Inactive)
REMARK    1  A    between atoms: C_1  and  O_2
REMARK    2  A    between atoms: O_2  and  C_3
REMARK    3  A    between atoms: C_7  and  C_8
REMARK    4  A    between atoms: N_9  and  C_10
REMARK    5  A    between atoms: C_13  and  O_14
REMARK    6  A    between atoms: C_17  and  O_18
REMARK                            x       y       z     vdW  Elec       q    Type
REMARK                         _______ _______ _______ _____ _____    ______ ____
ROOT
ATOM      1  C   UNL     1       9.625  13.356  18.322  0.00  0.00    +0.000 A 
ATOM      2  C   UNL     1      10.623  13.162  19.289  0.00  0.00    +0.000 A 
ATOM      3  C   UNL     1      10.879  11.901  19.827  0.00  0.00    +0.000 A 
ATOM      4  C   UNL     1      10.134  10.803  19.400  0.00  0.00    +0.000 A 
ATOM      5  C   UNL     1       9.135  10.977  18.439  0.00  0.00    +0.000 A 
ATOM      6  C   UNL     1       8.870  12.253  17.900  0.00  0.00    +0.000 A 
ENDROOT
BRANCH   1   8
ATOM      7  C   UNL     1       9.782  15.684  18.864  0.00  0.00    +0.000 C 
ATOM      8  O   UNL     1       9.528  14.660  17.912  0.00  0.00    +0.000 OA
ENDBRANCH   1   8
BRANCH   5   9
ATOM      9  C   UNL     1       8.377   9.778  18.014  0.00  0.00    +0.000 C 
ATOM     10  N   UNL     1       8.593   8.634  18.580  0.00  0.00    +0.000 NA
BRANCH  10  11
ATOM     11  C   UNL     1       7.881   7.492  18.183  0.00  0.00    +0.000 A 
ATOM     12  C   UNL     1       7.049   7.443  17.058  0.00  0.00    +0.000 A 
ATOM     13  C   UNL     1       6.414   6.253  16.691  0.00  0.00    +0.000 A 
ATOM     14  C   UNL     1       6.632   5.101  17.439  0.00  0.00    +0.000 A 
ATOM     15  C   UNL     1       7.470   5.123  18.546  0.00  0.00    +0.000 A 
ATOM     16  C   UNL     1       8.091   6.318  18.914  0.00  0.00    +0.000 A 
BRANCH  14  17
ATOM     17  O   UNL     1       6.043   3.918  17.109  0.00  0.00    +0.000 OA
ATOM     18  H   UNL     1       5.646   4.004  16.226  0.00  0.00    +0.000 HD
ENDBRANCH  14  17
ENDBRANCH  10  11
ENDBRANCH   5   9
BRANCH   6  19
ATOM     19  O   UNL     1       7.881  12.415  16.963  0.00  0.00    +0.000 OA
ATOM     20  H   UNL     1       7.058  12.672  17.438  0.00  0.00    +0.000 HD
ENDBRANCH   6  19
TORSDOF 5
ENDMDL
