MODEL 1
REMARK VINA RESULT:      -8.5      0.000      0.000
REMARK  Name = 
REMARK  9 active torsions:
REMARK  status: ('A' for Active; 'I' for Inactive)
REMARK    1  A    between atoms: C_2  and  C_3
REMARK    2  A    between atoms: C_2  and  C_25
REMARK    3  A    between atoms: C_4  and  C_5
REMARK    4  A    between atoms: C_8  and  O_9
REMARK    5  A    between atoms: O_9  and  C_10
REMARK    6  A    between atoms: C_10  and  C_11
REMARK    7  A    between atoms: N_13  and  C_14
REMARK    8  A    between atoms: C_14  and  C_15
REMARK    9  A    between atoms: C_28  and  N_29
REMARK                            x       y       z     vdW  Elec       q    Type
REMARK                         _______ _______ _______ _____ _____    ______ ____
ROOT
ATOM      1  C   UNL     1       2.264   7.626  18.894  0.00  0.00    +0.000 A 
ATOM      2  C   UNL     1       1.926   8.545  17.897  0.00  0.00    +0.000 A 
ATOM      3  C   UNL     1       1.172   9.670  18.205  0.00  0.00    +0.000 A 
ATOM      4  C   UNL     1       0.713   9.872  19.508  0.00  0.00    +0.000 A 
ATOM      5  C   UNL     1       1.083   8.981  20.517  0.00  0.00    +0.000 A 
ATOM      6  C   UNL     1       1.857   7.855  20.211  0.00  0.00    +0.000 A 
ENDROOT
BRANCH   1   8
ATOM      7  C   UNL     1       3.393   5.548  19.429  0.00  0.00    +0.000 C 
ATOM      8  C   UNL     1       3.077   6.472  18.516  0.00  0.00    +0.000 C 
BRANCH   7  10
ATOM      9  O   UNL     1       4.429   3.432  19.774  0.00  0.00    +0.000 OA
ATOM     10  C   UNL     1       4.314   4.432  19.082  0.00  0.00    +0.000 C 
BRANCH  10  11
ATOM     11  C   UNL     1       5.060   4.565  17.804  0.00  0.00    +0.000 A 
ATOM     12  C   UNL     1       4.539   3.982  16.640  0.00  0.00    +0.000 A 
ATOM     13  C   UNL     1       5.230   4.093  15.429  0.00  0.00    +0.000 A 
ATOM     14  C   UNL     1       6.451   4.781  15.390  0.00  0.00    +0.000 A 
ATOM     15  C   UNL     1       6.985   5.352  16.555  0.00  0.00    +0.000 A 
ATOM     16  C   UNL     1       6.290   5.239  17.758  0.00  0.00    +0.000 A 
BRANCH  14  17
ATOM     17  N   UNL     1       7.184   4.908  14.127  0.00  0.00    +0.000 N 
ATOM     18  O   UNL     1       6.785   4.245  13.159  0.00  0.00    +0.000 OA
ATOM     19  O   UNL     1       8.159   5.674  14.101  0.00  0.00    +0.000 OA
ENDBRANCH  14  17
ENDBRANCH  10  11
ENDBRANCH   7  10
ENDBRANCH   1   8
BRANCH   4  20
ATOM     20  O   UNL     1      -0.102  10.909  19.873  0.00  0.00    +0.000 OA
BRANCH  20  21
ATOM     21  C   UNL     1       0.335  11.613  21.051  0.00  0.00    +0.000 C 
BRANCH  21  22
ATOM     22  C   UNL     1      -0.792  11.917  21.958  0.00  0.00    +0.000 A 
ATOM     23  C   UNL     1      -1.464  13.102  22.153  0.00  0.00    +0.000 A 
ATOM     24  N   UNL     1      -2.396  12.795  23.094  0.00  0.00    +0.000 N 
ATOM     25  N   UNL     1      -2.299  11.508  23.483  0.00  0.00    +0.000 NA
ATOM     26  N   UNL     1      -1.302  10.962  22.799  0.00  0.00    +0.000 NA
BRANCH  24  27
ATOM     27  C   UNL     1      -3.497  13.628  23.539  0.00  0.00    +0.000 C 
BRANCH  27  28
ATOM     28  C   UNL     1      -4.827  13.183  22.986  0.00  0.00    +0.000 A 
ATOM     29  C   UNL     1      -4.958  12.846  21.630  0.00  0.00    +0.000 A 
ATOM     30  C   UNL     1      -6.166  12.346  21.140  0.00  0.00    +0.000 A 
ATOM     31  C   UNL     1      -7.251  12.179  21.996  0.00  0.00    +0.000 A 
ATOM     32  C   UNL     1      -7.140  12.526  23.340  0.00  0.00    +0.000 A 
ATOM     33  C   UNL     1      -5.935  13.029  23.833  0.00  0.00    +0.000 A 
ENDBRANCH  27  28
ENDBRANCH  24  27
ENDBRANCH  21  22
ENDBRANCH  20  21
ENDBRANCH   4  20
TORSDOF 9
ENDMDL
MODEL 2
REMARK VINA RESULT:      -8.3      2.734      3.358
REMARK  Name = 
REMARK  9 active torsions:
REMARK  status: ('A' for Active; 'I' for Inactive)
REMARK    1  A    between atoms: C_2  and  C_3
REMARK    2  A    between atoms: C_2  and  C_25
REMARK    3  A    between atoms: C_4  and  C_5
REMARK    4  A    between atoms: C_8  and  O_9
REMARK    5  A    between atoms: O_9  and  C_10
REMARK    6  A    between atoms: C_10  and  C_11
REMARK    7  A    between atoms: N_13  and  C_14
REMARK    8  A    between atoms: C_14  and  C_15
REMARK    9  A    between atoms: C_28  and  N_29
REMARK                            x       y       z     vdW  Elec       q    Type
REMARK                         _______ _______ _______ _____ _____    ______ ____
ROOT
ATOM      1  C   UNL     1       2.716   7.287  18.955  0.00  0.00    +0.000 A 
ATOM      2  C   UNL     1       2.408   8.328  18.076  0.00  0.00    +0.000 A 
ATOM      3  C   UNL     1       1.502   9.314  18.445  0.00  0.00    +0.000 A 
ATOM      4  C   UNL     1       0.862   9.252  19.684  0.00  0.00    +0.000 A 
ATOM      5  C   UNL     1       1.198   8.239  20.584  0.00  0.00    +0.000 A 
ATOM      6  C   UNL     1       2.124   7.253  20.220  0.00  0.00    +0.000 A 
ENDROOT
BRANCH   1   8
ATOM      7  C   UNL     1       3.281   5.093  18.093  0.00  0.00    +0.000 C 
ATOM      8  C   UNL     1       3.692   6.290  18.523  0.00  0.00    +0.000 C 
BRANCH   7  10
ATOM      9  O   UNL     1       4.335   2.974  18.366  0.00  0.00    +0.000 OA
ATOM     10  C   UNL     1       4.271   4.033  17.759  0.00  0.00    +0.000 C 
BRANCH  10  11
ATOM     11  C   UNL     1       5.159   4.301  16.599  0.00  0.00    +0.000 A 
ATOM     12  C   UNL     1       6.485   4.700  16.826  0.00  0.00    +0.000 A 
ATOM     13  C   UNL     1       7.334   4.962  15.747  0.00  0.00    +0.000 A 
ATOM     14  C   UNL     1       6.849   4.833  14.437  0.00  0.00    +0.000 A 
ATOM     15  C   UNL     1       5.519   4.450  14.205  0.00  0.00    +0.000 A 
ATOM     16  C   UNL     1       4.678   4.189  15.286  0.00  0.00    +0.000 A 
BRANCH  14  17
ATOM     17  N   UNL     1       7.729   5.101  13.296  0.00  0.00    +0.000 N 
ATOM     18  O   UNL     1       7.429   4.599  12.204  0.00  0.00    +0.000 OA
ATOM     19  O   UNL     1       8.722   5.819  13.491  0.00  0.00    +0.000 OA
ENDBRANCH  14  17
ENDBRANCH  10  11
ENDBRANCH   7  10
ENDBRANCH   1   8
BRANCH   4  20
ATOM     20  O   UNL     1      -0.101  10.135  20.087  0.00  0.00    +0.000 OA
BRANCH  20  21
ATOM     21  C   UNL     1      -0.374  11.180  19.134  0.00  0.00    +0.000 C 
BRANCH  21  22
ATOM     22  C   UNL     1      -1.641  10.943  18.408  0.00  0.00    +0.000 A 
ATOM     23  C   UNL     1      -2.596  11.844  17.997  0.00  0.00    +0.000 A 
ATOM     24  N   UNL     1      -3.529  11.069  17.383  0.00  0.00    +0.000 N 
ATOM     25  N   UNL     1      -3.193   9.765  17.427  0.00  0.00    +0.000 NA
ATOM     26  N   UNL     1      -2.037   9.675  18.071  0.00  0.00    +0.000 NA
BRANCH  24  27
ATOM     27  C   UNL     1      -4.665  11.522  16.603  0.00  0.00    +0.000 C 
BRANCH  27  28
ATOM     28  C   UNL     1      -5.814  11.989  17.460  0.00  0.00    +0.000 A 
ATOM     29  C   UNL     1      -6.133  11.319  18.651  0.00  0.00    +0.000 A 
ATOM     30  C   UNL     1      -7.137  11.807  19.489  0.00  0.00    +0.000 A 
ATOM     31  C   UNL     1      -7.830  12.965  19.148  0.00  0.00    +0.000 A 
ATOM     32  C   UNL     1      -7.535  13.630  17.961  0.00  0.00    +0.000 A 
ATOM     33  C   UNL     1      -6.534  13.144  17.119  0.00  0.00    +0.000 A 
ENDBRANCH  27  28
ENDBRANCH  24  27
ENDBRANCH  21  22
ENDBRANCH  20  21
ENDBRANCH   4  20
TORSDOF 9
ENDMDL
MODEL 3
REMARK VINA RESULT:      -8.2      1.401      1.653
REMARK  Name = 
REMARK  9 active torsions:
REMARK  status: ('A' for Active; 'I' for Inactive)
REMARK    1  A    between atoms: C_2  and  C_3
REMARK    2  A    between atoms: C_2  and  C_25
REMARK    3  A    between atoms: C_4  and  C_5
REMARK    4  A    between atoms: C_8  and  O_9
REMARK    5  A    between atoms: O_9  and  C_10
REMARK    6  A    between atoms: C_10  and  C_11
REMARK    7  A    between atoms: N_13  and  C_14
REMARK    8  A    between atoms: C_14  and  C_15
REMARK    9  A    between atoms: C_28  and  N_29
REMARK                            x       y       z     vdW  Elec       q    Type
REMARK                         _______ _______ _______ _____ _____    ______ ____
ROOT
ATOM      1  C   UNL     1       2.408   7.262  18.923  0.00  0.00    +0.000 A 
ATOM      2  C   UNL     1       2.200   8.264  17.972  0.00  0.00    +0.000 A 
ATOM      3  C   UNL     1       1.522   9.427  18.313  0.00  0.00    +0.000 A 
ATOM      4  C   UNL     1       1.008   9.588  19.601  0.00  0.00    +0.000 A 
ATOM      5  C   UNL     1       1.250   8.610  20.568  0.00  0.00    +0.000 A 
ATOM      6  C   UNL     1       1.948   7.443  20.229  0.00  0.00    +0.000 A 
ENDROOT
BRANCH   1   8
ATOM      7  C   UNL     1       4.050   5.526  19.335  0.00  0.00    +0.000 C 
ATOM      8  C   UNL     1       3.146   6.069  18.513  0.00  0.00    +0.000 C 
BRANCH   7  10
ATOM      9  O   UNL     1       5.033   3.368  19.547  0.00  0.00    +0.000 OA
ATOM     10  C   UNL     1       4.887   4.382  18.882  0.00  0.00    +0.000 C 
BRANCH  10  11
ATOM     11  C   UNL     1       5.504   4.508  17.537  0.00  0.00    +0.000 A 
ATOM     12  C   UNL     1       4.753   4.171  16.401  0.00  0.00    +0.000 A 
ATOM     13  C   UNL     1       5.319   4.278  15.127  0.00  0.00    +0.000 A 
ATOM     14  C   UNL     1       6.645   4.716  14.994  0.00  0.00    +0.000 A 
ATOM     15  C   UNL     1       7.406   5.038  16.127  0.00  0.00    +0.000 A 
ATOM     16  C   UNL     1       6.835   4.930  17.395  0.00  0.00    +0.000 A 
BRANCH  14  17
ATOM     17  N   UNL     1       7.250   4.836  13.664  0.00  0.00    +0.000 N 
ATOM     18  O   UNL     1       8.092   5.728  13.491  0.00  0.00    +0.000 OA
ATOM     19  O   UNL     1       6.885   4.034  12.791  0.00  0.00    +0.000 OA
ENDBRANCH  14  17
ENDBRANCH  10  11
ENDBRANCH   7  10
ENDBRANCH   1   8
BRANCH   4  20
ATOM     20  O   UNL     1       0.259  10.664  19.991  0.00  0.00    +0.000 OA
BRANCH  20  21
ATOM     21  C   UNL     1      -0.672  11.123  18.994  0.00  0.00    +0.000 C 
BRANCH  21  22
ATOM     22  C   UNL     1      -1.781  11.896  19.594  0.00  0.00    +0.000 A 
ATOM     23  C   UNL     1      -1.764  12.779  20.649  0.00  0.00    +0.000 A 
ATOM     24  N   UNL     1      -3.057  13.184  20.755  0.00  0.00    +0.000 N 
ATOM     25  N   UNL     1      -3.840  12.577  19.841  0.00  0.00    +0.000 NA
ATOM     26  N   UNL     1      -3.065  11.768  19.130  0.00  0.00    +0.000 NA
BRANCH  24  27
ATOM     27  C   UNL     1      -3.573  14.254  21.586  0.00  0.00    +0.000 C 
BRANCH  27  28
ATOM     28  C   UNL     1      -4.797  13.849  22.368  0.00  0.00    +0.000 A 
ATOM     29  C   UNL     1      -6.079  14.175  21.901  0.00  0.00    +0.000 A 
ATOM     30  C   UNL     1      -7.214  13.720  22.576  0.00  0.00    +0.000 A 
ATOM     31  C   UNL     1      -7.079  12.939  23.720  0.00  0.00    +0.000 A 
ATOM     32  C   UNL     1      -5.812  12.624  24.204  0.00  0.00    +0.000 A 
ATOM     33  C   UNL     1      -4.676  13.079  23.534  0.00  0.00    +0.000 A 
ENDBRANCH  27  28
ENDBRANCH  24  27
ENDBRANCH  21  22
ENDBRANCH  20  21
ENDBRANCH   4  20
TORSDOF 9
ENDMDL
MODEL 4
REMARK VINA RESULT:      -8.1      1.432      1.938
REMARK  Name = 
REMARK  9 active torsions:
REMARK  status: ('A' for Active; 'I' for Inactive)
REMARK    1  A    between atoms: C_2  and  C_3
REMARK    2  A    between atoms: C_2  and  C_25
REMARK    3  A    between atoms: C_4  and  C_5
REMARK    4  A    between atoms: C_8  and  O_9
REMARK    5  A    between atoms: O_9  and  C_10
REMARK    6  A    between atoms: C_10  and  C_11
REMARK    7  A    between atoms: N_13  and  C_14
REMARK    8  A    between atoms: C_14  and  C_15
REMARK    9  A    between atoms: C_28  and  N_29
REMARK                            x       y       z     vdW  Elec       q    Type
REMARK                         _______ _______ _______ _____ _____    ______ ____
ROOT
ATOM      1  C   UNL     1       2.595   6.960  19.085  0.00  0.00    +0.000 A 
ATOM      2  C   UNL     1       2.196   7.968  18.204  0.00  0.00    +0.000 A 
ATOM      3  C   UNL     1       1.369   8.995  18.640  0.00  0.00    +0.000 A 
ATOM      4  C   UNL     1       0.898   9.008  19.954  0.00  0.00    +0.000 A 
ATOM      5  C   UNL     1       1.329   8.029  20.851  0.00  0.00    +0.000 A 
ATOM      6  C   UNL     1       2.176   7.001  20.418  0.00  0.00    +0.000 A 
ENDROOT
BRANCH   1   8
ATOM      7  C   UNL     1       3.787   4.865  19.344  0.00  0.00    +0.000 C 
ATOM      8  C   UNL     1       3.483   5.917  18.578  0.00  0.00    +0.000 C 
BRANCH   7  10
ATOM      9  O   UNL     1       5.029   2.840  19.509  0.00  0.00    +0.000 OA
ATOM     10  C   UNL     1       4.778   3.857  18.880  0.00  0.00    +0.000 C 
BRANCH  10  11
ATOM     11  C   UNL     1       5.422   4.120  17.567  0.00  0.00    +0.000 A 
ATOM     12  C   UNL     1       6.743   4.589  17.531  0.00  0.00    +0.000 A 
ATOM     13  C   UNL     1       7.364   4.848  16.305  0.00  0.00    +0.000 A 
ATOM     14  C   UNL     1       6.652   4.645  15.114  0.00  0.00    +0.000 A 
ATOM     15  C   UNL     1       5.325   4.193  15.144  0.00  0.00    +0.000 A 
ATOM     16  C   UNL     1       4.713   3.935  16.371  0.00  0.00    +0.000 A 
BRANCH  14  17
ATOM     17  N   UNL     1       7.292   4.909  13.821  0.00  0.00    +0.000 N 
ATOM     18  O   UNL     1       8.226   5.722  13.794  0.00  0.00    +0.000 OA
ATOM     19  O   UNL     1       6.862   4.300  12.831  0.00  0.00    +0.000 OA
ENDBRANCH  14  17
ENDBRANCH  10  11
ENDBRANCH   7  10
ENDBRANCH   1   8
BRANCH   4  20
ATOM     20  O   UNL     1       0.017   9.937  20.436  0.00  0.00    +0.000 OA
BRANCH  20  21
ATOM     21  C   UNL     1      -0.485  10.844  19.436  0.00  0.00    +0.000 C 
BRANCH  21  22
ATOM     22  C   UNL     1      -1.642  11.620  19.931  0.00  0.00    +0.000 A 
ATOM     23  C   UNL     1      -2.595  12.319  19.226  0.00  0.00    +0.000 A 
ATOM     24  N   UNL     1      -3.405  12.828  20.191  0.00  0.00    +0.000 N 
ATOM     25  N   UNL     1      -2.975  12.492  21.424  0.00  0.00    +0.000 NA
ATOM     26  N   UNL     1      -1.879  11.760  21.275  0.00  0.00    +0.000 NA
BRANCH  24  27
ATOM     27  C   UNL     1      -4.679  13.495  20.002  0.00  0.00    +0.000 C 
BRANCH  27  28
ATOM     28  C   UNL     1      -5.851  12.654  20.440  0.00  0.00    +0.000 A 
ATOM     29  C   UNL     1      -6.129  11.434  19.806  0.00  0.00    +0.000 A 
ATOM     30  C   UNL     1      -7.157  10.613  20.272  0.00  0.00    +0.000 A 
ATOM     31  C   UNL     1      -7.916  11.002  21.373  0.00  0.00    +0.000 A 
ATOM     32  C   UNL     1      -7.662  12.218  22.001  0.00  0.00    +0.000 A 
ATOM     33  C   UNL     1      -6.636  13.042  21.536  0.00  0.00    +0.000 A 
ENDBRANCH  27  28
ENDBRANCH  24  27
ENDBRANCH  21  22
ENDBRANCH  20  21
ENDBRANCH   4  20
TORSDOF 9
ENDMDL
MODEL 5
REMARK VINA RESULT:      -8.0      1.366      2.065
REMARK  Name = 
REMARK  9 active torsions:
REMARK  status: ('A' for Active; 'I' for Inactive)
REMARK    1  A    between atoms: C_2  and  C_3
REMARK    2  A    between atoms: C_2  and  C_25
REMARK    3  A    between atoms: C_4  and  C_5
REMARK    4  A    between atoms: C_8  and  O_9
REMARK    5  A    between atoms: O_9  and  C_10
REMARK    6  A    between atoms: C_10  and  C_11
REMARK    7  A    between atoms: N_13  and  C_14
REMARK    8  A    between atoms: C_14  and  C_15
REMARK    9  A    between atoms: C_28  and  N_29
REMARK                            x       y       z     vdW  Elec       q    Type
REMARK                         _______ _______ _______ _____ _____    ______ ____
ROOT
ATOM      1  C   UNL     1       2.354   7.499  18.804  0.00  0.00    +0.000 A 
ATOM      2  C   UNL     1       1.931   7.641  20.127  0.00  0.00    +0.000 A 
ATOM      3  C   UNL     1       1.207   8.761  20.517  0.00  0.00    +0.000 A 
ATOM      4  C   UNL     1       0.928   9.772  19.596  0.00  0.00    +0.000 A 
ATOM      5  C   UNL     1       1.309   9.616  18.262  0.00  0.00    +0.000 A 
ATOM      6  C   UNL     1       2.026   8.480  17.864  0.00  0.00    +0.000 A 
ENDROOT
BRANCH   1   8
ATOM      7  C   UNL     1       4.023   5.805  19.274  0.00  0.00    +0.000 C 
ATOM      8  C   UNL     1       3.093   6.291  18.445  0.00  0.00    +0.000 C 
BRANCH   7  10
ATOM      9  O   UNL     1       4.990   3.648  19.562  0.00  0.00    +0.000 OA
ATOM     10  C   UNL     1       4.860   4.643  18.867  0.00  0.00    +0.000 C 
BRANCH  10  11
ATOM     11  C   UNL     1       5.497   4.726  17.528  0.00  0.00    +0.000 A 
ATOM     12  C   UNL     1       6.429   5.744  17.271  0.00  0.00    +0.000 A 
ATOM     13  C   UNL     1       7.035   5.841  16.015  0.00  0.00    +0.000 A 
ATOM     14  C   UNL     1       6.699   4.921  15.012  0.00  0.00    +0.000 A 
ATOM     15  C   UNL     1       5.756   3.912  15.257  0.00  0.00    +0.000 A 
ATOM     16  C   UNL     1       5.156   3.820  16.512  0.00  0.00    +0.000 A 
BRANCH  14  17
ATOM     17  N   UNL     1       7.330   5.010  13.691  0.00  0.00    +0.000 N 
ATOM     18  O   UNL     1       8.322   5.742  13.573  0.00  0.00    +0.000 OA
ATOM     19  O   UNL     1       6.835   4.343  12.771  0.00  0.00    +0.000 OA
ENDBRANCH  14  17
ENDBRANCH  10  11
ENDBRANCH   7  10
ENDBRANCH   1   8
BRANCH   4  20
ATOM     20  O   UNL     1       0.294  10.940  19.920  0.00  0.00    +0.000 OA
BRANCH  20  21
ATOM     21  C   UNL     1      -0.820  11.260  19.066  0.00  0.00    +0.000 C 
BRANCH  21  22
ATOM     22  C   UNL     1      -1.855  12.036  19.783  0.00  0.00    +0.000 A 
ATOM     23  C   UNL     1      -1.759  12.754  20.952  0.00  0.00    +0.000 A 
ATOM     24  N   UNL     1      -3.011  13.255  21.130  0.00  0.00    +0.000 N 
ATOM     25  N   UNL     1      -3.845  12.856  20.149  0.00  0.00    +0.000 NA
ATOM     26  N   UNL     1      -3.146  12.091  19.321  0.00  0.00    +0.000 NA
BRANCH  24  27
ATOM     27  C   UNL     1      -3.428  14.238  22.111  0.00  0.00    +0.000 C 
BRANCH  27  28
ATOM     28  C   UNL     1      -4.817  13.982  22.640  0.00  0.00    +0.000 A 
ATOM     29  C   UNL     1      -5.046  12.958  23.571  0.00  0.00    +0.000 A 
ATOM     30  C   UNL     1      -6.314  12.781  24.129  0.00  0.00    +0.000 A 
ATOM     31  C   UNL     1      -7.361  13.623  23.764  0.00  0.00    +0.000 A 
ATOM     32  C   UNL     1      -7.151  14.633  22.829  0.00  0.00    +0.000 A 
ATOM     33  C   UNL     1      -5.886  14.810  22.266  0.00  0.00    +0.000 A 
ENDBRANCH  27  28
ENDBRANCH  24  27
ENDBRANCH  21  22
ENDBRANCH  20  21
ENDBRANCH   4  20
TORSDOF 9
ENDMDL
MODEL 6
REMARK VINA RESULT:      -8.0      3.908      6.360
REMARK  Name = 
REMARK  9 active torsions:
REMARK  status: ('A' for Active; 'I' for Inactive)
REMARK    1  A    between atoms: C_2  and  C_3
REMARK    2  A    between atoms: C_2  and  C_25
REMARK    3  A    between atoms: C_4  and  C_5
REMARK    4  A    between atoms: C_8  and  O_9
REMARK    5  A    between atoms: O_9  and  C_10
REMARK    6  A    between atoms: C_10  and  C_11
REMARK    7  A    between atoms: N_13  and  C_14
REMARK    8  A    between atoms: C_14  and  C_15
REMARK    9  A    between atoms: C_28  and  N_29
REMARK                            x       y       z     vdW  Elec       q    Type
REMARK                         _______ _______ _______ _____ _____    ______ ____
ROOT
ATOM      1  C   UNL     1       2.176   7.514  18.900  0.00  0.00    +0.000 A 
ATOM      2  C   UNL     1       1.736   7.672  20.216  0.00  0.00    +0.000 A 
ATOM      3  C   UNL     1       1.087   8.836  20.606  0.00  0.00    +0.000 A 
ATOM      4  C   UNL     1       0.901   9.875  19.692  0.00  0.00    +0.000 A 
ATOM      5  C   UNL     1       1.299   9.707  18.364  0.00  0.00    +0.000 A 
ATOM      6  C   UNL     1       1.940   8.526  17.967  0.00  0.00    +0.000 A 
ENDROOT
BRANCH   1   8
ATOM      7  C   UNL     1       3.900   5.842  19.230  0.00  0.00    +0.000 C 
ATOM      8  C   UNL     1       2.833   6.259  18.542  0.00  0.00    +0.000 C 
BRANCH   7  10
ATOM      9  O   UNL     1       4.661   3.597  19.459  0.00  0.00    +0.000 OA
ATOM     10  C   UNL     1       4.644   4.626  18.801  0.00  0.00    +0.000 C 
BRANCH  10  11
ATOM     11  C   UNL     1       5.333   4.704  17.488  0.00  0.00    +0.000 A 
ATOM     12  C   UNL     1       4.769   4.059  16.377  0.00  0.00    +0.000 A 
ATOM     13  C   UNL     1       5.406   4.117  15.133  0.00  0.00    +0.000 A 
ATOM     14  C   UNL     1       6.616   4.814  15.008  0.00  0.00    +0.000 A 
ATOM     15  C   UNL     1       7.194   5.446  16.119  0.00  0.00    +0.000 A 
ATOM     16  C   UNL     1       6.552   5.386  17.355  0.00  0.00    +0.000 A 
BRANCH  14  17
ATOM     17  N   UNL     1       7.293   4.885  13.709  0.00  0.00    +0.000 N 
ATOM     18  O   UNL     1       6.932   4.095  12.825  0.00  0.00    +0.000 OA
ATOM     19  O   UNL     1       8.185   5.735  13.570  0.00  0.00    +0.000 OA
ENDBRANCH  14  17
ENDBRANCH  10  11
ENDBRANCH   7  10
ENDBRANCH   1   8
BRANCH   4  20
ATOM     20  O   UNL     1       0.347  11.082  20.018  0.00  0.00    +0.000 OA
BRANCH  20  21
ATOM     21  C   UNL     1       1.170  11.894  20.876  0.00  0.00    +0.000 C 
BRANCH  21  22
ATOM     22  C   UNL     1       1.661  13.104  20.181  0.00  0.00    +0.000 A 
ATOM     23  C   UNL     1       2.534  13.212  19.124  0.00  0.00    +0.000 A 
ATOM     24  N   UNL     1       2.616  14.552  18.906  0.00  0.00    +0.000 N 
ATOM     25  N   UNL     1       1.863  15.241  19.787  0.00  0.00    +0.000 NA
ATOM     26  N   UNL     1       1.282  14.357  20.587  0.00  0.00    +0.000 NA
BRANCH  24  27
ATOM     27  C   UNL     1       3.257  15.219  17.789  0.00  0.00    +0.000 C 
BRANCH  27  28
ATOM     28  C   UNL     1       4.696  15.572  18.067  0.00  0.00    +0.000 A 
ATOM     29  C   UNL     1       5.025  16.786  18.689  0.00  0.00    +0.000 A 
ATOM     30  C   UNL     1       6.349  17.070  19.028  0.00  0.00    +0.000 A 
ATOM     31  C   UNL     1       7.354  16.149  18.750  0.00  0.00    +0.000 A 
ATOM     32  C   UNL     1       7.045  14.948  18.116  0.00  0.00    +0.000 A 
ATOM     33  C   UNL     1       5.723  14.662  17.773  0.00  0.00    +0.000 A 
ENDBRANCH  27  28
ENDBRANCH  24  27
ENDBRANCH  21  22
ENDBRANCH  20  21
ENDBRANCH   4  20
TORSDOF 9
ENDMDL
MODEL 7
REMARK VINA RESULT:      -8.0      1.682      2.466
REMARK  Name = 
REMARK  9 active torsions:
REMARK  status: ('A' for Active; 'I' for Inactive)
REMARK    1  A    between atoms: C_2  and  C_3
REMARK    2  A    between atoms: C_2  and  C_25
REMARK    3  A    between atoms: C_4  and  C_5
REMARK    4  A    between atoms: C_8  and  O_9
REMARK    5  A    between atoms: O_9  and  C_10
REMARK    6  A    between atoms: C_10  and  C_11
REMARK    7  A    between atoms: N_13  and  C_14
REMARK    8  A    between atoms: C_14  and  C_15
REMARK    9  A    between atoms: C_28  and  N_29
REMARK                            x       y       z     vdW  Elec       q    Type
REMARK                         _______ _______ _______ _____ _____    ______ ____
ROOT
ATOM      1  C   UNL     1       2.102   7.912  18.804  0.00  0.00    +0.000 A 
ATOM      2  C   UNL     1       2.162   8.929  17.849  0.00  0.00    +0.000 A 
ATOM      3  C   UNL     1       1.646  10.188  18.129  0.00  0.00    +0.000 A 
ATOM      4  C   UNL     1       1.027  10.436  19.355  0.00  0.00    +0.000 A 
ATOM      5  C   UNL     1       1.002   9.438  20.330  0.00  0.00    +0.000 A 
ATOM      6  C   UNL     1       1.537   8.172  20.056  0.00  0.00    +0.000 A 
ENDROOT
BRANCH   1   8
ATOM      7  C   UNL     1       3.508   6.005  19.317  0.00  0.00    +0.000 C 
ATOM      8  C   UNL     1       2.680   6.615  18.463  0.00  0.00    +0.000 C 
BRANCH   7  10
ATOM      9  O   UNL     1       4.104   3.716  19.590  0.00  0.00    +0.000 OA
ATOM     10  C   UNL     1       4.190   4.740  18.930  0.00  0.00    +0.000 C 
BRANCH  10  11
ATOM     11  C   UNL     1       4.951   4.764  17.654  0.00  0.00    +0.000 A 
ATOM     12  C   UNL     1       6.105   5.556  17.556  0.00  0.00    +0.000 A 
ATOM     13  C   UNL     1       6.831   5.595  16.362  0.00  0.00    +0.000 A 
ATOM     14  C   UNL     1       6.391   4.846  15.261  0.00  0.00    +0.000 A 
ATOM     15  C   UNL     1       5.229   4.066  15.347  0.00  0.00    +0.000 A 
ATOM     16  C   UNL     1       4.511   4.030  16.542  0.00  0.00    +0.000 A 
BRANCH  14  17
ATOM     17  N   UNL     1       7.144   4.876  14.003  0.00  0.00    +0.000 N 
ATOM     18  O   UNL     1       8.154   5.591  13.951  0.00  0.00    +0.000 OA
ATOM     19  O   UNL     1       6.728   4.179  13.066  0.00  0.00    +0.000 OA
ENDBRANCH  14  17
ENDBRANCH  10  11
ENDBRANCH   7  10
ENDBRANCH   1   8
BRANCH   4  20
ATOM     20  O   UNL     1       0.423  11.621  19.674  0.00  0.00    +0.000 OA
BRANCH  20  21
ATOM     21  C   UNL     1      -0.387  12.170  18.618  0.00  0.00    +0.000 C 
BRANCH  21  22
ATOM     22  C   UNL     1      -1.816  12.232  18.998  0.00  0.00    +0.000 A 
ATOM     23  C   UNL     1      -2.414  12.880  20.053  0.00  0.00    +0.000 A 
ATOM     24  N   UNL     1      -3.734  12.593  19.904  0.00  0.00    +0.000 N 
ATOM     25  N   UNL     1      -3.948  11.795  18.839  0.00  0.00    +0.000 NA
ATOM     26  N   UNL     1      -2.769  11.554  18.282  0.00  0.00    +0.000 NA
BRANCH  24  27
ATOM     27  C   UNL     1      -4.844  13.172  20.637  0.00  0.00    +0.000 C 
BRANCH  27  28
ATOM     28  C   UNL     1      -4.469  13.578  22.040  0.00  0.00    +0.000 A 
ATOM     29  C   UNL     1      -4.335  12.613  23.049  0.00  0.00    +0.000 A 
ATOM     30  C   UNL     1      -3.899  12.980  24.324  0.00  0.00    +0.000 A 
ATOM     31  C   UNL     1      -3.594  14.309  24.602  0.00  0.00    +0.000 A 
ATOM     32  C   UNL     1      -3.740  15.280  23.615  0.00  0.00    +0.000 A 
ATOM     33  C   UNL     1      -4.178  14.918  22.340  0.00  0.00    +0.000 A 
ENDBRANCH  27  28
ENDBRANCH  24  27
ENDBRANCH  21  22
ENDBRANCH  20  21
ENDBRANCH   4  20
TORSDOF 9
ENDMDL
MODEL 8
REMARK VINA RESULT:      -8.0      3.466      4.834
REMARK  Name = 
REMARK  9 active torsions:
REMARK  status: ('A' for Active; 'I' for Inactive)
REMARK    1  A    between atoms: C_2  and  C_3
REMARK    2  A    between atoms: C_2  and  C_25
REMARK    3  A    between atoms: C_4  and  C_5
REMARK    4  A    between atoms: C_8  and  O_9
REMARK    5  A    between atoms: O_9  and  C_10
REMARK    6  A    between atoms: C_10  and  C_11
REMARK    7  A    between atoms: N_13  and  C_14
REMARK    8  A    between atoms: C_14  and  C_15
REMARK    9  A    between atoms: C_28  and  N_29
REMARK                            x       y       z     vdW  Elec       q    Type
REMARK                         _______ _______ _______ _____ _____    ______ ____
ROOT
ATOM      1  C   UNL     1       2.374   7.689  18.992  0.00  0.00    +0.000 A 
ATOM      2  C   UNL     1       1.941   8.476  17.923  0.00  0.00    +0.000 A 
ATOM      3  C   UNL     1       0.963   9.444  18.113  0.00  0.00    +0.000 A 
ATOM      4  C   UNL     1       0.376   9.611  19.369  0.00  0.00    +0.000 A 
ATOM      5  C   UNL     1       0.835   8.858  20.451  0.00  0.00    +0.000 A 
ATOM      6  C   UNL     1       1.833   7.893  20.264  0.00  0.00    +0.000 A 
ENDROOT
BRANCH   1   8
ATOM      7  C   UNL     1       3.146   5.603  18.026  0.00  0.00    +0.000 C 
ATOM      8  C   UNL     1       3.420   6.701  18.737  0.00  0.00    +0.000 C 
BRANCH   7  10
ATOM      9  O   UNL     1       4.260   3.581  18.612  0.00  0.00    +0.000 OA
ATOM     10  C   UNL     1       4.174   4.540  17.859  0.00  0.00    +0.000 C 
BRANCH  10  11
ATOM     11  C   UNL     1       5.072   4.668  16.683  0.00  0.00    +0.000 A 
ATOM     12  C   UNL     1       6.287   5.357  16.818  0.00  0.00    +0.000 A 
ATOM     13  C   UNL     1       7.143   5.493  15.720  0.00  0.00    +0.000 A 
ATOM     14  C   UNL     1       6.773   4.945  14.483  0.00  0.00    +0.000 A 
ATOM     15  C   UNL     1       5.553   4.270  14.338  0.00  0.00    +0.000 A 
ATOM     16  C   UNL     1       4.704   4.137  15.437  0.00  0.00    +0.000 A 
BRANCH  14  17
ATOM     17  N   UNL     1       7.663   5.077  13.325  0.00  0.00    +0.000 N 
ATOM     18  O   UNL     1       7.422   4.382  12.329  0.00  0.00    +0.000 OA
ATOM     19  O   UNL     1       8.604   5.881  13.411  0.00  0.00    +0.000 OA
ENDBRANCH  14  17
ENDBRANCH  10  11
ENDBRANCH   7  10
ENDBRANCH   1   8
BRANCH   4  20
ATOM     20  O   UNL     1      -0.648  10.483  19.618  0.00  0.00    +0.000 OA
BRANCH  20  21
ATOM     21  C   UNL     1      -0.720  11.584  18.694  0.00  0.00    +0.000 C 
BRANCH  21  22
ATOM     22  C   UNL     1      -0.057  12.793  19.229  0.00  0.00    +0.000 A 
ATOM     23  C   UNL     1       0.806  13.666  18.607  0.00  0.00    +0.000 A 
ATOM     24  N   UNL     1       1.093  14.581  19.571  0.00  0.00    +0.000 N 
ATOM     25  N   UNL     1       0.469  14.288  20.730  0.00  0.00    +0.000 NA
ATOM     26  N   UNL     1      -0.230  13.178  20.534  0.00  0.00    +0.000 NA
BRANCH  24  27
ATOM     27  C   UNL     1       1.812  15.830  19.406  0.00  0.00    +0.000 C 
BRANCH  27  28
ATOM     28  C   UNL     1       1.151  16.759  18.420  0.00  0.00    +0.000 A 
ATOM     29  C   UNL     1      -0.202  17.105  18.565  0.00  0.00    +0.000 A 
ATOM     30  C   UNL     1      -0.788  18.037  17.706  0.00  0.00    +0.000 A 
ATOM     31  C   UNL     1      -0.033  18.630  16.699  0.00  0.00    +0.000 A 
ATOM     32  C   UNL     1       1.305  18.283  16.533  0.00  0.00    +0.000 A 
ATOM     33  C   UNL     1       1.894  17.350  17.387  0.00  0.00    +0.000 A 
ENDBRANCH  27  28
ENDBRANCH  24  27
ENDBRANCH  21  22
ENDBRANCH  20  21
ENDBRANCH   4  20
TORSDOF 9
ENDMDL
MODEL 9
REMARK VINA RESULT:      -8.0      6.325      8.371
REMARK  Name = 
REMARK  9 active torsions:
REMARK  status: ('A' for Active; 'I' for Inactive)
REMARK    1  A    between atoms: C_2  and  C_3
REMARK    2  A    between atoms: C_2  and  C_25
REMARK    3  A    between atoms: C_4  and  C_5
REMARK    4  A    between atoms: C_8  and  O_9
REMARK    5  A    between atoms: O_9  and  C_10
REMARK    6  A    between atoms: C_10  and  C_11
REMARK    7  A    between atoms: N_13  and  C_14
REMARK    8  A    between atoms: C_14  and  C_15
REMARK    9  A    between atoms: C_28  and  N_29
REMARK                            x       y       z     vdW  Elec       q    Type
REMARK                         _______ _______ _______ _____ _____    ______ ____
ROOT
ATOM      1  C   UNL     1       8.719   9.794  18.583  0.00  0.00    +0.000 A 
ATOM      2  C   UNL     1       8.373  10.740  17.615  0.00  0.00    +0.000 A 
ATOM      3  C   UNL     1       8.678  12.082  17.802  0.00  0.00    +0.000 A 
ATOM      4  C   UNL     1       9.301  12.502  18.979  0.00  0.00    +0.000 A 
ATOM      5  C   UNL     1       9.688  11.557  19.931  0.00  0.00    +0.000 A 
ATOM      6  C   UNL     1       9.395  10.201  19.736  0.00  0.00    +0.000 A 
ENDROOT
BRANCH   1   8
ATOM      7  C   UNL     1       7.466   8.081  17.411  0.00  0.00    +0.000 C 
ATOM      8  C   UNL     1       8.392   8.394  18.322  0.00  0.00    +0.000 C 
BRANCH   7  10
ATOM      9  O   UNL     1       7.727   5.850  16.619  0.00  0.00    +0.000 OA
ATOM     10  C   UNL     1       7.046   6.666  17.221  0.00  0.00    +0.000 C 
BRANCH  10  11
ATOM     11  C   UNL     1       5.762   6.268  17.855  0.00  0.00    +0.000 A 
ATOM     12  C   UNL     1       4.559   6.786  17.355  0.00  0.00    +0.000 A 
ATOM     13  C   UNL     1       3.341   6.427  17.942  0.00  0.00    +0.000 A 
ATOM     14  C   UNL     1       3.334   5.554  19.039  0.00  0.00    +0.000 A 
ATOM     15  C   UNL     1       4.535   5.046  19.554  0.00  0.00    +0.000 A 
ATOM     16  C   UNL     1       5.745   5.407  18.963  0.00  0.00    +0.000 A 
BRANCH  14  17
ATOM     17  N   UNL     1       2.064   5.166  19.662  0.00  0.00    +0.000 N 
ATOM     18  O   UNL     1       1.731   5.748  20.704  0.00  0.00    +0.000 OA
ATOM     19  O   UNL     1       1.396   4.282  19.106  0.00  0.00    +0.000 OA
ENDBRANCH  14  17
ENDBRANCH  10  11
ENDBRANCH   7  10
ENDBRANCH   1   8
BRANCH   4  20
ATOM     20  O   UNL     1       9.559  13.812  19.275  0.00  0.00    +0.000 OA
BRANCH  20  21
ATOM     21  C   UNL     1       9.402  14.708  18.159  0.00  0.00    +0.000 C 
BRANCH  21  22
ATOM     22  C   UNL     1       8.299  15.669  18.378  0.00  0.00    +0.000 A 
ATOM     23  C   UNL     1       6.968  15.432  18.631  0.00  0.00    +0.000 A 
ATOM     24  N   UNL     1       6.432  16.676  18.746  0.00  0.00    +0.000 N 
ATOM     25  N   UNL     1       7.362  17.633  18.552  0.00  0.00    +0.000 NA
ATOM     26  N   UNL     1       8.514  17.022  18.309  0.00  0.00    +0.000 NA
BRANCH  24  27
ATOM     27  C   UNL     1       5.095  17.015  19.193  0.00  0.00    +0.000 C 
BRANCH  27  28
ATOM     28  C   UNL     1       4.174  15.822  19.238  0.00  0.00    +0.000 A 
ATOM     29  C   UNL     1       3.563  15.350  18.066  0.00  0.00    +0.000 A 
ATOM     30  C   UNL     1       2.784  14.192  18.092  0.00  0.00    +0.000 A 
ATOM     31  C   UNL     1       2.607  13.496  19.285  0.00  0.00    +0.000 A 
ATOM     32  C   UNL     1       3.194  13.963  20.458  0.00  0.00    +0.000 A 
ATOM     33  C   UNL     1       3.971  15.122  20.437  0.00  0.00    +0.000 A 
ENDBRANCH  27  28
ENDBRANCH  24  27
ENDBRANCH  21  22
ENDBRANCH  20  21
ENDBRANCH   4  20
TORSDOF 9
ENDMDL
