MODEL 1
REMARK VINA RESULT:      -8.4      0.000      0.000
REMARK  Name = 
REMARK  2 active torsions:
REMARK  status: ('A' for Active; 'I' for Inactive)
REMARK    1  A    between atoms: C_4  and  C_5
REMARK    2  A    between atoms: C_17  and  O_18
REMARK                            x       y       z     vdW  Elec       q    Type
REMARK                         _______ _______ _______ _____ _____    ______ ____
ROOT
ATOM      1  O   UNL     1       7.797   6.239  16.160  0.00  0.00    +0.000 OA
ATOM      2  C   UNL     1       6.983   5.445  15.730  0.00  0.00    +0.000 C 
ATOM      3  C   UNL     1       5.869   4.835  16.517  0.00  0.00    +0.000 C 
ATOM      4  C   UNL     1       5.708   5.158  17.806  0.00  0.00    +0.000 C 
ATOM      5  C   UNL     1       5.091   3.907  15.622  0.00  0.00    +0.000 C 
ATOM      6  C   UNL     1       5.805   4.016  14.305  0.00  0.00    +0.000 A 
ATOM      7  C   UNL     1       5.505   3.368  13.116  0.00  0.00    +0.000 A 
ATOM      8  C   UNL     1       6.310   3.620  11.998  0.00  0.00    +0.000 A 
ATOM      9  C   UNL     1       7.398   4.508  12.074  0.00  0.00    +0.000 A 
ATOM     10  C   UNL     1       7.692   5.155  13.273  0.00  0.00    +0.000 A 
ATOM     11  C   UNL     1       6.889   4.899  14.370  0.00  0.00    +0.000 A 
ENDROOT
BRANCH   4  12
ATOM     12  C   UNL     1       4.661   4.611  18.659  0.00  0.00    +0.000 A 
ATOM     13  C   UNL     1       4.705   3.266  19.043  0.00  0.00    +0.000 A 
ATOM     14  C   UNL     1       3.741   2.755  19.915  0.00  0.00    +0.000 A 
ATOM     15  C   UNL     1       2.730   3.588  20.392  0.00  0.00    +0.000 A 
ATOM     16 BR   UNL     1       1.450   2.907  21.605  0.00  0.00    +0.000 Br
ATOM     17  C   UNL     1       2.662   4.921  19.991  0.00  0.00    +0.000 A 
ATOM     18  C   UNL     1       3.630   5.433  19.124  0.00  0.00    +0.000 A 
ENDBRANCH   4  12
BRANCH  10  19
ATOM     19  O   UNL     1       8.740   6.016  13.363  0.00  0.00    +0.000 OA
ATOM     20  H   UNL     1       9.547   5.533  13.599  0.00  0.00    +0.000 HD
ENDBRANCH  10  19
TORSDOF 2
ENDMDL
MODEL 2
REMARK VINA RESULT:      -8.4      0.150      1.112
REMARK  Name = 
REMARK  2 active torsions:
REMARK  status: ('A' for Active; 'I' for Inactive)
REMARK    1  A    between atoms: C_4  and  C_5
REMARK    2  A    between atoms: C_17  and  O_18
REMARK                            x       y       z     vdW  Elec       q    Type
REMARK                         _______ _______ _______ _____ _____    ______ ____
ROOT
ATOM      1  O   UNL     1       7.759   6.327  16.117  0.00  0.00    +0.000 OA
ATOM      2  C   UNL     1       6.959   5.502  15.720  0.00  0.00    +0.000 C 
ATOM      3  C   UNL     1       5.867   4.892  16.539  0.00  0.00    +0.000 C 
ATOM      4  C   UNL     1       5.713   5.252  17.819  0.00  0.00    +0.000 C 
ATOM      5  C   UNL     1       5.102   3.920  15.681  0.00  0.00    +0.000 C 
ATOM      6  C   UNL     1       5.800   4.004  14.353  0.00  0.00    +0.000 A 
ATOM      7  C   UNL     1       5.502   3.313  13.188  0.00  0.00    +0.000 A 
ATOM      8  C   UNL     1       6.289   3.547  12.054  0.00  0.00    +0.000 A 
ATOM      9  C   UNL     1       7.357   4.461  12.091  0.00  0.00    +0.000 A 
ATOM     10  C   UNL     1       7.649   5.152  13.266  0.00  0.00    +0.000 A 
ATOM     11  C   UNL     1       6.864   4.912  14.379  0.00  0.00    +0.000 A 
ENDROOT
BRANCH   4  12
ATOM     12  C   UNL     1       4.687   4.708  18.699  0.00  0.00    +0.000 A 
ATOM     13  C   UNL     1       3.538   5.457  18.979  0.00  0.00    +0.000 A 
ATOM     14  C   UNL     1       2.522   4.913  19.768  0.00  0.00    +0.000 A 
ATOM     15  C   UNL     1       2.662   3.625  20.282  0.00  0.00    +0.000 A 
ATOM     16 BR   UNL     1       1.269   2.872  21.314  0.00  0.00    +0.000 Br
ATOM     17  C   UNL     1       3.816   2.883  20.032  0.00  0.00    +0.000 A 
ATOM     18  C   UNL     1       4.829   3.426  19.239  0.00  0.00    +0.000 A 
ENDBRANCH   4  12
BRANCH  10  19
ATOM     19  O   UNL     1       8.678   6.038  13.318  0.00  0.00    +0.000 OA
ATOM     20  H   UNL     1       9.442   5.689  12.831  0.00  0.00    +0.000 HD
ENDBRANCH  10  19
TORSDOF 2
ENDMDL
MODEL 3
REMARK VINA RESULT:      -7.4      5.097      7.136
REMARK  Name = 
REMARK  2 active torsions:
REMARK  status: ('A' for Active; 'I' for Inactive)
REMARK    1  A    between atoms: C_4  and  C_5
REMARK    2  A    between atoms: C_17  and  O_18
REMARK                            x       y       z     vdW  Elec       q    Type
REMARK                         _______ _______ _______ _____ _____    ______ ____
ROOT
ATOM      1  O   UNL     1       4.485   6.091  18.111  0.00  0.00    +0.000 OA
ATOM      2  C   UNL     1       3.617   5.830  18.922  0.00  0.00    +0.000 C 
ATOM      3  C   UNL     1       2.494   6.737  19.310  0.00  0.00    +0.000 C 
ATOM      4  C   UNL     1       2.389   7.946  18.746  0.00  0.00    +0.000 C 
ATOM      5  C   UNL     1       1.642   6.043  20.338  0.00  0.00    +0.000 C 
ATOM      6  C   UNL     1       2.322   4.715  20.515  0.00  0.00    +0.000 A 
ATOM      7  C   UNL     1       1.953   3.672  21.352  0.00  0.00    +0.000 A 
ATOM      8  C   UNL     1       2.738   2.513  21.358  0.00  0.00    +0.000 A 
ATOM      9  C   UNL     1       3.874   2.404  20.537  0.00  0.00    +0.000 A 
ATOM     10  C   UNL     1       4.238   3.456  19.699  0.00  0.00    +0.000 A 
ATOM     11  C   UNL     1       3.455   4.596  19.702  0.00  0.00    +0.000 A 
ENDROOT
BRANCH   4  12
ATOM     12  C   UNL     1       1.338   8.905  19.064  0.00  0.00    +0.000 A 
ATOM     13  C   UNL     1       1.089   9.251  20.397  0.00  0.00    +0.000 A 
ATOM     14  C   UNL     1       0.130  10.219  20.701  0.00  0.00    +0.000 A 
ATOM     15  C   UNL     1      -0.585  10.830  19.673  0.00  0.00    +0.000 A 
ATOM     16 BR   UNL     1      -1.854  12.170  20.082  0.00  0.00    +0.000 Br
ATOM     17  C   UNL     1      -0.364  10.470  18.344  0.00  0.00    +0.000 A 
ATOM     18  C   UNL     1       0.599   9.506  18.040  0.00  0.00    +0.000 A 
ENDBRANCH   4  12
BRANCH  10  19
ATOM     19  O   UNL     1       5.333   3.366  18.900  0.00  0.00    +0.000 OA
ATOM     20  H   UNL     1       6.111   3.124  19.428  0.00  0.00    +0.000 HD
ENDBRANCH  10  19
TORSDOF 2
ENDMDL
MODEL 4
REMARK VINA RESULT:      -7.4      4.169      6.817
REMARK  Name = 
REMARK  2 active torsions:
REMARK  status: ('A' for Active; 'I' for Inactive)
REMARK    1  A    between atoms: C_4  and  C_5
REMARK    2  A    between atoms: C_17  and  O_18
REMARK                            x       y       z     vdW  Elec       q    Type
REMARK                         _______ _______ _______ _____ _____    ______ ____
ROOT
ATOM      1  O   UNL     1       4.314   2.954  16.741  0.00  0.00    +0.000 OA
ATOM      2  C   UNL     1       4.032   3.710  17.651  0.00  0.00    +0.000 C 
ATOM      3  C   UNL     1       4.827   4.907  18.061  0.00  0.00    +0.000 C 
ATOM      4  C   UNL     1       5.950   5.219  17.402  0.00  0.00    +0.000 C 
ATOM      5  C   UNL     1       4.142   5.571  19.225  0.00  0.00    +0.000 C 
ATOM      6  C   UNL     1       2.935   4.707  19.456  0.00  0.00    +0.000 A 
ATOM      7  C   UNL     1       1.946   4.864  20.416  0.00  0.00    +0.000 A 
ATOM      8  C   UNL     1       0.899   3.934  20.453  0.00  0.00    +0.000 A 
ATOM      9  C   UNL     1       0.848   2.866  19.540  0.00  0.00    +0.000 A 
ATOM     10  C   UNL     1       1.846   2.716  18.579  0.00  0.00    +0.000 A 
ATOM     11  C   UNL     1       2.874   3.641  18.553  0.00  0.00    +0.000 A 
ENDROOT
BRANCH   4  12
ATOM     12  C   UNL     1       6.798   6.357  17.730  0.00  0.00    +0.000 A 
ATOM     13  C   UNL     1       6.608   7.581  17.078  0.00  0.00    +0.000 A 
ATOM     14  C   UNL     1       7.372   8.692  17.439  0.00  0.00    +0.000 A 
ATOM     15  C   UNL     1       8.332   8.575  18.442  0.00  0.00    +0.000 A 
ATOM     16 BR   UNL     1       9.338  10.089  18.959  0.00  0.00    +0.000 Br
ATOM     17  C   UNL     1       8.548   7.352  19.077  0.00  0.00    +0.000 A 
ATOM     18  C   UNL     1       7.779   6.243  18.720  0.00  0.00    +0.000 A 
ENDBRANCH   4  12
BRANCH  10  19
ATOM     19  O   UNL     1       1.812   1.689  17.690  0.00  0.00    +0.000 OA
ATOM     20  H   UNL     1       0.988   1.720  17.178  0.00  0.00    +0.000 HD
ENDBRANCH  10  19
TORSDOF 2
ENDMDL
MODEL 5
REMARK VINA RESULT:      -7.3      5.082      7.161
REMARK  Name = 
REMARK  2 active torsions:
REMARK  status: ('A' for Active; 'I' for Inactive)
REMARK    1  A    between atoms: C_4  and  C_5
REMARK    2  A    between atoms: C_17  and  O_18
REMARK                            x       y       z     vdW  Elec       q    Type
REMARK                         _______ _______ _______ _____ _____    ______ ____
ROOT
ATOM      1  O   UNL     1       4.463   6.039  18.078  0.00  0.00    +0.000 OA
ATOM      2  C   UNL     1       3.596   5.819  18.902  0.00  0.00    +0.000 C 
ATOM      3  C   UNL     1       2.508   6.768  19.289  0.00  0.00    +0.000 C 
ATOM      4  C   UNL     1       2.435   7.972  18.708  0.00  0.00    +0.000 C 
ATOM      5  C   UNL     1       1.646   6.117  20.338  0.00  0.00    +0.000 C 
ATOM      6  C   UNL     1       2.285   4.772  20.528  0.00  0.00    +0.000 A 
ATOM      7  C   UNL     1       1.892   3.754  21.385  0.00  0.00    +0.000 A 
ATOM      8  C   UNL     1       2.639   2.569  21.400  0.00  0.00    +0.000 A 
ATOM      9  C   UNL     1       3.762   2.411  20.568  0.00  0.00    +0.000 A 
ATOM     10  C   UNL     1       4.149   3.439  19.709  0.00  0.00    +0.000 A 
ATOM     11  C   UNL     1       3.403   4.603  19.703  0.00  0.00    +0.000 A 
ENDROOT
BRANCH   4  12
ATOM     12  C   UNL     1       1.420   8.968  19.024  0.00  0.00    +0.000 A 
ATOM     13  C   UNL     1       0.650   9.530  17.999  0.00  0.00    +0.000 A 
ATOM     14  C   UNL     1      -0.369  10.434  18.304  0.00  0.00    +0.000 A 
ATOM     15  C   UNL     1      -0.609  10.782  19.632  0.00  0.00    +0.000 A 
ATOM     16 BR   UNL     1      -2.016  11.974  20.048  0.00  0.00    +0.000 Br
ATOM     17  C   UNL     1       0.172  10.250  20.657  0.00  0.00    +0.000 A 
ATOM     18  C   UNL     1       1.188   9.341  20.351  0.00  0.00    +0.000 A 
ENDBRANCH   4  12
BRANCH  10  19
ATOM     19  O   UNL     1       5.231   3.301  18.899  0.00  0.00    +0.000 OA
ATOM     20  H   UNL     1       4.953   3.302  17.969  0.00  0.00    +0.000 HD
ENDBRANCH  10  19
TORSDOF 2
ENDMDL
MODEL 6
REMARK VINA RESULT:      -7.3      4.277      6.132
REMARK  Name = 
REMARK  2 active torsions:
REMARK  status: ('A' for Active; 'I' for Inactive)
REMARK    1  A    between atoms: C_4  and  C_5
REMARK    2  A    between atoms: C_17  and  O_18
REMARK                            x       y       z     vdW  Elec       q    Type
REMARK                         _______ _______ _______ _____ _____    ______ ____
ROOT
ATOM      1  O   UNL     1       4.614   6.078  16.973  0.00  0.00    +0.000 OA
ATOM      2  C   UNL     1       3.685   5.648  17.629  0.00  0.00    +0.000 C 
ATOM      3  C   UNL     1       2.630   6.479  18.285  0.00  0.00    +0.000 C 
ATOM      4  C   UNL     1       2.663   7.813  18.168  0.00  0.00    +0.000 C 
ATOM      5  C   UNL     1       1.666   5.569  18.998  0.00  0.00    +0.000 C 
ATOM      6  C   UNL     1       2.215   4.198  18.721  0.00  0.00    +0.000 A 
ATOM      7  C   UNL     1       1.710   2.977  19.143  0.00  0.00    +0.000 A 
ATOM      8  C   UNL     1       2.386   1.810  18.765  0.00  0.00    +0.000 A 
ATOM      9  C   UNL     1       3.549   1.870  17.977  0.00  0.00    +0.000 A 
ATOM     10  C   UNL     1       4.048   3.101  17.557  0.00  0.00    +0.000 A 
ATOM     11  C   UNL     1       3.372   4.247  17.936  0.00  0.00    +0.000 A 
ENDROOT
BRANCH   4  12
ATOM     12  C   UNL     1       1.688   8.708  18.777  0.00  0.00    +0.000 A 
ATOM     13  C   UNL     1       1.520   8.717  20.166  0.00  0.00    +0.000 A 
ATOM     14  C   UNL     1       0.637   9.622  20.758  0.00  0.00    +0.000 A 
ATOM     15  C   UNL     1      -0.085  10.507  19.959  0.00  0.00    +0.000 A 
ATOM     16 BR   UNL     1      -1.250  11.759  20.764  0.00  0.00    +0.000 Br
ATOM     17  C   UNL     1       0.054  10.485  18.572  0.00  0.00    +0.000 A 
ATOM     18  C   UNL     1       0.943   9.584  17.981  0.00  0.00    +0.000 A 
ENDBRANCH   4  12
BRANCH  10  19
ATOM     19  O   UNL     1       5.171   3.176  16.795  0.00  0.00    +0.000 OA
ATOM     20  H   UNL     1       4.946   3.471  15.898  0.00  0.00    +0.000 HD
ENDBRANCH  10  19
TORSDOF 2
ENDMDL
MODEL 7
REMARK VINA RESULT:      -7.2      4.852      6.752
REMARK  Name = 
REMARK  2 active torsions:
REMARK  status: ('A' for Active; 'I' for Inactive)
REMARK    1  A    between atoms: C_4  and  C_5
REMARK    2  A    between atoms: C_17  and  O_18
REMARK                            x       y       z     vdW  Elec       q    Type
REMARK                         _______ _______ _______ _____ _____    ______ ____
ROOT
ATOM      1  O   UNL     1       4.093   6.225  18.140  0.00  0.00    +0.000 OA
ATOM      2  C   UNL     1       3.198   5.730  18.799  0.00  0.00    +0.000 C 
ATOM      3  C   UNL     1       2.202   6.489  19.614  0.00  0.00    +0.000 C 
ATOM      4  C   UNL     1       2.252   7.827  19.653  0.00  0.00    +0.000 C 
ATOM      5  C   UNL     1       1.268   5.511  20.275  0.00  0.00    +0.000 C 
ATOM      6  C   UNL     1       1.773   4.177  19.804  0.00  0.00    +0.000 A 
ATOM      7  C   UNL     1       1.273   2.919  20.110  0.00  0.00    +0.000 A 
ATOM      8  C   UNL     1       1.902   1.798  19.555  0.00  0.00    +0.000 A 
ATOM      9  C   UNL     1       3.014   1.939  18.707  0.00  0.00    +0.000 A 
ATOM     10  C   UNL     1       3.510   3.206  18.404  0.00  0.00    +0.000 A 
ATOM     11  C   UNL     1       2.880   4.306  18.958  0.00  0.00    +0.000 A 
ENDROOT
BRANCH   4  12
ATOM     12  C   UNL     1       1.334   8.654  20.425  0.00  0.00    +0.000 A 
ATOM     13  C   UNL     1       1.334   8.582  21.822  0.00  0.00    +0.000 A 
ATOM     14  C   UNL     1       0.504   9.422  22.567  0.00  0.00    +0.000 A 
ATOM     15  C   UNL     1      -0.333  10.324  21.912  0.00  0.00    +0.000 A 
ATOM     16 BR   UNL     1      -1.426  11.490  22.921  0.00  0.00    +0.000 Br
ATOM     17  C   UNL     1      -0.361  10.382  20.519  0.00  0.00    +0.000 A 
ATOM     18  C   UNL     1       0.474   9.546  19.775  0.00  0.00    +0.000 A 
ENDBRANCH   4  12
BRANCH  10  19
ATOM     19  O   UNL     1       4.584   3.359  17.586  0.00  0.00    +0.000 OA
ATOM     20  H   UNL     1       4.294   3.650  16.707  0.00  0.00    +0.000 HD
ENDBRANCH  10  19
TORSDOF 2
ENDMDL
MODEL 8
REMARK VINA RESULT:      -7.2      4.273      6.170
REMARK  Name = 
REMARK  2 active torsions:
REMARK  status: ('A' for Active; 'I' for Inactive)
REMARK    1  A    between atoms: C_4  and  C_5
REMARK    2  A    between atoms: C_17  and  O_18
REMARK                            x       y       z     vdW  Elec       q    Type
REMARK                         _______ _______ _______ _____ _____    ______ ____
ROOT
ATOM      1  O   UNL     1       4.597   5.921  16.904  0.00  0.00    +0.000 OA
ATOM      2  C   UNL     1       3.684   5.536  17.610  0.00  0.00    +0.000 C 
ATOM      3  C   UNL     1       2.676   6.413  18.276  0.00  0.00    +0.000 C 
ATOM      4  C   UNL     1       2.735   7.741  18.113  0.00  0.00    +0.000 C 
ATOM      5  C   UNL     1       1.719   5.550  19.056  0.00  0.00    +0.000 C 
ATOM      6  C   UNL     1       2.225   4.158  18.805  0.00  0.00    +0.000 A 
ATOM      7  C   UNL     1       1.709   2.964  19.287  0.00  0.00    +0.000 A 
ATOM      8  C   UNL     1       2.343   1.769  18.924  0.00  0.00    +0.000 A 
ATOM      9  C   UNL     1       3.475   1.775  18.090  0.00  0.00    +0.000 A 
ATOM     10  C   UNL     1       3.986   2.980  17.610  0.00  0.00    +0.000 A 
ATOM     11  C   UNL     1       3.352   4.153  17.976  0.00  0.00    +0.000 A 
ENDROOT
BRANCH   4  12
ATOM     12  C   UNL     1       1.805   8.680  18.728  0.00  0.00    +0.000 A 
ATOM     13  C   UNL     1       1.075   9.565  17.928  0.00  0.00    +0.000 A 
ATOM     14  C   UNL     1       0.133  10.419  18.506  0.00  0.00    +0.000 A 
ATOM     15  C   UNL     1      -0.068  10.392  19.885  0.00  0.00    +0.000 A 
ATOM     16 BR   UNL     1      -1.372  11.517  20.664  0.00  0.00    +0.000 Br
ATOM     17  C   UNL     1       0.676   9.533  20.694  0.00  0.00    +0.000 A 
ATOM     18  C   UNL     1       1.613   8.676  20.113  0.00  0.00    +0.000 A 
ENDBRANCH   4  12
BRANCH  10  19
ATOM     19  O   UNL     1       5.080   3.002  16.803  0.00  0.00    +0.000 OA
ATOM     20  H   UNL     1       4.815   2.866  15.880  0.00  0.00    +0.000 HD
ENDBRANCH  10  19
TORSDOF 2
ENDMDL
MODEL 9
REMARK VINA RESULT:      -7.1      4.136      5.627
REMARK  Name = 
REMARK  2 active torsions:
REMARK  status: ('A' for Active; 'I' for Inactive)
REMARK    1  A    between atoms: C_4  and  C_5
REMARK    2  A    between atoms: C_17  and  O_18
REMARK                            x       y       z     vdW  Elec       q    Type
REMARK                         _______ _______ _______ _____ _____    ______ ____
ROOT
ATOM      1  O   UNL     1       2.856   4.035  19.382  0.00  0.00    +0.000 OA
ATOM      2  C   UNL     1       3.229   4.975  18.707  0.00  0.00    +0.000 C 
ATOM      3  C   UNL     1       2.846   6.403  18.924  0.00  0.00    +0.000 C 
ATOM      4  C   UNL     1       2.030   6.728  19.935  0.00  0.00    +0.000 C 
ATOM      5  C   UNL     1       3.516   7.251  17.877  0.00  0.00    +0.000 C 
ATOM      6  C   UNL     1       4.288   6.252  17.063  0.00  0.00    +0.000 A 
ATOM      7  C   UNL     1       5.095   6.492  15.960  0.00  0.00    +0.000 A 
ATOM      8  C   UNL     1       5.728   5.403  15.348  0.00  0.00    +0.000 A 
ATOM      9  C   UNL     1       5.553   4.096  15.836  0.00  0.00    +0.000 A 
ATOM     10  C   UNL     1       4.741   3.865  16.945  0.00  0.00    +0.000 A 
ATOM     11  C   UNL     1       4.121   4.948  17.541  0.00  0.00    +0.000 A 
ENDROOT
BRANCH   4  12
ATOM     12  C   UNL     1       1.592   8.088  20.223  0.00  0.00    +0.000 A 
ATOM     13  C   UNL     1       1.381   8.990  19.175  0.00  0.00    +0.000 A 
ATOM     14  C   UNL     1       0.896  10.272  19.441  0.00  0.00    +0.000 A 
ATOM     15  C   UNL     1       0.634  10.652  20.756  0.00  0.00    +0.000 A 
ATOM     16 BR   UNL     1      -0.062  12.373  21.114  0.00  0.00    +0.000 Br
ATOM     17  C   UNL     1       0.869   9.769  21.809  0.00  0.00    +0.000 A 
ATOM     18  C   UNL     1       1.348   8.485  21.541  0.00  0.00    +0.000 A 
ENDBRANCH   4  12
BRANCH  10  19
ATOM     19  O   UNL     1       4.561   2.607  17.429  0.00  0.00    +0.000 OA
ATOM     20  H   UNL     1       5.298   2.368  18.014  0.00  0.00    +0.000 HD
ENDBRANCH  10  19
TORSDOF 2
ENDMDL
