MODEL 1
REMARK VINA RESULT:      -6.7      0.000      0.000
REMARK  Name = 
REMARK  10 active torsions:
REMARK  status: ('A' for Active; 'I' for Inactive)
REMARK    1  A    between atoms: C_1  and  C_2
REMARK    2  A    between atoms: C_2  and  N_3
REMARK    3  A    between atoms: N_3  and  C_4
REMARK    4  A    between atoms: N_3  and  S_5
REMARK    5  A    between atoms: S_5  and  N_8
REMARK    6  A    between atoms: N_8  and  C_9
REMARK    7  A    between atoms: C_9  and  C_10
REMARK    8  A    between atoms: C_9  and  C_12
REMARK    9  A    between atoms: C_10  and  O_11
REMARK   10  A    between atoms: C_12  and  C_13
REMARK                            x       y       z     vdW  Elec       q    Type
REMARK                         _______ _______ _______ _____ _____    ______ ____
ROOT
ATOM      1  C   UNL     1       5.069   5.706  17.962  0.00  0.00    +0.000 C 
ENDROOT
BRANCH   1   2
ATOM      2  N   UNL     1       5.560   4.885  16.807  0.00  0.00    +0.000 NA
ATOM      3  H   UNL     1       5.429   3.889  17.031  0.00  0.00    +0.000 HD
BRANCH   2   4
ATOM      4  S   UNL     1       7.114   5.083  16.240  0.00  0.00    +0.000 S 
ATOM      5  O   UNL     1       7.955   4.197  17.008  0.00  0.00    +0.000 OA
ATOM      6  O   UNL     1       7.397   6.500  16.170  0.00  0.00    +0.000 OA
BRANCH   4   7
ATOM      7  N   UNL     1       7.024   4.472  14.660  0.00  0.00    +0.000 NA
ATOM      8  C   UNL     1       7.724   5.266  13.622  0.00  0.00    +0.000 C 
BRANCH   7  10
ATOM      9  C   UNL     1       5.550   3.567  12.855  0.00  0.00    +0.000 C 
ATOM     10  C   UNL     1       5.621   4.137  14.265  0.00  0.00    +0.000 C 
ENDBRANCH   7  10
ENDBRANCH   4   7
ENDBRANCH   2   4
ENDBRANCH   1   2
BRANCH   1  11
ATOM     11  C   UNL     1       5.348   4.864  19.231  0.00  0.00    +0.000 C 
BRANCH  11  12
ATOM     12  O   UNL     1       6.648   5.177  19.744  0.00  0.00    +0.000 OA
ATOM     13  H   UNL     1       6.810   6.118  19.553  0.00  0.00    +0.000 HD
ENDBRANCH  11  12
ENDBRANCH   1  11
BRANCH   1  14
ATOM     14  C   UNL     1       3.573   6.007  17.818  0.00  0.00    +0.000 C 
BRANCH  14  15
ATOM     15  C   UNL     1       2.645   5.048  18.512  0.00  0.00    +0.000 A 
ATOM     16  C   UNL     1       2.166   5.318  19.803  0.00  0.00    +0.000 A 
ATOM     17  C   UNL     1       1.295   4.423  20.423  0.00  0.00    +0.000 A 
ATOM     18  C   UNL     1       0.896   3.261  19.764  0.00  0.00    +0.000 A 
ATOM     19  C   UNL     1       1.361   2.991  18.480  0.00  0.00    +0.000 A 
ATOM     20  C   UNL     1       2.233   3.882  17.856  0.00  0.00    +0.000 A 
ENDBRANCH  14  15
ENDBRANCH   1  14
TORSDOF 8
ENDMDL
MODEL 2
REMARK VINA RESULT:      -6.5      2.338      3.338
REMARK  Name = 
REMARK  10 active torsions:
REMARK  status: ('A' for Active; 'I' for Inactive)
REMARK    1  A    between atoms: C_1  and  C_2
REMARK    2  A    between atoms: C_2  and  N_3
REMARK    3  A    between atoms: N_3  and  C_4
REMARK    4  A    between atoms: N_3  and  S_5
REMARK    5  A    between atoms: S_5  and  N_8
REMARK    6  A    between atoms: N_8  and  C_9
REMARK    7  A    between atoms: C_9  and  C_10
REMARK    8  A    between atoms: C_9  and  C_12
REMARK    9  A    between atoms: C_10  and  O_11
REMARK   10  A    between atoms: C_12  and  C_13
REMARK                            x       y       z     vdW  Elec       q    Type
REMARK                         _______ _______ _______ _____ _____    ______ ____
ROOT
ATOM      1  C   UNL     1       4.244   4.810  17.152  0.00  0.00    +0.000 C 
ENDROOT
BRANCH   1   2
ATOM      2  N   UNL     1       5.696   4.550  17.422  0.00  0.00    +0.000 NA
ATOM      3  H   UNL     1       5.879   4.705  18.422  0.00  0.00    +0.000 HD
BRANCH   2   4
ATOM      4  S   UNL     1       6.867   5.360  16.555  0.00  0.00    +0.000 S 
ATOM      5  O   UNL     1       6.177   6.216  15.621  0.00  0.00    +0.000 OA
ATOM      6  O   UNL     1       7.843   4.396  16.096  0.00  0.00    +0.000 OA
BRANCH   4   7
ATOM      7  N   UNL     1       7.593   6.349  17.726  0.00  0.00    +0.000 NA
ATOM      8  C   UNL     1       7.472   5.881  19.128  0.00  0.00    +0.000 C 
BRANCH   7  10
ATOM      9  C   UNL     1       8.305   8.726  18.028  0.00  0.00    +0.000 C 
ATOM     10  C   UNL     1       7.199   7.784  17.573  0.00  0.00    +0.000 C 
ENDBRANCH   7  10
ENDBRANCH   4   7
ENDBRANCH   2   4
ENDBRANCH   1   2
BRANCH   1  11
ATOM     11  C   UNL     1       3.820   5.921  18.144  0.00  0.00    +0.000 C 
BRANCH  11  12
ATOM     12  O   UNL     1       3.788   7.185  17.471  0.00  0.00    +0.000 OA
ATOM     13  H   UNL     1       2.999   7.183  16.900  0.00  0.00    +0.000 HD
ENDBRANCH  11  12
ENDBRANCH   1  11
BRANCH   1  14
ATOM     14  C   UNL     1       3.416   3.538  17.362  0.00  0.00    +0.000 C 
BRANCH  14  15
ATOM     15  C   UNL     1       2.757   3.403  18.708  0.00  0.00    +0.000 A 
ATOM     16  C   UNL     1       3.447   2.842  19.793  0.00  0.00    +0.000 A 
ATOM     17  C   UNL     1       2.824   2.740  21.036  0.00  0.00    +0.000 A 
ATOM     18  C   UNL     1       1.516   3.194  21.205  0.00  0.00    +0.000 A 
ATOM     19  C   UNL     1       0.829   3.759  20.134  0.00  0.00    +0.000 A 
ATOM     20  C   UNL     1       1.448   3.863  18.890  0.00  0.00    +0.000 A 
ENDBRANCH  14  15
ENDBRANCH   1  14
TORSDOF 8
ENDMDL
MODEL 3
REMARK VINA RESULT:      -6.5      0.648      1.146
REMARK  Name = 
REMARK  10 active torsions:
REMARK  status: ('A' for Active; 'I' for Inactive)
REMARK    1  A    between atoms: C_1  and  C_2
REMARK    2  A    between atoms: C_2  and  N_3
REMARK    3  A    between atoms: N_3  and  C_4
REMARK    4  A    between atoms: N_3  and  S_5
REMARK    5  A    between atoms: S_5  and  N_8
REMARK    6  A    between atoms: N_8  and  C_9
REMARK    7  A    between atoms: C_9  and  C_10
REMARK    8  A    between atoms: C_9  and  C_12
REMARK    9  A    between atoms: C_10  and  O_11
REMARK   10  A    between atoms: C_12  and  C_13
REMARK                            x       y       z     vdW  Elec       q    Type
REMARK                         _______ _______ _______ _____ _____    ______ ____
ROOT
ATOM      1  C   UNL     1       4.995   5.847  18.078  0.00  0.00    +0.000 C 
ENDROOT
BRANCH   1   2
ATOM      2  N   UNL     1       5.425   5.060  16.876  0.00  0.00    +0.000 NA
ATOM      3  H   UNL     1       5.398   4.059  17.110  0.00  0.00    +0.000 HD
BRANCH   2   4
ATOM      4  S   UNL     1       6.891   5.376  16.150  0.00  0.00    +0.000 S 
ATOM      5  O   UNL     1       7.796   4.332  16.564  0.00  0.00    +0.000 OA
ATOM      6  O   UNL     1       7.217   6.769  16.366  0.00  0.00    +0.000 OA
BRANCH   4   7
ATOM      7  N   UNL     1       6.558   5.149  14.503  0.00  0.00    +0.000 NA
ATOM      8  C   UNL     1       5.818   3.910  14.161  0.00  0.00    +0.000 C 
BRANCH   7  10
ATOM      9  C   UNL     1       7.524   4.917  12.208  0.00  0.00    +0.000 C 
ATOM     10  C   UNL     1       7.774   5.333  13.651  0.00  0.00    +0.000 C 
ENDBRANCH   7  10
ENDBRANCH   4   7
ENDBRANCH   2   4
ENDBRANCH   1   2
BRANCH   1  11
ATOM     11  C   UNL     1       5.317   4.959  19.305  0.00  0.00    +0.000 C 
BRANCH  11  12
ATOM     12  O   UNL     1       5.783   3.677  18.867  0.00  0.00    +0.000 OA
ATOM     13  H   UNL     1       6.756   3.720  18.847  0.00  0.00    +0.000 HD
ENDBRANCH  11  12
ENDBRANCH   1  11
BRANCH   1  14
ATOM     14  C   UNL     1       3.499   6.170  18.009  0.00  0.00    +0.000 C 
BRANCH  14  15
ATOM     15  C   UNL     1       2.581   5.147  18.623  0.00  0.00    +0.000 A 
ATOM     16  C   UNL     1       2.114   5.297  19.937  0.00  0.00    +0.000 A 
ATOM     17  C   UNL     1       1.253   4.345  20.482  0.00  0.00    +0.000 A 
ATOM     18  C   UNL     1       0.853   3.245  19.724  0.00  0.00    +0.000 A 
ATOM     19  C   UNL     1       1.307   3.095  18.416  0.00  0.00    +0.000 A 
ATOM     20  C   UNL     1       2.168   4.043  17.868  0.00  0.00    +0.000 A 
ENDBRANCH  14  15
ENDBRANCH   1  14
TORSDOF 8
ENDMDL
MODEL 4
REMARK VINA RESULT:      -6.5      1.879      2.794
REMARK  Name = 
REMARK  10 active torsions:
REMARK  status: ('A' for Active; 'I' for Inactive)
REMARK    1  A    between atoms: C_1  and  C_2
REMARK    2  A    between atoms: C_2  and  N_3
REMARK    3  A    between atoms: N_3  and  C_4
REMARK    4  A    between atoms: N_3  and  S_5
REMARK    5  A    between atoms: S_5  and  N_8
REMARK    6  A    between atoms: N_8  and  C_9
REMARK    7  A    between atoms: C_9  and  C_10
REMARK    8  A    between atoms: C_9  and  C_12
REMARK    9  A    between atoms: C_10  and  O_11
REMARK   10  A    between atoms: C_12  and  C_13
REMARK                            x       y       z     vdW  Elec       q    Type
REMARK                         _______ _______ _______ _____ _____    ______ ____
ROOT
ATOM      1  C   UNL     1       4.444   3.921  19.140  0.00  0.00    +0.000 C 
ENDROOT
BRANCH   1   2
ATOM      2  N   UNL     1       5.608   3.632  18.240  0.00  0.00    +0.000 NA
ATOM      3  H   UNL     1       6.141   2.844  18.633  0.00  0.00    +0.000 HD
BRANCH   2   4
ATOM      4  S   UNL     1       6.689   4.840  17.856  0.00  0.00    +0.000 S 
ATOM      5  O   UNL     1       8.011   4.285  18.019  0.00  0.00    +0.000 OA
ATOM      6  O   UNL     1       6.298   6.044  18.558  0.00  0.00    +0.000 OA
BRANCH   4   7
ATOM      7  N   UNL     1       6.427   5.074  16.196  0.00  0.00    +0.000 NA
ATOM      8  C   UNL     1       5.447   6.128  15.841  0.00  0.00    +0.000 C 
BRANCH   7  10
ATOM      9  C   UNL     1       6.145   3.968  13.972  0.00  0.00    +0.000 C 
ATOM     10  C   UNL     1       6.155   3.787  15.483  0.00  0.00    +0.000 C 
ENDBRANCH   7  10
ENDBRANCH   4   7
ENDBRANCH   2   4
ENDBRANCH   1   2
BRANCH   1  11
ATOM     11  C   UNL     1       4.046   2.563  19.769  0.00  0.00    +0.000 C 
BRANCH  11  12
ATOM     12  O   UNL     1       5.223   1.849  20.166  0.00  0.00    +0.000 OA
ATOM     13  H   UNL     1       4.949   0.934  20.357  0.00  0.00    +0.000 HD
ENDBRANCH  11  12
ENDBRANCH   1  11
BRANCH   1  14
ATOM     14  C   UNL     1       3.280   4.523  18.346  0.00  0.00    +0.000 C 
BRANCH  14  15
ATOM     15  C   UNL     1       2.725   5.816  18.880  0.00  0.00    +0.000 A 
ATOM     16  C   UNL     1       2.751   6.984  18.104  0.00  0.00    +0.000 A 
ATOM     17  C   UNL     1       2.219   8.168  18.613  0.00  0.00    +0.000 A 
ATOM     18  C   UNL     1       1.659   8.195  19.890  0.00  0.00    +0.000 A 
ATOM     19  C   UNL     1       1.624   7.037  20.662  0.00  0.00    +0.000 A 
ATOM     20  C   UNL     1       2.156   5.852  20.158  0.00  0.00    +0.000 A 
ENDBRANCH  14  15
ENDBRANCH   1  14
TORSDOF 8
ENDMDL
MODEL 5
REMARK VINA RESULT:      -6.5      0.869      1.528
REMARK  Name = 
REMARK  10 active torsions:
REMARK  status: ('A' for Active; 'I' for Inactive)
REMARK    1  A    between atoms: C_1  and  C_2
REMARK    2  A    between atoms: C_2  and  N_3
REMARK    3  A    between atoms: N_3  and  C_4
REMARK    4  A    between atoms: N_3  and  S_5
REMARK    5  A    between atoms: S_5  and  N_8
REMARK    6  A    between atoms: N_8  and  C_9
REMARK    7  A    between atoms: C_9  and  C_10
REMARK    8  A    between atoms: C_9  and  C_12
REMARK    9  A    between atoms: C_10  and  O_11
REMARK   10  A    between atoms: C_12  and  C_13
REMARK                            x       y       z     vdW  Elec       q    Type
REMARK                         _______ _______ _______ _____ _____    ______ ____
ROOT
ATOM      1  C   UNL     1       4.858   5.614  18.115  0.00  0.00    +0.000 C 
ENDROOT
BRANCH   1   2
ATOM      2  N   UNL     1       5.420   4.946  16.896  0.00  0.00    +0.000 NA
ATOM      3  H   UNL     1       6.030   4.174  17.195  0.00  0.00    +0.000 HD
BRANCH   2   4
ATOM      4  S   UNL     1       6.244   5.840  15.757  0.00  0.00    +0.000 S 
ATOM      5  O   UNL     1       7.442   6.329  16.396  0.00  0.00    +0.000 OA
ATOM      6  O   UNL     1       5.312   6.752  15.130  0.00  0.00    +0.000 OA
BRANCH   4   7
ATOM      7  N   UNL     1       6.706   4.672  14.617  0.00  0.00    +0.000 NA
ATOM      8  C   UNL     1       7.664   5.127  13.581  0.00  0.00    +0.000 C 
BRANCH   7  10
ATOM      9  C   UNL     1       5.817   3.462  12.618  0.00  0.00    +0.000 C 
ATOM     10  C   UNL     1       5.528   3.965  14.026  0.00  0.00    +0.000 C 
ENDBRANCH   7  10
ENDBRANCH   4   7
ENDBRANCH   2   4
ENDBRANCH   1   2
BRANCH   1  11
ATOM     11  C   UNL     1       5.116   4.640  19.290  0.00  0.00    +0.000 C 
BRANCH  11  12
ATOM     12  O   UNL     1       5.570   3.379  18.784  0.00  0.00    +0.000 OA
ATOM     13  H   UNL     1       6.495   3.501  18.505  0.00  0.00    +0.000 HD
ENDBRANCH  11  12
ENDBRANCH   1  11
BRANCH   1  14
ATOM     14  C   UNL     1       3.360   5.886  17.944  0.00  0.00    +0.000 C 
BRANCH  14  15
ATOM     15  C   UNL     1       2.437   4.890  18.593  0.00  0.00    +0.000 A 
ATOM     16  C   UNL     1       2.036   3.731  17.911  0.00  0.00    +0.000 A 
ATOM     17  C   UNL     1       1.193   2.814  18.536  0.00  0.00    +0.000 A 
ATOM     18  C   UNL     1       0.747   3.042  19.837  0.00  0.00    +0.000 A 
ATOM     19  C   UNL     1       1.148   4.187  20.522  0.00  0.00    +0.000 A 
ATOM     20  C   UNL     1       1.990   5.107  19.901  0.00  0.00    +0.000 A 
ENDBRANCH  14  15
ENDBRANCH   1  14
TORSDOF 8
ENDMDL
MODEL 6
REMARK VINA RESULT:      -6.4      0.977      1.488
REMARK  Name = 
REMARK  10 active torsions:
REMARK  status: ('A' for Active; 'I' for Inactive)
REMARK    1  A    between atoms: C_1  and  C_2
REMARK    2  A    between atoms: C_2  and  N_3
REMARK    3  A    between atoms: N_3  and  C_4
REMARK    4  A    between atoms: N_3  and  S_5
REMARK    5  A    between atoms: S_5  and  N_8
REMARK    6  A    between atoms: N_8  and  C_9
REMARK    7  A    between atoms: C_9  and  C_10
REMARK    8  A    between atoms: C_9  and  C_12
REMARK    9  A    between atoms: C_10  and  O_11
REMARK   10  A    between atoms: C_12  and  C_13
REMARK                            x       y       z     vdW  Elec       q    Type
REMARK                         _______ _______ _______ _____ _____    ______ ____
ROOT
ATOM      1  C   UNL     1       4.639   4.459  17.439  0.00  0.00    +0.000 C 
ENDROOT
BRANCH   1   2
ATOM      2  N   UNL     1       5.563   3.927  16.385  0.00  0.00    +0.000 NA
ATOM      3  H   UNL     1       5.959   3.036  16.713  0.00  0.00    +0.000 HD
BRANCH   2   4
ATOM      4  S   UNL     1       6.817   4.867  15.819  0.00  0.00    +0.000 S 
ATOM      5  O   UNL     1       7.995   4.481  16.557  0.00  0.00    +0.000 OA
ATOM      6  O   UNL     1       6.378   6.246  15.791  0.00  0.00    +0.000 OA
BRANCH   4   7
ATOM      7  N   UNL     1       7.007   4.328  14.222  0.00  0.00    +0.000 NA
ATOM      8  C   UNL     1       7.751   5.239  13.319  0.00  0.00    +0.000 C 
BRANCH   7  10
ATOM      9  C   UNL     1       5.913   3.262  12.243  0.00  0.00    +0.000 C 
ATOM     10  C   UNL     1       5.714   3.872  13.624  0.00  0.00    +0.000 C 
ENDBRANCH   7  10
ENDBRANCH   4   7
ENDBRANCH   2   4
ENDBRANCH   1   2
BRANCH   1  11
ATOM     11  C   UNL     1       5.307   4.130  18.796  0.00  0.00    +0.000 C 
BRANCH  11  12
ATOM     12  O   UNL     1       6.148   5.217  19.199  0.00  0.00    +0.000 OA
ATOM     13  H   UNL     1       6.048   5.917  18.529  0.00  0.00    +0.000 HD
ENDBRANCH  11  12
ENDBRANCH   1  11
BRANCH   1  14
ATOM     14  C   UNL     1       3.258   3.804  17.331  0.00  0.00    +0.000 C 
BRANCH  14  15
ATOM     15  C   UNL     1       2.502   3.658  18.624  0.00  0.00    +0.000 A 
ATOM     16  C   UNL     1       2.301   2.395  19.201  0.00  0.00    +0.000 A 
ATOM     17  C   UNL     1       1.611   2.284  20.407  0.00  0.00    +0.000 A 
ATOM     18  C   UNL     1       1.121   3.423  21.044  0.00  0.00    +0.000 A 
ATOM     19  C   UNL     1       1.324   4.680  20.481  0.00  0.00    +0.000 A 
ATOM     20  C   UNL     1       2.012   4.797  19.275  0.00  0.00    +0.000 A 
ENDBRANCH  14  15
ENDBRANCH   1  14
TORSDOF 8
ENDMDL
MODEL 7
REMARK VINA RESULT:      -6.4      2.330      3.415
REMARK  Name = 
REMARK  10 active torsions:
REMARK  status: ('A' for Active; 'I' for Inactive)
REMARK    1  A    between atoms: C_1  and  C_2
REMARK    2  A    between atoms: C_2  and  N_3
REMARK    3  A    between atoms: N_3  and  C_4
REMARK    4  A    between atoms: N_3  and  S_5
REMARK    5  A    between atoms: S_5  and  N_8
REMARK    6  A    between atoms: N_8  and  C_9
REMARK    7  A    between atoms: C_9  and  C_10
REMARK    8  A    between atoms: C_9  and  C_12
REMARK    9  A    between atoms: C_10  and  O_11
REMARK   10  A    between atoms: C_12  and  C_13
REMARK                            x       y       z     vdW  Elec       q    Type
REMARK                         _______ _______ _______ _____ _____    ______ ____
ROOT
ATOM      1  C   UNL     1       4.332   4.382  17.083  0.00  0.00    +0.000 C 
ENDROOT
BRANCH   1   2
ATOM      2  N   UNL     1       5.699   4.714  17.600  0.00  0.00    +0.000 NA
ATOM      3  H   UNL     1       5.602   5.331  18.418  0.00  0.00    +0.000 HD
BRANCH   2   4
ATOM      4  S   UNL     1       6.838   5.386  16.585  0.00  0.00    +0.000 S 
ATOM      5  O   UNL     1       6.122   6.211  15.643  0.00  0.00    +0.000 OA
ATOM      6  O   UNL     1       7.720   4.333  16.129  0.00  0.00    +0.000 OA
BRANCH   4   7
ATOM      7  N   UNL     1       7.709   6.413  17.615  0.00  0.00    +0.000 NA
ATOM      8  C   UNL     1       7.757   6.006  19.040  0.00  0.00    +0.000 C 
BRANCH   7  10
ATOM      9  C   UNL     1       8.331   8.792  18.069  0.00  0.00    +0.000 C 
ATOM     10  C   UNL     1       7.312   7.846  17.449  0.00  0.00    +0.000 C 
ENDBRANCH   7  10
ENDBRANCH   4   7
ENDBRANCH   2   4
ENDBRANCH   1   2
BRANCH   1  11
ATOM     11  C   UNL     1       3.388   5.472  17.647  0.00  0.00    +0.000 C 
BRANCH  11  12
ATOM     12  O   UNL     1       4.160   6.565  18.159  0.00  0.00    +0.000 OA
ATOM     13  H   UNL     1       3.724   7.384  17.862  0.00  0.00    +0.000 HD
ENDBRANCH  11  12
ENDBRANCH   1  11
BRANCH   1  14
ATOM     14  C   UNL     1       3.901   2.986  17.546  0.00  0.00    +0.000 C 
BRANCH  14  15
ATOM     15  C   UNL     1       2.981   2.948  18.736  0.00  0.00    +0.000 A 
ATOM     16  C   UNL     1       1.588   2.930  18.568  0.00  0.00    +0.000 A 
ATOM     17  C   UNL     1       0.754   2.879  19.684  0.00  0.00    +0.000 A 
ATOM     18  C   UNL     1       1.299   2.845  20.967  0.00  0.00    +0.000 A 
ATOM     19  C   UNL     1       2.681   2.856  21.140  0.00  0.00    +0.000 A 
ATOM     20  C   UNL     1       3.519   2.907  20.028  0.00  0.00    +0.000 A 
ENDBRANCH  14  15
ENDBRANCH   1  14
TORSDOF 8
ENDMDL
MODEL 8
REMARK VINA RESULT:      -6.4      1.398      1.646
REMARK  Name = 
REMARK  10 active torsions:
REMARK  status: ('A' for Active; 'I' for Inactive)
REMARK    1  A    between atoms: C_1  and  C_2
REMARK    2  A    between atoms: C_2  and  N_3
REMARK    3  A    between atoms: N_3  and  C_4
REMARK    4  A    between atoms: N_3  and  S_5
REMARK    5  A    between atoms: S_5  and  N_8
REMARK    6  A    between atoms: N_8  and  C_9
REMARK    7  A    between atoms: C_9  and  C_10
REMARK    8  A    between atoms: C_9  and  C_12
REMARK    9  A    between atoms: C_10  and  O_11
REMARK   10  A    between atoms: C_12  and  C_13
REMARK                            x       y       z     vdW  Elec       q    Type
REMARK                         _______ _______ _______ _____ _____    ______ ____
ROOT
ATOM      1  C   UNL     1       4.103   6.124  18.513  0.00  0.00    +0.000 C 
ENDROOT
BRANCH   1   2
ATOM      2  N   UNL     1       4.261   5.777  17.063  0.00  0.00    +0.000 NA
ATOM      3  H   UNL     1       4.215   4.754  16.961  0.00  0.00    +0.000 HD
BRANCH   2   4
ATOM      4  S   UNL     1       5.588   6.317  16.211  0.00  0.00    +0.000 S 
ATOM      5  O   UNL     1       6.416   7.041  17.145  0.00  0.00    +0.000 OA
ATOM      6  O   UNL     1       5.124   6.941  14.991  0.00  0.00    +0.000 OA
BRANCH   4   7
ATOM      7  N   UNL     1       6.395   4.880  15.810  0.00  0.00    +0.000 NA
ATOM      8  C   UNL     1       7.475   4.468  16.739  0.00  0.00    +0.000 C 
BRANCH   7  10
ATOM      9  C   UNL     1       6.110   3.801  13.573  0.00  0.00    +0.000 C 
ATOM     10  C   UNL     1       6.840   4.865  14.382  0.00  0.00    +0.000 C 
ENDBRANCH   7  10
ENDBRANCH   4   7
ENDBRANCH   2   4
ENDBRANCH   1   2
BRANCH   1  11
ATOM     11  C   UNL     1       4.846   5.017  19.298  0.00  0.00    +0.000 C 
BRANCH  11  12
ATOM     12  O   UNL     1       6.130   5.496  19.715  0.00  0.00    +0.000 OA
ATOM     13  H   UNL     1       6.475   4.857  20.365  0.00  0.00    +0.000 HD
ENDBRANCH  11  12
ENDBRANCH   1  11
BRANCH   1  14
ATOM     14  C   UNL     1       2.621   6.176  18.901  0.00  0.00    +0.000 C 
BRANCH  14  15
ATOM     15  C   UNL     1       2.002   4.860  19.288  0.00  0.00    +0.000 A 
ATOM     16  C   UNL     1       1.844   4.510  20.637  0.00  0.00    +0.000 A 
ATOM     17  C   UNL     1       1.254   3.292  20.974  0.00  0.00    +0.000 A 
ATOM     18  C   UNL     1       0.819   2.422  19.975  0.00  0.00    +0.000 A 
ATOM     19  C   UNL     1       0.966   2.768  18.635  0.00  0.00    +0.000 A 
ATOM     20  C   UNL     1       1.556   3.983  18.293  0.00  0.00    +0.000 A 
ENDBRANCH  14  15
ENDBRANCH   1  14
TORSDOF 8
ENDMDL
MODEL 9
REMARK VINA RESULT:      -6.3      2.317      2.971
REMARK  Name = 
REMARK  10 active torsions:
REMARK  status: ('A' for Active; 'I' for Inactive)
REMARK    1  A    between atoms: C_1  and  C_2
REMARK    2  A    between atoms: C_2  and  N_3
REMARK    3  A    between atoms: N_3  and  C_4
REMARK    4  A    between atoms: N_3  and  S_5
REMARK    5  A    between atoms: S_5  and  N_8
REMARK    6  A    between atoms: N_8  and  C_9
REMARK    7  A    between atoms: C_9  and  C_10
REMARK    8  A    between atoms: C_9  and  C_12
REMARK    9  A    between atoms: C_10  and  O_11
REMARK   10  A    between atoms: C_12  and  C_13
REMARK                            x       y       z     vdW  Elec       q    Type
REMARK                         _______ _______ _______ _____ _____    ______ ____
ROOT
ATOM      1  C   UNL     1       3.185   6.355  18.169  0.00  0.00    +0.000 C 
ENDROOT
BRANCH   1   2
ATOM      2  N   UNL     1       4.620   5.922  18.216  0.00  0.00    +0.000 NA
ATOM      3  H   UNL     1       5.165   6.514  17.575  0.00  0.00    +0.000 HD
BRANCH   2   4
ATOM      4  S   UNL     1       5.026   4.334  17.916  0.00  0.00    +0.000 S 
ATOM      5  O   UNL     1       4.013   3.802  17.038  0.00  0.00    +0.000 OA
ATOM      6  O   UNL     1       5.325   3.693  19.178  0.00  0.00    +0.000 OA
BRANCH   4   7
ATOM      7  N   UNL     1       6.463   4.469  17.026  0.00  0.00    +0.000 NA
ATOM      8  C   UNL     1       7.692   4.712  17.819  0.00  0.00    +0.000 C 
BRANCH   7  10
ATOM      9  C   UNL     1       6.423   4.719  14.538  0.00  0.00    +0.000 C 
ATOM     10  C   UNL     1       6.330   5.426  15.884  0.00  0.00    +0.000 C 
ENDBRANCH   7  10
ENDBRANCH   4   7
ENDBRANCH   2   4
ENDBRANCH   1   2
BRANCH   1  11
ATOM     11  C   UNL     1       3.195   7.798  17.610  0.00  0.00    +0.000 C 
BRANCH  11  12
ATOM     12  O   UNL     1       1.874   8.350  17.669  0.00  0.00    +0.000 OA
ATOM     13  H   UNL     1       1.602   8.336  18.604  0.00  0.00    +0.000 HD
ENDBRANCH  11  12
ENDBRANCH   1  11
BRANCH   1  14
ATOM     14  C   UNL     1       2.557   6.308  19.566  0.00  0.00    +0.000 C 
BRANCH  14  15
ATOM     15  C   UNL     1       2.109   4.950  20.035  0.00  0.00    +0.000 A 
ATOM     16  C   UNL     1       2.429   4.493  21.322  0.00  0.00    +0.000 A 
ATOM     17  C   UNL     1       1.992   3.237  21.742  0.00  0.00    +0.000 A 
ATOM     18  C   UNL     1       1.235   2.435  20.888  0.00  0.00    +0.000 A 
ATOM     19  C   UNL     1       0.908   2.887  19.612  0.00  0.00    +0.000 A 
ATOM     20  C   UNL     1       1.344   4.141  19.188  0.00  0.00    +0.000 A 
ENDBRANCH  14  15
ENDBRANCH   1  14
TORSDOF 8
ENDMDL
