MODEL 1
REMARK VINA RESULT:      -6.8      0.000      0.000
REMARK  Name = 
REMARK  3 active torsions:
REMARK  status: ('A' for Active; 'I' for Inactive)
REMARK    1  A    between atoms: C_1  and  C_2
REMARK    2  A    between atoms: C_5  and  N_6
REMARK    3  A    between atoms: C_7  and  C_9
REMARK                            x       y       z     vdW  Elec       q    Type
REMARK                         _______ _______ _______ _____ _____    ______ ____
ROOT
ATOM      1  N   UNL     1       1.900   8.519  17.686  0.00  0.00    +0.000 N 
ATOM      2  C   UNL     1       2.416   7.582  18.571  0.00  0.00    +0.000 C 
ATOM      3  O   UNL     1       2.228   7.642  19.786  0.00  0.00    +0.000 OA
ATOM      4  H   UNL     1       1.960   8.290  16.702  0.00  0.00    +0.000 HD
ENDROOT
BRANCH   2   5
ATOM      5  C   UNL     1       3.195   6.483  17.996  0.00  0.00    +0.000 A 
ATOM      6  S   UNL     1       4.703   6.725  17.229  0.00  0.00    +0.000 S 
ATOM      7  C   UNL     1       4.896   5.053  16.938  0.00  0.00    +0.000 A 
ATOM      8  C   UNL     1       3.831   4.306  17.405  0.00  0.00    +0.000 A 
ATOM      9  C   UNL     1       2.839   5.135  18.003  0.00  0.00    +0.000 A 
ATOM     10  C   UNL     1       1.583   4.594  18.600  0.00  0.00    +0.000 C 
ATOM     11  C   UNL     1       1.346   3.097  18.456  0.00  0.00    +0.000 C 
ATOM     12  C   UNL     1       2.427   2.210  17.836  0.00  0.00    +0.000 C 
ATOM     13  C   UNL     1       3.728   2.823  17.323  0.00  0.00    +0.000 C 
ENDBRANCH   2   5
BRANCH   1  18
ATOM     14  C   UNL     1      -1.033  13.189  19.257  0.00  0.00    +0.000 C 
ATOM     15  C   UNL     1      -0.260  11.981  18.824  0.00  0.00    +0.000 A 
ATOM     16  C   UNL     1       1.134  12.003  18.818  0.00  0.00    +0.000 A 
ATOM     17  C   UNL     1       1.856  10.872  18.433  0.00  0.00    +0.000 A 
ATOM     18  C   UNL     1       1.207   9.694  18.052  0.00  0.00    +0.000 A 
ATOM     19  C   UNL     1      -0.191   9.683  18.021  0.00  0.00    +0.000 A 
ATOM     20  C   UNL     1      -0.917  10.815  18.416  0.00  0.00    +0.000 A 
ENDBRANCH   1  18
TORSDOF 2
ENDMDL
MODEL 2
REMARK VINA RESULT:      -6.8      0.136      1.108
REMARK  Name = 
REMARK  3 active torsions:
REMARK  status: ('A' for Active; 'I' for Inactive)
REMARK    1  A    between atoms: C_1  and  C_2
REMARK    2  A    between atoms: C_5  and  N_6
REMARK    3  A    between atoms: C_7  and  C_9
REMARK                            x       y       z     vdW  Elec       q    Type
REMARK                         _______ _______ _______ _____ _____    ______ ____
ROOT
ATOM      1  N   UNL     1       1.876   8.506  17.695  0.00  0.00    +0.000 N 
ATOM      2  C   UNL     1       2.409   7.577  18.579  0.00  0.00    +0.000 C 
ATOM      3  O   UNL     1       2.250   7.653  19.797  0.00  0.00    +0.000 OA
ATOM      4  H   UNL     1       1.912   8.265  16.713  0.00  0.00    +0.000 HD
ENDROOT
BRANCH   2   5
ATOM      5  C   UNL     1       3.170   6.468  17.998  0.00  0.00    +0.000 A 
ATOM      6  S   UNL     1       4.659   6.696  17.188  0.00  0.00    +0.000 S 
ATOM      7  C   UNL     1       4.840   5.020  16.916  0.00  0.00    +0.000 A 
ATOM      8  C   UNL     1       3.786   4.283  17.420  0.00  0.00    +0.000 A 
ATOM      9  C   UNL     1       2.812   5.122  18.033  0.00  0.00    +0.000 A 
ATOM     10  C   UNL     1       1.571   4.592  18.670  0.00  0.00    +0.000 C 
ATOM     11  C   UNL     1       1.327   3.094  18.552  0.00  0.00    +0.000 C 
ATOM     12  C   UNL     1       2.388   2.196  17.916  0.00  0.00    +0.000 C 
ATOM     13  C   UNL     1       3.678   2.798  17.361  0.00  0.00    +0.000 C 
ENDBRANCH   2   5
BRANCH   1  18
ATOM     14  C   UNL     1      -0.771  13.396  19.094  0.00  0.00    +0.000 C 
ATOM     15  C   UNL     1      -0.086  12.109  18.752  0.00  0.00    +0.000 A 
ATOM     16  C   UNL     1      -0.834  10.962  18.488  0.00  0.00    +0.000 A 
ATOM     17  C   UNL     1      -0.198   9.767  18.150  0.00  0.00    +0.000 A 
ATOM     18  C   UNL     1       1.196   9.687  18.063  0.00  0.00    +0.000 A 
ATOM     19  C   UNL     1       1.948  10.826  18.365  0.00  0.00    +0.000 A 
ATOM     20  C   UNL     1       1.311  12.030  18.696  0.00  0.00    +0.000 A 
ENDBRANCH   1  18
TORSDOF 2
ENDMDL
MODEL 3
REMARK VINA RESULT:      -6.8      2.123      2.206
REMARK  Name = 
REMARK  3 active torsions:
REMARK  status: ('A' for Active; 'I' for Inactive)
REMARK    1  A    between atoms: C_1  and  C_2
REMARK    2  A    between atoms: C_5  and  N_6
REMARK    3  A    between atoms: C_7  and  C_9
REMARK                            x       y       z     vdW  Elec       q    Type
REMARK                         _______ _______ _______ _____ _____    ______ ____
ROOT
ATOM      1  N   UNL     1       2.148   7.721  19.824  0.00  0.00    +0.000 N 
ATOM      2  C   UNL     1       2.281   7.612  18.446  0.00  0.00    +0.000 C 
ATOM      3  O   UNL     1       1.738   8.391  17.663  0.00  0.00    +0.000 OA
ATOM      4  H   UNL     1       2.766   7.149  20.383  0.00  0.00    +0.000 HD
ENDROOT
BRANCH   2   5
ATOM      5  C   UNL     1       3.125   6.525  17.945  0.00  0.00    +0.000 A 
ATOM      6  S   UNL     1       4.666   6.796  17.256  0.00  0.00    +0.000 S 
ATOM      7  C   UNL     1       4.926   5.124  17.023  0.00  0.00    +0.000 A 
ATOM      8  C   UNL     1       3.861   4.356  17.450  0.00  0.00    +0.000 A 
ATOM      9  C   UNL     1       2.812   5.166  17.970  0.00  0.00    +0.000 A 
ATOM     10  C   UNL     1       1.541   4.601  18.512  0.00  0.00    +0.000 C 
ATOM     11  C   UNL     1       1.360   3.094  18.396  0.00  0.00    +0.000 C 
ATOM     12  C   UNL     1       2.501   2.226  17.862  0.00  0.00    +0.000 C 
ATOM     13  C   UNL     1       3.809   2.868  17.404  0.00  0.00    +0.000 C 
ENDBRANCH   2   5
BRANCH   1  18
ATOM     14  C   UNL     1      -1.165  11.423  22.689  0.00  0.00    +0.000 C 
ATOM     15  C   UNL     1      -0.320  10.449  21.925  0.00  0.00    +0.000 A 
ATOM     16  C   UNL     1       0.052  10.721  20.610  0.00  0.00    +0.000 A 
ATOM     17  C   UNL     1       0.854   9.824  19.904  0.00  0.00    +0.000 A 
ATOM     18  C   UNL     1       1.309   8.640  20.493  0.00  0.00    +0.000 A 
ATOM     19  C   UNL     1       0.905   8.348  21.800  0.00  0.00    +0.000 A 
ATOM     20  C   UNL     1       0.106   9.253  22.513  0.00  0.00    +0.000 A 
ENDBRANCH   1  18
TORSDOF 2
ENDMDL
MODEL 4
REMARK VINA RESULT:      -6.6      2.135      2.291
REMARK  Name = 
REMARK  3 active torsions:
REMARK  status: ('A' for Active; 'I' for Inactive)
REMARK    1  A    between atoms: C_1  and  C_2
REMARK    2  A    between atoms: C_5  and  N_6
REMARK    3  A    between atoms: C_7  and  C_9
REMARK                            x       y       z     vdW  Elec       q    Type
REMARK                         _______ _______ _______ _____ _____    ______ ____
ROOT
ATOM      1  N   UNL     1       2.163   7.687  19.925  0.00  0.00    +0.000 N 
ATOM      2  C   UNL     1       2.255   7.579  18.544  0.00  0.00    +0.000 C 
ATOM      3  O   UNL     1       1.675   8.348  17.778  0.00  0.00    +0.000 OA
ATOM      4  H   UNL     1       2.808   7.124  20.465  0.00  0.00    +0.000 HD
ENDROOT
BRANCH   2   5
ATOM      5  C   UNL     1       3.099   6.504  18.017  0.00  0.00    +0.000 A 
ATOM      6  S   UNL     1       4.631   6.795  17.315  0.00  0.00    +0.000 S 
ATOM      7  C   UNL     1       4.898   5.128  17.054  0.00  0.00    +0.000 A 
ATOM      8  C   UNL     1       3.842   4.347  17.481  0.00  0.00    +0.000 A 
ATOM      9  C   UNL     1       2.794   5.144  18.025  0.00  0.00    +0.000 A 
ATOM     10  C   UNL     1       1.533   4.562  18.571  0.00  0.00    +0.000 C 
ATOM     11  C   UNL     1       1.358   3.056  18.434  0.00  0.00    +0.000 C 
ATOM     12  C   UNL     1       2.498   2.203  17.874  0.00  0.00    +0.000 C 
ATOM     13  C   UNL     1       3.798   2.860  17.413  0.00  0.00    +0.000 C 
ENDBRANCH   2   5
BRANCH   1  18
ATOM     14  C   UNL     1      -1.285  11.413  22.593  0.00  0.00    +0.000 C 
ATOM     15  C   UNL     1      -0.365  10.444  21.914  0.00  0.00    +0.000 A 
ATOM     16  C   UNL     1      -0.106   9.200  22.488  0.00  0.00    +0.000 A 
ATOM     17  C   UNL     1       0.735   8.289  21.848  0.00  0.00    +0.000 A 
ATOM     18  C   UNL     1       1.331   8.593  20.620  0.00  0.00    +0.000 A 
ATOM     19  C   UNL     1       1.102   9.854  20.063  0.00  0.00    +0.000 A 
ATOM     20  C   UNL     1       0.251  10.767  20.700  0.00  0.00    +0.000 A 
ENDBRANCH   1  18
TORSDOF 2
ENDMDL
MODEL 5
REMARK VINA RESULT:      -6.6      1.318      2.491
REMARK  Name = 
REMARK  3 active torsions:
REMARK  status: ('A' for Active; 'I' for Inactive)
REMARK    1  A    between atoms: C_1  and  C_2
REMARK    2  A    between atoms: C_5  and  N_6
REMARK    3  A    between atoms: C_7  and  C_9
REMARK                            x       y       z     vdW  Elec       q    Type
REMARK                         _______ _______ _______ _____ _____    ______ ____
ROOT
ATOM      1  N   UNL     1       1.880   8.232  17.708  0.00  0.00    +0.000 N 
ATOM      2  C   UNL     1       2.352   7.292  18.614  0.00  0.00    +0.000 C 
ATOM      3  O   UNL     1       2.356   7.485  19.829  0.00  0.00    +0.000 OA
ATOM      4  H   UNL     1       1.755   7.916  16.755  0.00  0.00    +0.000 HD
ENDROOT
BRANCH   2   5
ATOM      5  C   UNL     1       2.838   6.025  18.063  0.00  0.00    +0.000 A 
ATOM      6  S   UNL     1       1.888   4.604  18.040  0.00  0.00    +0.000 S 
ATOM      7  C   UNL     1       3.115   3.720  17.247  0.00  0.00    +0.000 A 
ATOM      8  C   UNL     1       4.244   4.478  17.004  0.00  0.00    +0.000 A 
ATOM      9  C   UNL     1       4.090   5.808  17.489  0.00  0.00    +0.000 A 
ATOM     10  C   UNL     1       5.151   6.849  17.354  0.00  0.00    +0.000 C 
ATOM     11  C   UNL     1       6.475   6.401  16.751  0.00  0.00    +0.000 C 
ATOM     12  C   UNL     1       6.625   4.980  16.207  0.00  0.00    +0.000 C 
ATOM     13  C   UNL     1       5.464   3.991  16.302  0.00  0.00    +0.000 C 
ENDBRANCH   2   5
BRANCH   1  18
ATOM     14  C   UNL     1       0.059  13.476  19.148  0.00  0.00    +0.000 C 
ATOM     15  C   UNL     1       0.538  12.114  18.747  0.00  0.00    +0.000 A 
ATOM     16  C   UNL     1       1.886  11.897  18.467  0.00  0.00    +0.000 A 
ATOM     17  C   UNL     1       2.338  10.625  18.112  0.00  0.00    +0.000 A 
ATOM     18  C   UNL     1       1.458   9.540  18.033  0.00  0.00    +0.000 A 
ATOM     19  C   UNL     1       0.100   9.765  18.276  0.00  0.00    +0.000 A 
ATOM     20  C   UNL     1      -0.354  11.040  18.642  0.00  0.00    +0.000 A 
ENDBRANCH   1  18
TORSDOF 2
ENDMDL
MODEL 6
REMARK VINA RESULT:      -6.6      1.339      2.727
REMARK  Name = 
REMARK  3 active torsions:
REMARK  status: ('A' for Active; 'I' for Inactive)
REMARK    1  A    between atoms: C_1  and  C_2
REMARK    2  A    between atoms: C_5  and  N_6
REMARK    3  A    between atoms: C_7  and  C_9
REMARK                            x       y       z     vdW  Elec       q    Type
REMARK                         _______ _______ _______ _____ _____    ______ ____
ROOT
ATOM      1  N   UNL     1       1.853   8.214  17.728  0.00  0.00    +0.000 N 
ATOM      2  C   UNL     1       2.348   7.273  18.621  0.00  0.00    +0.000 C 
ATOM      3  O   UNL     1       2.365   7.457  19.838  0.00  0.00    +0.000 OA
ATOM      4  H   UNL     1       1.721   7.904  16.774  0.00  0.00    +0.000 HD
ENDROOT
BRANCH   2   5
ATOM      5  C   UNL     1       2.843   6.017  18.055  0.00  0.00    +0.000 A 
ATOM      6  S   UNL     1       1.897   4.594  17.999  0.00  0.00    +0.000 S 
ATOM      7  C   UNL     1       3.134   3.726  17.204  0.00  0.00    +0.000 A 
ATOM      8  C   UNL     1       4.263   4.491  16.984  0.00  0.00    +0.000 A 
ATOM      9  C   UNL     1       4.101   5.812  17.489  0.00  0.00    +0.000 A 
ATOM     10  C   UNL     1       5.160   6.858  17.382  0.00  0.00    +0.000 C 
ATOM     11  C   UNL     1       6.492   6.424  16.785  0.00  0.00    +0.000 C 
ATOM     12  C   UNL     1       6.651   5.012  16.220  0.00  0.00    +0.000 C 
ATOM     13  C   UNL     1       5.492   4.018  16.287  0.00  0.00    +0.000 C 
ENDBRANCH   2   5
BRANCH   1  18
ATOM     14  C   UNL     1       0.196  13.559  18.983  0.00  0.00    +0.000 C 
ATOM     15  C   UNL     1       0.626  12.156  18.680  0.00  0.00    +0.000 A 
ATOM     16  C   UNL     1      -0.301  11.115  18.703  0.00  0.00    +0.000 A 
ATOM     17  C   UNL     1       0.094   9.811  18.403  0.00  0.00    +0.000 A 
ATOM     18  C   UNL     1       1.419   9.515  18.068  0.00  0.00    +0.000 A 
ATOM     19  C   UNL     1       2.358  10.551  18.082  0.00  0.00    +0.000 A 
ATOM     20  C   UNL     1       1.961  11.863  18.374  0.00  0.00    +0.000 A 
ENDBRANCH   1  18
TORSDOF 2
ENDMDL
MODEL 7
REMARK VINA RESULT:      -6.6      2.639      2.685
REMARK  Name = 
REMARK  3 active torsions:
REMARK  status: ('A' for Active; 'I' for Inactive)
REMARK    1  A    between atoms: C_1  and  C_2
REMARK    2  A    between atoms: C_5  and  N_6
REMARK    3  A    between atoms: C_7  and  C_9
REMARK                            x       y       z     vdW  Elec       q    Type
REMARK                         _______ _______ _______ _____ _____    ______ ____
ROOT
ATOM      1  N   UNL     1       1.737   8.010  20.721  0.00  0.00    +0.000 N 
ATOM      2  C   UNL     1       1.984   7.788  19.372  0.00  0.00    +0.000 C 
ATOM      3  O   UNL     1       1.619   8.568  18.493  0.00  0.00    +0.000 OA
ATOM      4  H   UNL     1       2.223   7.408  21.373  0.00  0.00    +0.000 HD
ENDROOT
BRANCH   2   5
ATOM      5  C   UNL     1       2.726   6.574  19.024  0.00  0.00    +0.000 A 
ATOM      6  S   UNL     1       4.047   6.579  17.939  0.00  0.00    +0.000 S 
ATOM      7  C   UNL     1       4.309   4.905  18.149  0.00  0.00    +0.000 A 
ATOM      8  C   UNL     1       3.407   4.331  19.024  0.00  0.00    +0.000 A 
ATOM      9  C   UNL     1       2.481   5.294  19.519  0.00  0.00    +0.000 A 
ATOM     10  C   UNL     1       1.398   4.954  20.489  0.00  0.00    +0.000 C 
ATOM     11  C   UNL     1       1.253   3.486  20.865  0.00  0.00    +0.000 C 
ATOM     12  C   UNL     1       2.267   2.462  20.352  0.00  0.00    +0.000 C 
ATOM     13  C   UNL     1       3.403   2.898  19.428  0.00  0.00    +0.000 C 
ENDBRANCH   2   5
BRANCH   1  18
ATOM     14  C   UNL     1      -1.370  12.249  23.016  0.00  0.00    +0.000 C 
ATOM     15  C   UNL     1      -0.574  11.140  22.395  0.00  0.00    +0.000 A 
ATOM     16  C   UNL     1       0.223  11.386  21.279  0.00  0.00    +0.000 A 
ATOM     17  C   UNL     1       0.979  10.360  20.711  0.00  0.00    +0.000 A 
ATOM     18  C   UNL     1       0.963   9.068  21.246  0.00  0.00    +0.000 A 
ATOM     19  C   UNL     1       0.135   8.811  22.343  0.00  0.00    +0.000 A 
ATOM     20  C   UNL     1      -0.618   9.843  22.920  0.00  0.00    +0.000 A 
ENDBRANCH   1  18
TORSDOF 2
ENDMDL
MODEL 8
REMARK VINA RESULT:      -6.5      1.022      1.120
REMARK  Name = 
REMARK  3 active torsions:
REMARK  status: ('A' for Active; 'I' for Inactive)
REMARK    1  A    between atoms: C_1  and  C_2
REMARK    2  A    between atoms: C_5  and  N_6
REMARK    3  A    between atoms: C_7  and  C_9
REMARK                            x       y       z     vdW  Elec       q    Type
REMARK                         _______ _______ _______ _____ _____    ______ ____
ROOT
ATOM      1  N   UNL     1       1.819   8.583  18.059  0.00  0.00    +0.000 N 
ATOM      2  C   UNL     1       2.175   7.704  19.073  0.00  0.00    +0.000 C 
ATOM      3  O   UNL     1       1.987   7.952  20.263  0.00  0.00    +0.000 OA
ATOM      4  H   UNL     1       1.852   8.221  17.115  0.00  0.00    +0.000 HD
ENDROOT
BRANCH   2   5
ATOM      5  C   UNL     1       2.780   6.433  18.667  0.00  0.00    +0.000 A 
ATOM      6  S   UNL     1       4.052   6.339  17.528  0.00  0.00    +0.000 S 
ATOM      7  C   UNL     1       4.156   4.642  17.689  0.00  0.00    +0.000 A 
ATOM      8  C   UNL     1       3.236   4.136  18.587  0.00  0.00    +0.000 A 
ATOM      9  C   UNL     1       2.429   5.170  19.142  0.00  0.00    +0.000 A 
ATOM     10  C   UNL     1       1.357   4.912  20.148  0.00  0.00    +0.000 C 
ATOM     11  C   UNL     1       1.083   3.455  20.496  0.00  0.00    +0.000 C 
ATOM     12  C   UNL     1       1.970   2.352  19.917  0.00  0.00    +0.000 C 
ATOM     13  C   UNL     1       3.107   2.699  18.958  0.00  0.00    +0.000 C 
ENDBRANCH   2   5
BRANCH   1  18
ATOM     14  C   UNL     1      -0.355  13.815  18.948  0.00  0.00    +0.000 C 
ATOM     15  C   UNL     1       0.218  12.455  18.691  0.00  0.00    +0.000 A 
ATOM     16  C   UNL     1       1.595  12.287  18.548  0.00  0.00    +0.000 A 
ATOM     17  C   UNL     1       2.132  11.019  18.328  0.00  0.00    +0.000 A 
ATOM     18  C   UNL     1       1.313   9.888  18.249  0.00  0.00    +0.000 A 
ATOM     19  C   UNL     1      -0.071  10.060  18.354  0.00  0.00    +0.000 A 
ATOM     20  C   UNL     1      -0.612  11.333  18.585  0.00  0.00    +0.000 A 
ENDBRANCH   1  18
TORSDOF 2
ENDMDL
MODEL 9
REMARK VINA RESULT:      -6.5      2.750      7.127
REMARK  Name = 
REMARK  3 active torsions:
REMARK  status: ('A' for Active; 'I' for Inactive)
REMARK    1  A    between atoms: C_1  and  C_2
REMARK    2  A    between atoms: C_5  and  N_6
REMARK    3  A    between atoms: C_7  and  C_9
REMARK                            x       y       z     vdW  Elec       q    Type
REMARK                         _______ _______ _______ _____ _____    ______ ____
ROOT
ATOM      1  N   UNL     1       2.221   8.140  19.114  0.00  0.00    +0.000 N 
ATOM      2  C   UNL     1       1.499   9.147  18.487  0.00  0.00    +0.000 C 
ATOM      3  O   UNL     1       1.213   9.112  17.291  0.00  0.00    +0.000 OA
ATOM      4  H   UNL     1       2.255   8.172  20.125  0.00  0.00    +0.000 HD
ENDROOT
BRANCH   2   5
ATOM      5  C   UNL     1       1.065  10.270  19.321  0.00  0.00    +0.000 A 
ATOM      6  S   UNL     1       1.273  11.901  18.852  0.00  0.00    +0.000 S 
ATOM      7  C   UNL     1       0.502  12.472  20.265  0.00  0.00    +0.000 A 
ATOM      8  C   UNL     1       0.094  11.449  21.098  0.00  0.00    +0.000 A 
ATOM      9  C   UNL     1       0.433  10.175  20.560  0.00  0.00    +0.000 A 
ATOM     10  C   UNL     1       0.104   8.890  21.246  0.00  0.00    +0.000 C 
ATOM     11  C   UNL     1      -0.534   8.995  22.623  0.00  0.00    +0.000 C 
ATOM     12  C   UNL     1      -0.920  10.365  23.184  0.00  0.00    +0.000 C 
ATOM     13  C   UNL     1      -0.630  11.635  22.386  0.00  0.00    +0.000 C 
ENDBRANCH   2   5
BRANCH   1  18
ATOM     14  C   UNL     1       4.746   3.691  16.522  0.00  0.00    +0.000 C 
ATOM     15  C   UNL     1       4.066   4.852  17.182  0.00  0.00    +0.000 A 
ATOM     16  C   UNL     1       2.931   4.649  17.966  0.00  0.00    +0.000 A 
ATOM     17  C   UNL     1       2.308   5.726  18.597  0.00  0.00    +0.000 A 
ATOM     18  C   UNL     1       2.803   7.028  18.467  0.00  0.00    +0.000 A 
ATOM     19  C   UNL     1       3.919   7.237  17.651  0.00  0.00    +0.000 A 
ATOM     20  C   UNL     1       4.552   6.155  17.023  0.00  0.00    +0.000 A 
ENDBRANCH   1  18
TORSDOF 2
ENDMDL
