MODEL 1
REMARK VINA RESULT:      -7.9      0.000      0.000
REMARK  Name = 
REMARK  9 active torsions:
REMARK  status: ('A' for Active; 'I' for Inactive)
REMARK    1  A    between atoms: C_1  and  O_2
REMARK    2  A    between atoms: O_2  and  C_3
REMARK    3  A    between atoms: C_8  and  N_9
REMARK    4  A    between atoms: C_11  and  C_12
REMARK    5  A    between atoms: N_15  and  S_16
REMARK    6  A    between atoms: S_16  and  C_17
REMARK    7  A    between atoms: C_23  and  C_24
REMARK    8  A    between atoms: C_27  and  C_28
REMARK    9  A    between atoms: C_27  and  C_29
REMARK                            x       y       z     vdW  Elec       q    Type
REMARK                         _______ _______ _______ _____ _____    ______ ____
ROOT
ATOM      1  N   UNL     1       2.352   6.151  19.365  0.00  0.00    +0.000 N 
ATOM      2  N   UNL     1       1.678   7.249  19.859  0.00  0.00    +0.000 NA
ATOM      3  C   UNL     1       2.141   8.303  19.173  0.00  0.00    +0.000 A 
ATOM      4  C   UNL     1       3.027   7.885  18.167  0.00  0.00    +0.000 A 
ATOM      5  C   UNL     1       3.145   6.511  18.272  0.00  0.00    +0.000 A 
ENDROOT
BRANCH   5   6
ATOM      6  C   UNL     1       3.906   5.571  17.376  0.00  0.00    +0.000 C 
ATOM      7  C   UNL     1       4.615   4.476  18.183  0.00  0.00    +0.000 C 
ATOM      8  C   UNL     1       5.884   4.962  18.884  0.00  0.00    +0.000 C 
ATOM      9  C   UNL     1       6.856   5.731  17.958  0.00  0.00    +0.000 C 
ATOM     10  C   UNL     1       7.621   4.713  17.094  0.00  0.00    +0.000 C 
ATOM     11  C   UNL     1       7.865   6.503  18.829  0.00  0.00    +0.000 C 
ATOM     12  C   UNL     1       6.144   6.765  17.054  0.00  0.00    +0.000 C 
ATOM     13  C   UNL     1       4.864   6.262  16.407  0.00  0.00    +0.000 C 
ENDBRANCH   5   6
BRANCH   1  19
ATOM     14  C   UNL     1       1.346   3.838  19.234  0.00  0.00    +0.000 A 
ATOM     15  C   UNL     1       1.061   2.640  19.914  0.00  0.00    +0.000 A 
ATOM     16  C   UNL     1       1.426   2.460  21.248  0.00  0.00    +0.000 A 
ATOM     17  C   UNL     1       2.120   3.461  21.912  0.00  0.00    +0.000 A 
ATOM     18  C   UNL     1       2.437   4.644  21.244  0.00  0.00    +0.000 A 
ATOM     19  C   UNL     1       2.035   4.864  19.912  0.00  0.00    +0.000 A 
BRANCH  14  21
ATOM     20  C   UNL     1       1.827   3.023  17.070  0.00  0.00    +0.000 C 
ATOM     21  O   UNL     1       1.076   3.932  17.889  0.00  0.00    +0.000 OA
ENDBRANCH  14  21
ENDBRANCH   1  19
BRANCH   3  22
ATOM     22  C   UNL     1       1.714   9.721  19.426  0.00  0.00    +0.000 C 
ATOM     23  C   UNL     1       0.570   9.849  20.439  0.00  0.00    +0.000 C 
ATOM     24  C   UNL     1      -0.797   9.542  19.833  0.00  0.00    +0.000 C 
ATOM     25  N   UNL     1      -1.005  10.383  18.628  0.00  0.00    +0.000 NA
ATOM     26  C   UNL     1       0.030  10.169  17.586  0.00  0.00    +0.000 C 
ATOM     27  C   UNL     1       1.403  10.503  18.147  0.00  0.00    +0.000 C 
BRANCH  25  28
ATOM     28  S   UNL     1      -2.602  10.524  18.065  0.00  0.00    +0.000 S 
ATOM     29  C   UNL     1      -2.382  11.065  16.380  0.00  0.00    +0.000 C 
ATOM     30  O   UNL     1      -3.197   9.204  18.039  0.00  0.00    +0.000 OA
ATOM     31  O   UNL     1      -3.230  11.609  18.791  0.00  0.00    +0.000 OA
ENDBRANCH  25  28
ENDBRANCH   3  22
TORSDOF 5
ENDMDL
MODEL 2
REMARK VINA RESULT:      -7.7      2.447      5.000
REMARK  Name = 
REMARK  9 active torsions:
REMARK  status: ('A' for Active; 'I' for Inactive)
REMARK    1  A    between atoms: C_1  and  O_2
REMARK    2  A    between atoms: O_2  and  C_3
REMARK    3  A    between atoms: C_8  and  N_9
REMARK    4  A    between atoms: C_11  and  C_12
REMARK    5  A    between atoms: N_15  and  S_16
REMARK    6  A    between atoms: S_16  and  C_17
REMARK    7  A    between atoms: C_23  and  C_24
REMARK    8  A    between atoms: C_27  and  C_28
REMARK    9  A    between atoms: C_27  and  C_29
REMARK                            x       y       z     vdW  Elec       q    Type
REMARK                         _______ _______ _______ _____ _____    ______ ____
ROOT
ATOM      1  N   UNL     1       3.754   6.880  17.679  0.00  0.00    +0.000 N 
ATOM      2  N   UNL     1       3.280   8.040  17.101  0.00  0.00    +0.000 NA
ATOM      3  C   UNL     1       2.282   8.462  17.890  0.00  0.00    +0.000 A 
ATOM      4  C   UNL     1       2.176   7.647  19.027  0.00  0.00    +0.000 A 
ATOM      5  C   UNL     1       3.129   6.652  18.907  0.00  0.00    +0.000 A 
ENDROOT
BRANCH   5   6
ATOM      6  C   UNL     1       3.484   5.578  19.900  0.00  0.00    +0.000 C 
ATOM      7  C   UNL     1       3.916   4.284  19.199  0.00  0.00    +0.000 C 
ATOM      8  C   UNL     1       2.746   3.481  18.628  0.00  0.00    +0.000 C 
ATOM      9  C   UNL     1       1.597   3.246  19.636  0.00  0.00    +0.000 C 
ATOM     10  C   UNL     1       2.010   2.119  20.599  0.00  0.00    +0.000 C 
ATOM     11  C   UNL     1       0.341   2.803  18.862  0.00  0.00    +0.000 C 
ATOM     12  C   UNL     1       1.220   4.516  20.435  0.00  0.00    +0.000 C 
ATOM     13  C   UNL     1       2.407   5.311  20.951  0.00  0.00    +0.000 C 
ENDBRANCH   5   6
BRANCH   1  19
ATOM     14  C   UNL     1       6.207   6.603  17.145  0.00  0.00    +0.000 A 
ATOM     15  C   UNL     1       7.180   5.882  16.429  0.00  0.00    +0.000 A 
ATOM     16  C   UNL     1       6.829   4.809  15.611  0.00  0.00    +0.000 A 
ATOM     17  C   UNL     1       5.503   4.412  15.527  0.00  0.00    +0.000 A 
ATOM     18  C   UNL     1       4.528   5.097  16.253  0.00  0.00    +0.000 A 
ATOM     19  C   UNL     1       4.856   6.214  17.047  0.00  0.00    +0.000 A 
BRANCH  14  21
ATOM     20  C   UNL     1       7.816   8.252  17.663  0.00  0.00    +0.000 C 
ATOM     21  O   UNL     1       6.603   7.577  18.030  0.00  0.00    +0.000 OA
ENDBRANCH  14  21
ENDBRANCH   1  19
BRANCH   3  22
ATOM     22  C   UNL     1       1.442   9.674  17.602  0.00  0.00    +0.000 C 
ATOM     23  C   UNL     1       2.084  10.991  18.056  0.00  0.00    +0.000 C 
ATOM     24  C   UNL     1       1.935  11.238  19.554  0.00  0.00    +0.000 C 
ATOM     25  N   UNL     1       0.503  11.142  19.933  0.00  0.00    +0.000 NA
ATOM     26  C   UNL     1      -0.092   9.820  19.614  0.00  0.00    +0.000 C 
ATOM     27  C   UNL     1       0.006   9.558  18.120  0.00  0.00    +0.000 C 
BRANCH  25  28
ATOM     28  S   UNL     1       0.067  11.804  21.435  0.00  0.00    +0.000 S 
ATOM     29  C   UNL     1      -1.627  12.297  21.175  0.00  0.00    +0.000 C 
ATOM     30  O   UNL     1       0.080  10.747  22.424  0.00  0.00    +0.000 OA
ATOM     31  O   UNL     1       0.845  13.011  21.626  0.00  0.00    +0.000 OA
ENDBRANCH  25  28
ENDBRANCH   3  22
TORSDOF 5
ENDMDL
MODEL 3
REMARK VINA RESULT:      -7.6      7.197      9.670
REMARK  Name = 
REMARK  9 active torsions:
REMARK  status: ('A' for Active; 'I' for Inactive)
REMARK    1  A    between atoms: C_1  and  O_2
REMARK    2  A    between atoms: O_2  and  C_3
REMARK    3  A    between atoms: C_8  and  N_9
REMARK    4  A    between atoms: C_11  and  C_12
REMARK    5  A    between atoms: N_15  and  S_16
REMARK    6  A    between atoms: S_16  and  C_17
REMARK    7  A    between atoms: C_23  and  C_24
REMARK    8  A    between atoms: C_27  and  C_28
REMARK    9  A    between atoms: C_27  and  C_29
REMARK                            x       y       z     vdW  Elec       q    Type
REMARK                         _______ _______ _______ _____ _____    ______ ____
ROOT
ATOM      1  N   UNL     1       8.395  14.308  19.176  0.00  0.00    +0.000 N 
ATOM      2  N   UNL     1       7.397  14.878  18.411  0.00  0.00    +0.000 NA
ATOM      3  C   UNL     1       6.462  15.292  19.277  0.00  0.00    +0.000 A 
ATOM      4  C   UNL     1       6.892  15.093  20.598  0.00  0.00    +0.000 A 
ATOM      5  C   UNL     1       8.134  14.488  20.537  0.00  0.00    +0.000 A 
ENDROOT
BRANCH   5   6
ATOM      6  C   UNL     1       9.059  14.143  21.673  0.00  0.00    +0.000 C 
ATOM      7  C   UNL     1       9.309  12.631  21.755  0.00  0.00    +0.000 C 
ATOM      8  C   UNL     1       8.142  11.853  22.364  0.00  0.00    +0.000 C 
ATOM      9  C   UNL     1       7.630  12.436  23.701  0.00  0.00    +0.000 C 
ATOM     10  C   UNL     1       8.600  12.022  24.822  0.00  0.00    +0.000 C 
ATOM     11  C   UNL     1       6.241  11.843  24.002  0.00  0.00    +0.000 C 
ATOM     12  C   UNL     1       7.476  13.975  23.675  0.00  0.00    +0.000 C 
ATOM     13  C   UNL     1       8.634  14.714  23.026  0.00  0.00    +0.000 C 
ENDBRANCH   5   6
BRANCH   1  19
ATOM     14  C   UNL     1       9.741  12.445  18.131  0.00  0.00    +0.000 A 
ATOM     15  C   UNL     1      10.949  12.071  17.513  0.00  0.00    +0.000 A 
ATOM     16  C   UNL     1      11.962  13.001  17.283  0.00  0.00    +0.000 A 
ATOM     17  C   UNL     1      11.768  14.330  17.628  0.00  0.00    +0.000 A 
ATOM     18  C   UNL     1      10.566  14.724  18.215  0.00  0.00    +0.000 A 
ATOM     19  C   UNL     1       9.549  13.791  18.500  0.00  0.00    +0.000 A 
BRANCH  14  21
ATOM     20  C   UNL     1       9.119  10.264  18.791  0.00  0.00    +0.000 C 
ATOM     21  O   UNL     1       8.723  11.527  18.234  0.00  0.00    +0.000 OA
ENDBRANCH  14  21
ENDBRANCH   1  19
BRANCH   3  22
ATOM     22  C   UNL     1       5.164  15.929  18.867  0.00  0.00    +0.000 C 
ATOM     23  C   UNL     1       4.239  16.257  20.045  0.00  0.00    +0.000 C 
ATOM     24  C   UNL     1       3.482  15.037  20.563  0.00  0.00    +0.000 C 
ATOM     25  N   UNL     1       2.765  14.385  19.439  0.00  0.00    +0.000 NA
ATOM     26  C   UNL     1       3.672  13.946  18.349  0.00  0.00    +0.000 C 
ATOM     27  C   UNL     1       4.416  15.146  17.785  0.00  0.00    +0.000 C 
BRANCH  25  28
ATOM     28  S   UNL     1       1.530  13.294  19.855  0.00  0.00    +0.000 S 
ATOM     29  C   UNL     1       1.759  11.969  18.684  0.00  0.00    +0.000 C 
ATOM     30  O   UNL     1       1.802  12.776  21.179  0.00  0.00    +0.000 OA
ATOM     31  O   UNL     1       0.263  13.928  19.550  0.00  0.00    +0.000 OA
ENDBRANCH  25  28
ENDBRANCH   3  22
TORSDOF 5
ENDMDL
MODEL 4
REMARK VINA RESULT:      -7.4      1.505      2.140
REMARK  Name = 
REMARK  9 active torsions:
REMARK  status: ('A' for Active; 'I' for Inactive)
REMARK    1  A    between atoms: C_1  and  O_2
REMARK    2  A    between atoms: O_2  and  C_3
REMARK    3  A    between atoms: C_8  and  N_9
REMARK    4  A    between atoms: C_11  and  C_12
REMARK    5  A    between atoms: N_15  and  S_16
REMARK    6  A    between atoms: S_16  and  C_17
REMARK    7  A    between atoms: C_23  and  C_24
REMARK    8  A    between atoms: C_27  and  C_28
REMARK    9  A    between atoms: C_27  and  C_29
REMARK                            x       y       z     vdW  Elec       q    Type
REMARK                         _______ _______ _______ _____ _____    ______ ____
ROOT
ATOM      1  N   UNL     1       2.422   6.129  18.746  0.00  0.00    +0.000 N 
ATOM      2  N   UNL     1       1.635   7.261  18.819  0.00  0.00    +0.000 NA
ATOM      3  C   UNL     1       2.157   8.128  17.940  0.00  0.00    +0.000 A 
ATOM      4  C   UNL     1       3.205   7.531  17.223  0.00  0.00    +0.000 A 
ATOM      5  C   UNL     1       3.360   6.249  17.718  0.00  0.00    +0.000 A 
ENDROOT
BRANCH   5   6
ATOM      6  C   UNL     1       4.289   5.169  17.231  0.00  0.00    +0.000 C 
ATOM      7  C   UNL     1       4.943   4.420  18.399  0.00  0.00    +0.000 C 
ATOM      8  C   UNL     1       6.074   5.202  19.067  0.00  0.00    +0.000 C 
ATOM      9  C   UNL     1       7.118   5.765  18.074  0.00  0.00    +0.000 C 
ATOM     10  C   UNL     1       8.051   4.621  17.640  0.00  0.00    +0.000 C 
ATOM     11  C   UNL     1       7.952   6.844  18.789  0.00  0.00    +0.000 C 
ATOM     12  C   UNL     1       6.478   6.427  16.830  0.00  0.00    +0.000 C 
ATOM     13  C   UNL     1       5.330   5.643  16.218  0.00  0.00    +0.000 C 
ENDBRANCH   5   6
BRANCH   1  19
ATOM     14  C   UNL     1       1.407   3.851  19.141  0.00  0.00    +0.000 A 
ATOM     15  C   UNL     1       1.087   2.854  20.081  0.00  0.00    +0.000 A 
ATOM     16  C   UNL     1       1.398   3.005  21.432  0.00  0.00    +0.000 A 
ATOM     17  C   UNL     1       2.072   4.139  21.859  0.00  0.00    +0.000 A 
ATOM     18  C   UNL     1       2.423   5.126  20.937  0.00  0.00    +0.000 A 
ATOM     19  C   UNL     1       2.074   5.013  19.576  0.00  0.00    +0.000 A 
BRANCH  14  21
ATOM     20  C   UNL     1       2.044   2.609  17.236  0.00  0.00    +0.000 C 
ATOM     21  O   UNL     1       1.190   3.614  17.805  0.00  0.00    +0.000 OA
ENDBRANCH  14  21
ENDBRANCH   1  19
BRANCH   3  22
ATOM     22  C   UNL     1       1.639   9.523  17.731  0.00  0.00    +0.000 C 
ATOM     23  C   UNL     1       2.325  10.574  18.613  0.00  0.00    +0.000 C 
ATOM     24  C   UNL     1       1.795  10.587  20.043  0.00  0.00    +0.000 C 
ATOM     25  N   UNL     1       0.318  10.736  20.023  0.00  0.00    +0.000 NA
ATOM     26  C   UNL     1      -0.364   9.647  19.280  0.00  0.00    +0.000 C 
ATOM     27  C   UNL     1       0.116   9.630  17.837  0.00  0.00    +0.000 C 
BRANCH  25  28
ATOM     28  S   UNL     1      -0.420  11.209  21.479  0.00  0.00    +0.000 S 
ATOM     29  C   UNL     1      -0.361   9.719  22.457  0.00  0.00    +0.000 C 
ATOM     30  O   UNL     1       0.421  12.199  22.118  0.00  0.00    +0.000 OA
ATOM     31  O   UNL     1      -1.813  11.487  21.195  0.00  0.00    +0.000 OA
ENDBRANCH  25  28
ENDBRANCH   3  22
TORSDOF 5
ENDMDL
MODEL 5
REMARK VINA RESULT:      -7.3      7.464      9.914
REMARK  Name = 
REMARK  9 active torsions:
REMARK  status: ('A' for Active; 'I' for Inactive)
REMARK    1  A    between atoms: C_1  and  O_2
REMARK    2  A    between atoms: O_2  and  C_3
REMARK    3  A    between atoms: C_8  and  N_9
REMARK    4  A    between atoms: C_11  and  C_12
REMARK    5  A    between atoms: N_15  and  S_16
REMARK    6  A    between atoms: S_16  and  C_17
REMARK    7  A    between atoms: C_23  and  C_24
REMARK    8  A    between atoms: C_27  and  C_28
REMARK    9  A    between atoms: C_27  and  C_29
REMARK                            x       y       z     vdW  Elec       q    Type
REMARK                         _______ _______ _______ _____ _____    ______ ____
ROOT
ATOM      1  N   UNL     1       8.114  14.190  19.289  0.00  0.00    +0.000 N 
ATOM      2  N   UNL     1       7.067  14.721  18.564  0.00  0.00    +0.000 NA
ATOM      3  C   UNL     1       6.160  15.120  19.466  0.00  0.00    +0.000 A 
ATOM      4  C   UNL     1       6.656  14.953  20.769  0.00  0.00    +0.000 A 
ATOM      5  C   UNL     1       7.910  14.382  20.658  0.00  0.00    +0.000 A 
ENDROOT
BRANCH   5   6
ATOM      6  C   UNL     1       8.896  14.079  21.755  0.00  0.00    +0.000 C 
ATOM      7  C   UNL     1       9.074  12.568  21.950  0.00  0.00    +0.000 C 
ATOM      8  C   UNL     1       7.916  11.910  22.700  0.00  0.00    +0.000 C 
ATOM      9  C   UNL     1       7.532  12.629  24.014  0.00  0.00    +0.000 C 
ATOM     10  C   UNL     1       8.558  12.255  25.098  0.00  0.00    +0.000 C 
ATOM     11  C   UNL     1       6.139  12.143  24.458  0.00  0.00    +0.000 C 
ATOM     12  C   UNL     1       7.455  14.167  23.866  0.00  0.00    +0.000 C 
ATOM     13  C   UNL     1       8.600  14.783  23.079  0.00  0.00    +0.000 C 
ENDBRANCH   5   6
BRANCH   1  19
ATOM     14  C   UNL     1      10.209  14.496  17.913  0.00  0.00    +0.000 A 
ATOM     15  C   UNL     1      11.249  13.871  17.201  0.00  0.00    +0.000 A 
ATOM     16  C   UNL     1      11.334  12.482  17.114  0.00  0.00    +0.000 A 
ATOM     17  C   UNL     1      10.404  11.693  17.773  0.00  0.00    +0.000 A 
ATOM     18  C   UNL     1       9.382  12.295  18.508  0.00  0.00    +0.000 A 
ATOM     19  C   UNL     1       9.250  13.697  18.568  0.00  0.00    +0.000 A 
BRANCH  14  21
ATOM     20  C   UNL     1      10.792  16.580  16.967  0.00  0.00    +0.000 C 
ATOM     21  O   UNL     1      10.225  15.861  18.073  0.00  0.00    +0.000 OA
ENDBRANCH  14  21
ENDBRANCH   1  19
BRANCH   3  22
ATOM     22  C   UNL     1       4.827  15.714  19.109  0.00  0.00    +0.000 C 
ATOM     23  C   UNL     1       3.872  15.849  20.301  0.00  0.00    +0.000 C 
ATOM     24  C   UNL     1       3.192  14.533  20.668  0.00  0.00    +0.000 C 
ATOM     25  N   UNL     1       2.529  13.966  19.467  0.00  0.00    +0.000 NA
ATOM     26  C   UNL     1       3.473  13.710  18.350  0.00  0.00    +0.000 C 
ATOM     27  C   UNL     1       4.141  15.011  17.934  0.00  0.00    +0.000 C 
BRANCH  25  28
ATOM     28  S   UNL     1       1.364  12.758  19.740  0.00  0.00    +0.000 S 
ATOM     29  C   UNL     1      -0.158  13.564  19.277  0.00  0.00    +0.000 C 
ATOM     30  O   UNL     1       1.600  11.675  18.809  0.00  0.00    +0.000 OA
ATOM     31  O   UNL     1       1.310  12.515  21.167  0.00  0.00    +0.000 OA
ENDBRANCH  25  28
ENDBRANCH   3  22
TORSDOF 5
ENDMDL
MODEL 6
REMARK VINA RESULT:      -7.3      1.652      2.607
REMARK  Name = 
REMARK  9 active torsions:
REMARK  status: ('A' for Active; 'I' for Inactive)
REMARK    1  A    between atoms: C_1  and  O_2
REMARK    2  A    between atoms: O_2  and  C_3
REMARK    3  A    between atoms: C_8  and  N_9
REMARK    4  A    between atoms: C_11  and  C_12
REMARK    5  A    between atoms: N_15  and  S_16
REMARK    6  A    between atoms: S_16  and  C_17
REMARK    7  A    between atoms: C_23  and  C_24
REMARK    8  A    between atoms: C_27  and  C_28
REMARK    9  A    between atoms: C_27  and  C_29
REMARK                            x       y       z     vdW  Elec       q    Type
REMARK                         _______ _______ _______ _____ _____    ______ ____
ROOT
ATOM      1  N   UNL     1       2.525   6.135  19.048  0.00  0.00    +0.000 N 
ATOM      2  N   UNL     1       1.535   7.026  18.684  0.00  0.00    +0.000 NA
ATOM      3  C   UNL     1       2.164   8.055  18.100  0.00  0.00    +0.000 A 
ATOM      4  C   UNL     1       3.538   7.792  17.985  0.00  0.00    +0.000 A 
ATOM      5  C   UNL     1       3.767   6.559  18.567  0.00  0.00    +0.000 A 
ENDROOT
BRANCH   5   6
ATOM      6  C   UNL     1       5.056   5.783  18.629  0.00  0.00    +0.000 C 
ATOM      7  C   UNL     1       6.193   6.526  17.916  0.00  0.00    +0.000 C 
ATOM      8  C   UNL     1       6.119   6.435  16.392  0.00  0.00    +0.000 C 
ATOM      9  C   UNL     1       5.934   4.995  15.858  0.00  0.00    +0.000 C 
ATOM     10  C   UNL     1       7.290   4.270  15.920  0.00  0.00    +0.000 C 
ATOM     11  C   UNL     1       5.473   5.065  14.390  0.00  0.00    +0.000 C 
ATOM     12  C   UNL     1       4.867   4.191  16.637  0.00  0.00    +0.000 C 
ATOM     13  C   UNL     1       4.944   4.337  18.147  0.00  0.00    +0.000 C 
ENDBRANCH   5   6
BRANCH   1  19
ATOM     14  C   UNL     1       1.466   3.843  19.051  0.00  0.00    +0.000 A 
ATOM     15  C   UNL     1       1.095   2.721  19.815  0.00  0.00    +0.000 A 
ATOM     16  C   UNL     1       1.353   2.659  21.184  0.00  0.00    +0.000 A 
ATOM     17  C   UNL     1       2.023   3.702  21.805  0.00  0.00    +0.000 A 
ATOM     18  C   UNL     1       2.424   4.811  21.059  0.00  0.00    +0.000 A 
ATOM     19  C   UNL     1       2.130   4.913  19.684  0.00  0.00    +0.000 A 
BRANCH  14  21
ATOM     20  C   UNL     1       2.015   2.762  17.025  0.00  0.00    +0.000 C 
ATOM     21  O   UNL     1       1.301   3.816  17.687  0.00  0.00    +0.000 OA
ENDBRANCH  14  21
ENDBRANCH   1  19
BRANCH   3  22
ATOM     22  C   UNL     1       1.465   9.286  17.595  0.00  0.00    +0.000 C 
ATOM     23  C   UNL     1       2.171  10.595  17.973  0.00  0.00    +0.000 C 
ATOM     24  C   UNL     1       1.897  11.023  19.412  0.00  0.00    +0.000 C 
ATOM     25  N   UNL     1       0.432  11.079  19.642  0.00  0.00    +0.000 NA
ATOM     26  C   UNL     1      -0.242   9.778  19.403  0.00  0.00    +0.000 C 
ATOM     27  C   UNL     1      -0.020   9.340  17.964  0.00  0.00    +0.000 C 
BRANCH  25  28
ATOM     28  S   UNL     1      -0.092  11.942  21.009  0.00  0.00    +0.000 S 
ATOM     29  C   UNL     1      -0.331  10.656  22.222  0.00  0.00    +0.000 C 
ATOM     30  O   UNL     1       0.992  12.788  21.460  0.00  0.00    +0.000 OA
ATOM     31  O   UNL     1      -1.394  12.498  20.705  0.00  0.00    +0.000 OA
ENDBRANCH  25  28
ENDBRANCH   3  22
TORSDOF 5
ENDMDL
MODEL 7
REMARK VINA RESULT:      -7.3      7.464      9.825
REMARK  Name = 
REMARK  9 active torsions:
REMARK  status: ('A' for Active; 'I' for Inactive)
REMARK    1  A    between atoms: C_1  and  O_2
REMARK    2  A    between atoms: O_2  and  C_3
REMARK    3  A    between atoms: C_8  and  N_9
REMARK    4  A    between atoms: C_11  and  C_12
REMARK    5  A    between atoms: N_15  and  S_16
REMARK    6  A    between atoms: S_16  and  C_17
REMARK    7  A    between atoms: C_23  and  C_24
REMARK    8  A    between atoms: C_27  and  C_28
REMARK    9  A    between atoms: C_27  and  C_29
REMARK                            x       y       z     vdW  Elec       q    Type
REMARK                         _______ _______ _______ _____ _____    ______ ____
ROOT
ATOM      1  N   UNL     1       8.356  14.153  19.052  0.00  0.00    +0.000 N 
ATOM      2  N   UNL     1       7.353  14.629  18.232  0.00  0.00    +0.000 NA
ATOM      3  C   UNL     1       6.381  15.055  19.051  0.00  0.00    +0.000 A 
ATOM      4  C   UNL     1       6.788  14.958  20.390  0.00  0.00    +0.000 A 
ATOM      5  C   UNL     1       8.056  14.406  20.393  0.00  0.00    +0.000 A 
ENDROOT
BRANCH   5   6
ATOM      6  C   UNL     1       8.968  14.175  21.568  0.00  0.00    +0.000 C 
ATOM      7  C   UNL     1       9.313  12.689  21.727  0.00  0.00    +0.000 C 
ATOM      8  C   UNL     1       8.182  11.864  22.342  0.00  0.00    +0.000 C 
ATOM      9  C   UNL     1       7.596  12.472  23.637  0.00  0.00    +0.000 C 
ATOM     10  C   UNL     1       8.558  12.174  24.801  0.00  0.00    +0.000 C 
ATOM     11  C   UNL     1       6.239  11.803  23.930  0.00  0.00    +0.000 C 
ATOM     12  C   UNL     1       7.344  13.995  23.534  0.00  0.00    +0.000 C 
ATOM     13  C   UNL     1       8.470  14.778  22.881  0.00  0.00    +0.000 C 
ENDBRANCH   5   6
BRANCH   1  19
ATOM     14  C   UNL     1       9.791  12.295  18.124  0.00  0.00    +0.000 A 
ATOM     15  C   UNL     1      11.029  11.936  17.560  0.00  0.00    +0.000 A 
ATOM     16  C   UNL     1      12.022  12.887  17.326  0.00  0.00    +0.000 A 
ATOM     17  C   UNL     1      11.777  14.222  17.614  0.00  0.00    +0.000 A 
ATOM     18  C   UNL     1      10.544  14.601  18.146  0.00  0.00    +0.000 A 
ATOM     19  C   UNL     1       9.547  13.648  18.435  0.00  0.00    +0.000 A 
BRANCH  14  21
ATOM     20  C   UNL     1       9.167  10.187  18.985  0.00  0.00    +0.000 C 
ATOM     21  O   UNL     1       8.798  11.351  18.230  0.00  0.00    +0.000 OA
ENDBRANCH  14  21
ENDBRANCH   1  19
BRANCH   3  22
ATOM     22  C   UNL     1       5.066  15.606  18.575  0.00  0.00    +0.000 C 
ATOM     23  C   UNL     1       4.529  16.753  19.439  0.00  0.00    +0.000 C 
ATOM     24  C   UNL     1       3.865  16.268  20.725  0.00  0.00    +0.000 C 
ATOM     25  N   UNL     1       2.821  15.265  20.395  0.00  0.00    +0.000 NA
ATOM     26  C   UNL     1       3.358  14.086  19.671  0.00  0.00    +0.000 C 
ATOM     27  C   UNL     1       3.995  14.532  18.364  0.00  0.00    +0.000 C 
BRANCH  25  28
ATOM     28  S   UNL     1       1.680  14.929  21.608  0.00  0.00    +0.000 S 
ATOM     29  C   UNL     1       0.225  15.786  21.033  0.00  0.00    +0.000 C 
ATOM     30  O   UNL     1       1.400  13.509  21.593  0.00  0.00    +0.000 OA
ATOM     31  O   UNL     1       2.120  15.588  22.821  0.00  0.00    +0.000 OA
ENDBRANCH  25  28
ENDBRANCH   3  22
TORSDOF 5
ENDMDL
MODEL 8
REMARK VINA RESULT:      -7.1      5.605      8.849
REMARK  Name = 
REMARK  9 active torsions:
REMARK  status: ('A' for Active; 'I' for Inactive)
REMARK    1  A    between atoms: C_1  and  O_2
REMARK    2  A    between atoms: O_2  and  C_3
REMARK    3  A    between atoms: C_8  and  N_9
REMARK    4  A    between atoms: C_11  and  C_12
REMARK    5  A    between atoms: N_15  and  S_16
REMARK    6  A    between atoms: S_16  and  C_17
REMARK    7  A    between atoms: C_23  and  C_24
REMARK    8  A    between atoms: C_27  and  C_28
REMARK    9  A    between atoms: C_27  and  C_29
REMARK                            x       y       z     vdW  Elec       q    Type
REMARK                         _______ _______ _______ _____ _____    ______ ____
ROOT
ATOM      1  N   UNL     1      -1.860  12.588  19.929  0.00  0.00    +0.000 N 
ATOM      2  N   UNL     1      -2.559  12.447  21.110  0.00  0.00    +0.000 NA
ATOM      3  C   UNL     1      -2.170  13.465  21.891  0.00  0.00    +0.000 A 
ATOM      4  C   UNL     1      -1.308  14.322  21.190  0.00  0.00    +0.000 A 
ATOM      5  C   UNL     1      -1.128  13.778  19.931  0.00  0.00    +0.000 A 
ENDROOT
BRANCH   5   6
ATOM      6  C   UNL     1      -0.363  14.354  18.769  0.00  0.00    +0.000 C 
ATOM      7  C   UNL     1       1.014  13.696  18.620  0.00  0.00    +0.000 C 
ATOM      8  C   UNL     1       2.039  14.190  19.641  0.00  0.00    +0.000 C 
ATOM      9  C   UNL     1       2.133  15.730  19.739  0.00  0.00    +0.000 C 
ATOM     10  C   UNL     1       2.950  16.250  18.543  0.00  0.00    +0.000 C 
ATOM     11  C   UNL     1       2.868  16.101  21.041  0.00  0.00    +0.000 C 
ATOM     12  C   UNL     1       0.751  16.422  19.778  0.00  0.00    +0.000 C 
ATOM     13  C   UNL     1      -0.256  15.879  18.779  0.00  0.00    +0.000 C 
ENDBRANCH   5   6
BRANCH   1  19
ATOM     14  C   UNL     1      -1.191  10.641  18.468  0.00  0.00    +0.000 A 
ATOM     15  C   UNL     1      -1.544   9.800  17.396  0.00  0.00    +0.000 A 
ATOM     16  C   UNL     1      -2.760   9.947  16.730  0.00  0.00    +0.000 A 
ATOM     17  C   UNL     1      -3.664  10.911  17.153  0.00  0.00    +0.000 A 
ATOM     18  C   UNL     1      -3.343  11.734  18.232  0.00  0.00    +0.000 A 
ATOM     19  C   UNL     1      -2.099  11.634  18.887  0.00  0.00    +0.000 A 
BRANCH  14  21
ATOM     20  C   UNL     1       1.037   9.863  18.378  0.00  0.00    +0.000 C 
ATOM     21  O   UNL     1      -0.038  10.389  19.172  0.00  0.00    +0.000 OA
ENDBRANCH  14  21
ENDBRANCH   1  19
BRANCH   3  22
ATOM     22  C   UNL     1      -2.647  13.669  23.301  0.00  0.00    +0.000 C 
ATOM     23  C   UNL     1      -3.552  12.543  23.815  0.00  0.00    +0.000 C 
ATOM     24  C   UNL     1      -4.987  12.656  23.309  0.00  0.00    +0.000 C 
ATOM     25  N   UNL     1      -5.519  14.005  23.627  0.00  0.00    +0.000 NA
ATOM     26  C   UNL     1      -4.721  15.100  23.022  0.00  0.00    +0.000 C 
ATOM     27  C   UNL     1      -3.291  15.038  23.536  0.00  0.00    +0.000 C 
BRANCH  25  28
ATOM     28  S   UNL     1      -7.206  14.194  23.552  0.00  0.00    +0.000 S 
ATOM     29  C   UNL     1      -7.599  13.615  21.911  0.00  0.00    +0.000 C 
ATOM     30  O   UNL     1      -7.812  13.289  24.505  0.00  0.00    +0.000 OA
ATOM     31  O   UNL     1      -7.491  15.614  23.590  0.00  0.00    +0.000 OA
ENDBRANCH  25  28
ENDBRANCH   3  22
TORSDOF 5
ENDMDL
MODEL 9
REMARK VINA RESULT:      -7.0      2.023      4.684
REMARK  Name = 
REMARK  9 active torsions:
REMARK  status: ('A' for Active; 'I' for Inactive)
REMARK    1  A    between atoms: C_1  and  O_2
REMARK    2  A    between atoms: O_2  and  C_3
REMARK    3  A    between atoms: C_8  and  N_9
REMARK    4  A    between atoms: C_11  and  C_12
REMARK    5  A    between atoms: N_15  and  S_16
REMARK    6  A    between atoms: S_16  and  C_17
REMARK    7  A    between atoms: C_23  and  C_24
REMARK    8  A    between atoms: C_27  and  C_28
REMARK    9  A    between atoms: C_27  and  C_29
REMARK                            x       y       z     vdW  Elec       q    Type
REMARK                         _______ _______ _______ _____ _____    ______ ____
ROOT
ATOM      1  N   UNL     1       4.096   6.540  18.214  0.00  0.00    +0.000 N 
ATOM      2  N   UNL     1       3.756   7.682  17.518  0.00  0.00    +0.000 NA
ATOM      3  C   UNL     1       2.568   8.068  18.005  0.00  0.00    +0.000 A 
ATOM      4  C   UNL     1       2.187   7.250  19.080  0.00  0.00    +0.000 A 
ATOM      5  C   UNL     1       3.171   6.290  19.231  0.00  0.00    +0.000 A 
ENDROOT
BRANCH   5   6
ATOM      6  C   UNL     1       3.282   5.230  20.294  0.00  0.00    +0.000 C 
ATOM      7  C   UNL     1       3.870   3.929  19.731  0.00  0.00    +0.000 C 
ATOM      8  C   UNL     1       2.870   3.114  18.910  0.00  0.00    +0.000 C 
ATOM      9  C   UNL     1       1.515   2.887  19.620  0.00  0.00    +0.000 C 
ATOM     10  C   UNL     1       1.689   1.773  20.668  0.00  0.00    +0.000 C 
ATOM     11  C   UNL     1       0.478   2.429  18.576  0.00  0.00    +0.000 C 
ATOM     12  C   UNL     1       0.958   4.164  20.291  0.00  0.00    +0.000 C 
ATOM     13  C   UNL     1       1.987   4.971  21.063  0.00  0.00    +0.000 C 
ENDBRANCH   5   6
BRANCH   1  19
ATOM     14  C   UNL     1       5.619   5.150  16.756  0.00  0.00    +0.000 A 
ATOM     15  C   UNL     1       6.885   4.554  16.611  0.00  0.00    +0.000 A 
ATOM     16  C   UNL     1       7.865   4.687  17.594  0.00  0.00    +0.000 A 
ATOM     17  C   UNL     1       7.609   5.454  18.721  0.00  0.00    +0.000 A 
ATOM     18  C   UNL     1       6.369   6.077  18.868  0.00  0.00    +0.000 A 
ATOM     19  C   UNL     1       5.349   5.914  17.909  0.00  0.00    +0.000 A 
BRANCH  14  21
ATOM     20  C   UNL     1       5.216   4.423  14.546  0.00  0.00    +0.000 C 
ATOM     21  O   UNL     1       4.723   5.094  15.715  0.00  0.00    +0.000 OA
ENDBRANCH  14  21
ENDBRANCH   1  19
BRANCH   3  22
ATOM     22  C   UNL     1       1.795   9.249  17.490  0.00  0.00    +0.000 C 
ATOM     23  C   UNL     1       2.403  10.602  17.880  0.00  0.00    +0.000 C 
ATOM     24  C   UNL     1       2.076  11.008  19.314  0.00  0.00    +0.000 C 
ATOM     25  N   UNL     1       0.607  10.963  19.519  0.00  0.00    +0.000 NA
ATOM     26  C   UNL     1       0.028   9.620  19.269  0.00  0.00    +0.000 C 
ATOM     27  C   UNL     1       0.304   9.200  17.833  0.00  0.00    +0.000 C 
BRANCH  25  28
ATOM     28  S   UNL     1       0.003  11.785  20.878  0.00  0.00    +0.000 S 
ATOM     29  C   UNL     1      -0.351  10.461  22.019  0.00  0.00    +0.000 C 
ATOM     30  O   UNL     1       1.068  12.589  21.439  0.00  0.00    +0.000 OA
ATOM     31  O   UNL     1      -1.262  12.384  20.502  0.00  0.00    +0.000 OA
ENDBRANCH  25  28
ENDBRANCH   3  22
TORSDOF 5
ENDMDL
