MODEL 1
REMARK VINA RESULT:      -7.3      0.000      0.000
REMARK  Name = 
REMARK  4 active torsions:
REMARK  status: ('A' for Active; 'I' for Inactive)
REMARK    1  A    between atoms: C_4  and  N_5
REMARK    2  A    between atoms: N_5  and  S_6
REMARK    3  A    between atoms: S_6  and  C_9
REMARK    4  A    between atoms: N_15  and  C_16
REMARK                            x       y       z     vdW  Elec       q    Type
REMARK                         _______ _______ _______ _____ _____    ______ ____
ROOT
ATOM      1  O   UNL     1       1.497   4.182  18.843  0.00  0.00    +0.000 OA
ATOM      2  C   UNL     1       2.665   4.522  18.726  0.00  0.00    +0.000 C 
ATOM      3  C   UNL     1       3.793   3.524  18.692  0.00  0.00    +0.000 C 
ATOM      4  C   UNL     1       4.960   4.297  18.107  0.00  0.00    +0.000 C 
ATOM      5  C   UNL     1       4.661   5.733  18.552  0.00  0.00    +0.000 C 
ATOM      6  N   UNL     1       3.221   5.806  18.677  0.00  0.00    +0.000 N 
ENDROOT
BRANCH   6   7
ATOM      7  C   UNL     1       2.536   7.025  18.945  0.00  0.00    +0.000 A 
ATOM      8  C   UNL     1       2.344   7.996  17.953  0.00  0.00    +0.000 A 
ATOM      9  C   UNL     1       1.618   9.165  18.206  0.00  0.00    +0.000 A 
ATOM     10  C   UNL     1       1.082   9.397  19.466  0.00  0.00    +0.000 A 
ATOM     11  C   UNL     1       1.277   8.459  20.474  0.00  0.00    +0.000 A 
ATOM     12  C   UNL     1       1.990   7.283  20.214  0.00  0.00    +0.000 A 
ENDBRANCH   6   7
BRANCH   4  13
ATOM     13  N   UNL     1       5.050   4.243  16.619  0.00  0.00    +0.000 NA
ATOM     14  H   UNL     1       4.187   4.502  16.135  0.00  0.00    +0.000 HD
BRANCH  13  15
ATOM     15  S   UNL     1       6.322   5.043  15.846  0.00  0.00    +0.000 S 
ATOM     16  O   UNL     1       5.923   6.426  15.733  0.00  0.00    +0.000 OA
ATOM     17  O   UNL     1       7.554   4.656  16.502  0.00  0.00    +0.000 OA
BRANCH  15  18
ATOM     18  C   UNL     1       6.435   4.416  14.191  0.00  0.00    +0.000 A 
ATOM     19  C   UNL     1       5.640   3.549  13.466  0.00  0.00    +0.000 A 
ATOM     20  C   UNL     1       6.087   3.397  12.123  0.00  0.00    +0.000 A 
ATOM     21  C   UNL     1       7.222   4.135  11.874  0.00  0.00    +0.000 A 
ATOM     22  S   UNL     1       7.729   5.021  13.246  0.00  0.00    +0.000 S 
ENDBRANCH  15  18
ENDBRANCH  13  15
ENDBRANCH   4  13
TORSDOF 4
ENDMDL
MODEL 2
REMARK VINA RESULT:      -7.3      0.742      1.418
REMARK  Name = 
REMARK  4 active torsions:
REMARK  status: ('A' for Active; 'I' for Inactive)
REMARK    1  A    between atoms: C_4  and  N_5
REMARK    2  A    between atoms: N_5  and  S_6
REMARK    3  A    between atoms: S_6  and  C_9
REMARK    4  A    between atoms: N_15  and  C_16
REMARK                            x       y       z     vdW  Elec       q    Type
REMARK                         _______ _______ _______ _____ _____    ______ ____
ROOT
ATOM      1  O   UNL     1       1.675   4.046  18.624  0.00  0.00    +0.000 OA
ATOM      2  C   UNL     1       2.831   4.441  18.614  0.00  0.00    +0.000 C 
ATOM      3  C   UNL     1       4.004   3.496  18.619  0.00  0.00    +0.000 C 
ATOM      4  C   UNL     1       5.174   4.349  18.164  0.00  0.00    +0.000 C 
ATOM      5  C   UNL     1       4.775   5.745  18.654  0.00  0.00    +0.000 C 
ATOM      6  N   UNL     1       3.328   5.750  18.671  0.00  0.00    +0.000 N 
ENDROOT
BRANCH   6   7
ATOM      7  C   UNL     1       2.569   6.922  18.946  0.00  0.00    +0.000 A 
ATOM      8  C   UNL     1       2.058   7.186  20.224  0.00  0.00    +0.000 A 
ATOM      9  C   UNL     1       1.363   8.368  20.503  0.00  0.00    +0.000 A 
ATOM     10  C   UNL     1       1.149   9.306  19.501  0.00  0.00    +0.000 A 
ATOM     11  C   UNL     1       1.628   9.059  18.220  0.00  0.00    +0.000 A 
ATOM     12  C   UNL     1       2.336   7.881  17.947  0.00  0.00    +0.000 A 
ENDBRANCH   6   7
BRANCH   4  13
ATOM     13  N   UNL     1       5.378   4.377  16.686  0.00  0.00    +0.000 NA
ATOM     14  H   UNL     1       4.584   4.750  16.158  0.00  0.00    +0.000 HD
BRANCH  13  15
ATOM     15  S   UNL     1       6.778   5.090  16.066  0.00  0.00    +0.000 S 
ATOM     16  O   UNL     1       6.588   6.518  16.175  0.00  0.00    +0.000 OA
ATOM     17  O   UNL     1       7.917   4.425  16.662  0.00  0.00    +0.000 OA
BRANCH  15  18
ATOM     18  C   UNL     1       6.853   4.726  14.332  0.00  0.00    +0.000 A 
ATOM     19  C   UNL     1       7.746   5.089  13.341  0.00  0.00    +0.000 A 
ATOM     20  C   UNL     1       7.441   4.484  12.089  0.00  0.00    +0.000 A 
ATOM     21  C   UNL     1       6.312   3.699  12.159  0.00  0.00    +0.000 A 
ATOM     22  S   UNL     1       5.641   3.676  13.732  0.00  0.00    +0.000 S 
ENDBRANCH  15  18
ENDBRANCH  13  15
ENDBRANCH   4  13
TORSDOF 4
ENDMDL
MODEL 3
REMARK VINA RESULT:      -7.3      3.073      5.218
REMARK  Name = 
REMARK  4 active torsions:
REMARK  status: ('A' for Active; 'I' for Inactive)
REMARK    1  A    between atoms: C_4  and  N_5
REMARK    2  A    between atoms: N_5  and  S_6
REMARK    3  A    between atoms: S_6  and  C_9
REMARK    4  A    between atoms: N_15  and  C_16
REMARK                            x       y       z     vdW  Elec       q    Type
REMARK                         _______ _______ _______ _____ _____    ______ ____
ROOT
ATOM      1  O   UNL     1       5.950   7.263  17.357  0.00  0.00    +0.000 OA
ATOM      2  C   UNL     1       5.243   6.266  17.380  0.00  0.00    +0.000 C 
ATOM      3  C   UNL     1       5.666   4.966  16.748  0.00  0.00    +0.000 C 
ATOM      4  C   UNL     1       4.749   3.931  17.373  0.00  0.00    +0.000 C 
ATOM      5  C   UNL     1       3.487   4.747  17.675  0.00  0.00    +0.000 C 
ATOM      6  N   UNL     1       3.945   6.104  17.880  0.00  0.00    +0.000 N 
ENDROOT
BRANCH   6   7
ATOM      7  C   UNL     1       3.080   7.147  18.317  0.00  0.00    +0.000 A 
ATOM      8  C   UNL     1       2.746   8.224  17.483  0.00  0.00    +0.000 A 
ATOM      9  C   UNL     1       1.847   9.215  17.895  0.00  0.00    +0.000 A 
ATOM     10  C   UNL     1       1.278   9.160  19.161  0.00  0.00    +0.000 A 
ATOM     11  C   UNL     1       1.610   8.114  20.015  0.00  0.00    +0.000 A 
ATOM     12  C   UNL     1       2.497   7.115  19.594  0.00  0.00    +0.000 A 
ENDBRANCH   6   7
BRANCH   4  13
ATOM     13  N   UNL     1       5.269   3.329  18.635  0.00  0.00    +0.000 NA
ATOM     14  H   UNL     1       5.487   4.009  19.368  0.00  0.00    +0.000 HD
BRANCH  13  15
ATOM     15  S   UNL     1       4.408   2.067  19.356  0.00  0.00    +0.000 S 
ATOM     16  O   UNL     1       4.074   1.146  18.296  0.00  0.00    +0.000 OA
ATOM     17  O   UNL     1       5.141   1.643  20.531  0.00  0.00    +0.000 OA
BRANCH  15  18
ATOM     18  C   UNL     1       2.872   2.725  19.951  0.00  0.00    +0.000 A 
ATOM     19  C   UNL     1       2.568   3.614  20.964  0.00  0.00    +0.000 A 
ATOM     20  C   UNL     1       1.178   3.912  21.026  0.00  0.00    +0.000 A 
ATOM     21  C   UNL     1       0.463   3.223  20.072  0.00  0.00    +0.000 A 
ATOM     22  S   UNL     1       1.468   2.240  19.098  0.00  0.00    +0.000 S 
ENDBRANCH  15  18
ENDBRANCH  13  15
ENDBRANCH   4  13
TORSDOF 4
ENDMDL
MODEL 4
REMARK VINA RESULT:      -7.2      2.346      3.474
REMARK  Name = 
REMARK  4 active torsions:
REMARK  status: ('A' for Active; 'I' for Inactive)
REMARK    1  A    between atoms: C_4  and  N_5
REMARK    2  A    between atoms: N_5  and  S_6
REMARK    3  A    between atoms: S_6  and  C_9
REMARK    4  A    between atoms: N_15  and  C_16
REMARK                            x       y       z     vdW  Elec       q    Type
REMARK                         _______ _______ _______ _____ _____    ______ ____
ROOT
ATOM      1  O   UNL     1       2.361   8.928  17.626  0.00  0.00    +0.000 OA
ATOM      2  C   UNL     1       2.372   7.920  18.316  0.00  0.00    +0.000 C 
ATOM      3  C   UNL     1       2.827   6.586  17.785  0.00  0.00    +0.000 C 
ATOM      4  C   UNL     1       3.099   5.761  19.028  0.00  0.00    +0.000 C 
ATOM      5  C   UNL     1       2.121   6.360  20.044  0.00  0.00    +0.000 C 
ATOM      6  N   UNL     1       1.934   7.735  19.634  0.00  0.00    +0.000 N 
ENDROOT
BRANCH   6   7
ATOM      7  C   UNL     1       1.190   8.671  20.407  0.00  0.00    +0.000 A 
ATOM      8  C   UNL     1       1.130   8.588  21.805  0.00  0.00    +0.000 A 
ATOM      9  C   UNL     1       0.448   9.546  22.565  0.00  0.00    +0.000 A 
ATOM     10  C   UNL     1      -0.206  10.599  21.939  0.00  0.00    +0.000 A 
ATOM     11  C   UNL     1      -0.179  10.692  20.552  0.00  0.00    +0.000 A 
ATOM     12  C   UNL     1       0.518   9.741  19.795  0.00  0.00    +0.000 A 
ENDBRANCH   6   7
BRANCH   4  13
ATOM     13  N   UNL     1       4.493   5.873  19.549  0.00  0.00    +0.000 NA
ATOM     14  H   UNL     1       4.553   6.058  20.554  0.00  0.00    +0.000 HD
BRANCH  13  15
ATOM     15  S   UNL     1       5.603   4.650  19.192  0.00  0.00    +0.000 S 
ATOM     16  O   UNL     1       6.870   5.083  19.731  0.00  0.00    +0.000 OA
ATOM     17  O   UNL     1       5.006   3.386  19.569  0.00  0.00    +0.000 OA
BRANCH  15  18
ATOM     18  C   UNL     1       5.800   4.590  17.431  0.00  0.00    +0.000 A 
ATOM     19  C   UNL     1       5.119   3.912  16.439  0.00  0.00    +0.000 A 
ATOM     20  C   UNL     1       5.591   4.238  15.136  0.00  0.00    +0.000 A 
ATOM     21  C   UNL     1       6.633   5.137  15.178  0.00  0.00    +0.000 A 
ATOM     22  S   UNL     1       7.022   5.597  16.778  0.00  0.00    +0.000 S 
ENDBRANCH  15  18
ENDBRANCH  13  15
ENDBRANCH   4  13
TORSDOF 4
ENDMDL
MODEL 5
REMARK VINA RESULT:      -7.2      2.997      7.012
REMARK  Name = 
REMARK  4 active torsions:
REMARK  status: ('A' for Active; 'I' for Inactive)
REMARK    1  A    between atoms: C_4  and  N_5
REMARK    2  A    between atoms: N_5  and  S_6
REMARK    3  A    between atoms: S_6  and  C_9
REMARK    4  A    between atoms: N_15  and  C_16
REMARK                            x       y       z     vdW  Elec       q    Type
REMARK                         _______ _______ _______ _____ _____    ______ ____
ROOT
ATOM      1  O   UNL     1       8.091   4.704  17.080  0.00  0.00    +0.000 OA
ATOM      2  C   UNL     1       6.881   4.537  17.097  0.00  0.00    +0.000 C 
ATOM      3  C   UNL     1       6.124   4.267  18.371  0.00  0.00    +0.000 C 
ATOM      4  C   UNL     1       4.679   4.563  18.018  0.00  0.00    +0.000 C 
ATOM      5  C   UNL     1       4.632   4.239  16.520  0.00  0.00    +0.000 C 
ATOM      6  N   UNL     1       5.973   4.476  16.032  0.00  0.00    +0.000 N 
ENDROOT
BRANCH   6   7
ATOM      7  C   UNL     1       6.308   4.414  14.650  0.00  0.00    +0.000 A 
ATOM      8  C   UNL     1       7.349   5.181  14.109  0.00  0.00    +0.000 A 
ATOM      9  C   UNL     1       7.713   5.071  12.762  0.00  0.00    +0.000 A 
ATOM     10  C   UNL     1       7.029   4.202  11.921  0.00  0.00    +0.000 A 
ATOM     11  C   UNL     1       5.979   3.446  12.429  0.00  0.00    +0.000 A 
ATOM     12  C   UNL     1       5.626   3.546  13.781  0.00  0.00    +0.000 A 
ENDBRANCH   6   7
BRANCH   4  13
ATOM     13  N   UNL     1       4.269   5.981  18.236  0.00  0.00    +0.000 NA
ATOM     14  H   UNL     1       4.518   6.614  17.471  0.00  0.00    +0.000 HD
BRANCH  13  15
ATOM     15  S   UNL     1       2.670   6.315  18.668  0.00  0.00    +0.000 S 
ATOM     16  O   UNL     1       2.734   7.145  19.848  0.00  0.00    +0.000 OA
ATOM     17  O   UNL     1       1.967   6.738  17.476  0.00  0.00    +0.000 OA
BRANCH  15  18
ATOM     18  C   UNL     1       1.911   4.792  19.167  0.00  0.00    +0.000 A 
ATOM     19  C   UNL     1       1.252   3.804  18.462  0.00  0.00    +0.000 A 
ATOM     20  C   UNL     1       0.875   2.707  19.288  0.00  0.00    +0.000 A 
ATOM     21  C   UNL     1       1.237   2.906  20.601  0.00  0.00    +0.000 A 
ATOM     22  S   UNL     1       2.046   4.396  20.828  0.00  0.00    +0.000 S 
ENDBRANCH  15  18
ENDBRANCH  13  15
ENDBRANCH   4  13
TORSDOF 4
ENDMDL
MODEL 6
REMARK VINA RESULT:      -7.2      2.371      3.500
REMARK  Name = 
REMARK  4 active torsions:
REMARK  status: ('A' for Active; 'I' for Inactive)
REMARK    1  A    between atoms: C_4  and  N_5
REMARK    2  A    between atoms: N_5  and  S_6
REMARK    3  A    between atoms: S_6  and  C_9
REMARK    4  A    between atoms: N_15  and  C_16
REMARK                            x       y       z     vdW  Elec       q    Type
REMARK                         _______ _______ _______ _____ _____    ______ ____
ROOT
ATOM      1  O   UNL     1       2.213   9.161  17.823  0.00  0.00    +0.000 OA
ATOM      2  C   UNL     1       2.227   8.114  18.453  0.00  0.00    +0.000 C 
ATOM      3  C   UNL     1       2.635   6.805  17.830  0.00  0.00    +0.000 C 
ATOM      4  C   UNL     1       2.932   5.904  19.014  0.00  0.00    +0.000 C 
ATOM      5  C   UNL     1       2.002   6.462  20.096  0.00  0.00    +0.000 C 
ATOM      6  N   UNL     1       1.830   7.862  19.772  0.00  0.00    +0.000 N 
ENDROOT
BRANCH   6   7
ATOM      7  C   UNL     1       1.133   8.765  20.624  0.00  0.00    +0.000 A 
ATOM      8  C   UNL     1       0.295   9.764  20.110  0.00  0.00    +0.000 A 
ATOM      9  C   UNL     1      -0.434  10.611  20.953  0.00  0.00    +0.000 A 
ATOM     10  C   UNL     1      -0.325  10.488  22.332  0.00  0.00    +0.000 A 
ATOM     11  C   UNL     1       0.516   9.518  22.867  0.00  0.00    +0.000 A 
ATOM     12  C   UNL     1       1.232   8.662  22.021  0.00  0.00    +0.000 A 
ENDBRANCH   6   7
BRANCH   4  13
ATOM     13  N   UNL     1       4.345   5.959  19.491  0.00  0.00    +0.000 NA
ATOM     14  H   UNL     1       4.448   6.233  20.471  0.00  0.00    +0.000 HD
BRANCH  13  15
ATOM     15  S   UNL     1       5.351   4.628  19.228  0.00  0.00    +0.000 S 
ATOM     16  O   UNL     1       6.615   4.946  19.850  0.00  0.00    +0.000 OA
ATOM     17  O   UNL     1       4.609   3.434  19.578  0.00  0.00    +0.000 OA
BRANCH  15  18
ATOM     18  C   UNL     1       5.664   4.515  17.486  0.00  0.00    +0.000 A 
ATOM     19  C   UNL     1       4.839   4.271  16.405  0.00  0.00    +0.000 A 
ATOM     20  C   UNL     1       5.532   4.354  15.164  0.00  0.00    +0.000 A 
ATOM     21  C   UNL     1       6.869   4.635  15.341  0.00  0.00    +0.000 A 
ATOM     22  S   UNL     1       7.275   4.818  16.992  0.00  0.00    +0.000 S 
ENDBRANCH  15  18
ENDBRANCH  13  15
ENDBRANCH   4  13
TORSDOF 4
ENDMDL
MODEL 7
REMARK VINA RESULT:      -7.1      3.043      7.215
REMARK  Name = 
REMARK  4 active torsions:
REMARK  status: ('A' for Active; 'I' for Inactive)
REMARK    1  A    between atoms: C_4  and  N_5
REMARK    2  A    between atoms: N_5  and  S_6
REMARK    3  A    between atoms: S_6  and  C_9
REMARK    4  A    between atoms: N_15  and  C_16
REMARK                            x       y       z     vdW  Elec       q    Type
REMARK                         _______ _______ _______ _____ _____    ______ ____
ROOT
ATOM      1  O   UNL     1       8.018   4.821  17.092  0.00  0.00    +0.000 OA
ATOM      2  C   UNL     1       6.824   4.562  17.066  0.00  0.00    +0.000 C 
ATOM      3  C   UNL     1       6.047   4.228  18.312  0.00  0.00    +0.000 C 
ATOM      4  C   UNL     1       4.596   4.416  17.910  0.00  0.00    +0.000 C 
ATOM      5  C   UNL     1       4.625   4.099  16.411  0.00  0.00    +0.000 C 
ATOM      6  N   UNL     1       5.960   4.439  15.970  0.00  0.00    +0.000 N 
ENDROOT
BRANCH   6   7
ATOM      7  C   UNL     1       6.346   4.411  14.600  0.00  0.00    +0.000 A 
ATOM      8  C   UNL     1       7.372   5.228  14.107  0.00  0.00    +0.000 A 
ATOM      9  C   UNL     1       7.788   5.153  12.773  0.00  0.00    +0.000 A 
ATOM     10  C   UNL     1       7.172   4.269  11.897  0.00  0.00    +0.000 A 
ATOM     11  C   UNL     1       6.137   3.462  12.357  0.00  0.00    +0.000 A 
ATOM     12  C   UNL     1       5.733   3.528  13.696  0.00  0.00    +0.000 A 
ENDBRANCH   6   7
BRANCH   4  13
ATOM     13  N   UNL     1       4.073   5.798  18.119  0.00  0.00    +0.000 NA
ATOM     14  H   UNL     1       4.175   6.414  17.308  0.00  0.00    +0.000 HD
BRANCH  13  15
ATOM     15  S   UNL     1       2.503   5.999  18.712  0.00  0.00    +0.000 S 
ATOM     16  O   UNL     1       2.519   7.210  19.498  0.00  0.00    +0.000 OA
ATOM     17  O   UNL     1       1.585   5.819  17.607  0.00  0.00    +0.000 OA
BRANCH  15  18
ATOM     18  C   UNL     1       2.173   4.672  19.841  0.00  0.00    +0.000 A 
ATOM     19  C   UNL     1       2.451   4.500  21.183  0.00  0.00    +0.000 A 
ATOM     20  C   UNL     1       1.915   3.285  21.697  0.00  0.00    +0.000 A 
ATOM     21  C   UNL     1       1.266   2.559  20.723  0.00  0.00    +0.000 A 
ATOM     22  S   UNL     1       1.287   3.352  19.208  0.00  0.00    +0.000 S 
ENDBRANCH  15  18
ENDBRANCH  13  15
ENDBRANCH   4  13
TORSDOF 4
ENDMDL
MODEL 8
REMARK VINA RESULT:      -7.1      3.382      7.304
REMARK  Name = 
REMARK  4 active torsions:
REMARK  status: ('A' for Active; 'I' for Inactive)
REMARK    1  A    between atoms: C_4  and  N_5
REMARK    2  A    between atoms: N_5  and  S_6
REMARK    3  A    between atoms: S_6  and  C_9
REMARK    4  A    between atoms: N_15  and  C_16
REMARK                            x       y       z     vdW  Elec       q    Type
REMARK                         _______ _______ _______ _____ _____    ______ ____
ROOT
ATOM      1  O   UNL     1       7.051   6.688  16.402  0.00  0.00    +0.000 OA
ATOM      2  C   UNL     1       6.398   5.671  16.578  0.00  0.00    +0.000 C 
ATOM      3  C   UNL     1       5.941   5.235  17.946  0.00  0.00    +0.000 C 
ATOM      4  C   UNL     1       4.838   4.230  17.670  0.00  0.00    +0.000 C 
ATOM      5  C   UNL     1       5.257   3.643  16.317  0.00  0.00    +0.000 C 
ATOM      6  N   UNL     1       6.006   4.691  15.657  0.00  0.00    +0.000 N 
ENDROOT
BRANCH   6   7
ATOM      7  C   UNL     1       6.456   4.579  14.311  0.00  0.00    +0.000 A 
ATOM      8  C   UNL     1       7.513   5.360  13.822  0.00  0.00    +0.000 A 
ATOM      9  C   UNL     1       7.991   5.203  12.516  0.00  0.00    +0.000 A 
ATOM     10  C   UNL     1       7.409   4.274  11.664  0.00  0.00    +0.000 A 
ATOM     11  C   UNL     1       6.346   3.502  12.119  0.00  0.00    +0.000 A 
ATOM     12  C   UNL     1       5.879   3.649  13.431  0.00  0.00    +0.000 A 
ENDBRANCH   6   7
BRANCH   4  13
ATOM     13  N   UNL     1       3.476   4.828  17.556  0.00  0.00    +0.000 NA
ATOM     14  H   UNL     1       3.332   5.392  16.715  0.00  0.00    +0.000 HD
BRANCH  13  15
ATOM     15  S   UNL     1       2.125   3.827  17.730  0.00  0.00    +0.000 S 
ATOM     16  O   UNL     1       0.983   4.616  17.332  0.00  0.00    +0.000 OA
ATOM     17  O   UNL     1       2.430   2.557  17.105  0.00  0.00    +0.000 OA
BRANCH  15  18
ATOM     18  C   UNL     1       1.920   3.484  19.458  0.00  0.00    +0.000 A 
ATOM     19  C   UNL     1       1.327   2.437  20.136  0.00  0.00    +0.000 A 
ATOM     20  C   UNL     1       1.475   2.551  21.547  0.00  0.00    +0.000 A 
ATOM     21  C   UNL     1       2.157   3.694  21.901  0.00  0.00    +0.000 A 
ATOM     22  S   UNL     1       2.631   4.608  20.536  0.00  0.00    +0.000 S 
ENDBRANCH  15  18
ENDBRANCH  13  15
ENDBRANCH   4  13
TORSDOF 4
ENDMDL
MODEL 9
REMARK VINA RESULT:      -7.1      3.416      6.284
REMARK  Name = 
REMARK  4 active torsions:
REMARK  status: ('A' for Active; 'I' for Inactive)
REMARK    1  A    between atoms: C_4  and  N_5
REMARK    2  A    between atoms: N_5  and  S_6
REMARK    3  A    between atoms: S_6  and  C_9
REMARK    4  A    between atoms: N_15  and  C_16
REMARK                            x       y       z     vdW  Elec       q    Type
REMARK                         _______ _______ _______ _____ _____    ______ ____
ROOT
ATOM      1  O   UNL     1       7.500   4.870  15.089  0.00  0.00    +0.000 OA
ATOM      2  C   UNL     1       6.483   4.909  15.764  0.00  0.00    +0.000 C 
ATOM      3  C   UNL     1       5.220   4.195  15.358  0.00  0.00    +0.000 C 
ATOM      4  C   UNL     1       4.398   4.134  16.631  0.00  0.00    +0.000 C 
ATOM      5  C   UNL     1       4.861   5.386  17.385  0.00  0.00    +0.000 C 
ATOM      6  N   UNL     1       6.218   5.624  16.939  0.00  0.00    +0.000 N 
ENDROOT
BRANCH   6   7
ATOM      7  C   UNL     1       7.047   6.629  17.512  0.00  0.00    +0.000 A 
ATOM      8  C   UNL     1       7.120   7.920  16.971  0.00  0.00    +0.000 A 
ATOM      9  C   UNL     1       7.890   8.922  17.573  0.00  0.00    +0.000 A 
ATOM     10  C   UNL     1       8.620   8.647  18.722  0.00  0.00    +0.000 A 
ATOM     11  C   UNL     1       8.580   7.368  19.267  0.00  0.00    +0.000 A 
ATOM     12  C   UNL     1       7.797   6.372  18.672  0.00  0.00    +0.000 A 
ENDBRANCH   6   7
BRANCH   4  13
ATOM     13  N   UNL     1       4.650   2.924  17.469  0.00  0.00    +0.000 NA
ATOM     14  H   UNL     1       5.290   3.080  18.252  0.00  0.00    +0.000 HD
BRANCH  13  15
ATOM     15  S   UNL     1       3.331   2.049  18.060  0.00  0.00    +0.000 S 
ATOM     16  O   UNL     1       2.306   2.127  17.047  0.00  0.00    +0.000 OA
ATOM     17  O   UNL     1       3.825   0.779  18.550  0.00  0.00    +0.000 OA
BRANCH  15  18
ATOM     18  C   UNL     1       2.699   2.906  19.479  0.00  0.00    +0.000 A 
ATOM     19  C   UNL     1       2.923   2.757  20.834  0.00  0.00    +0.000 A 
ATOM     20  C   UNL     1       2.245   3.741  21.607  0.00  0.00    +0.000 A 
ATOM     21  C   UNL     1       1.507   4.595  20.818  0.00  0.00    +0.000 A 
ATOM     22  S   UNL     1       1.651   4.221  19.155  0.00  0.00    +0.000 S 
ENDBRANCH  15  18
ENDBRANCH  13  15
ENDBRANCH   4  13
TORSDOF 4
ENDMDL
