MODEL 1
REMARK VINA RESULT:      -9.2      0.000      0.000
REMARK  Name = 
REMARK  6 active torsions:
REMARK  status: ('A' for Active; 'I' for Inactive)
REMARK    1  A    between atoms: C_2  and  O_3
REMARK    2  A    between atoms: C_2  and  C_22
REMARK    3  A    between atoms: O_3  and  C_4
REMARK    4  A    between atoms: C_7  and  C_8
REMARK    5  A    between atoms: C_12  and  C_13
REMARK    6  A    between atoms: C_26  and  C_27
REMARK                            x       y       z     vdW  Elec       q    Type
REMARK                         _______ _______ _______ _____ _____    ______ ____
ROOT
ATOM      1  C   UNL     1       2.623   6.720  19.370  0.00  0.00    +0.000 A 
ATOM      2  C   UNL     1       2.712   7.391  18.153  0.00  0.00    +0.000 A 
ATOM      3  C   UNL     1       2.105   8.644  17.998  0.00  0.00    +0.000 A 
ATOM      4  C   UNL     1       1.379   9.250  19.043  0.00  0.00    +0.000 A 
ATOM      5  C   UNL     1       1.331   8.555  20.267  0.00  0.00    +0.000 A 
ATOM      6  C   UNL     1       1.940   7.299  20.436  0.00  0.00    +0.000 A 
ENDROOT
BRANCH   4   7
ATOM      7  C   UNL     1       0.672  10.538  18.847  0.00  0.00    +0.000 A 
ATOM      8  N   UNL     1       1.405  11.668  18.896  0.00  0.00    +0.000 NA
ATOM      9  C   UNL     1       0.753  12.818  18.657  0.00  0.00    +0.000 A 
ATOM     10  C   UNL     1      -0.587  12.883  18.372  0.00  0.00    +0.000 A 
ATOM     11  C   UNL     1      -1.274  11.682  18.343  0.00  0.00    +0.000 A 
ATOM     12  N   UNL     1      -0.647  10.502  18.578  0.00  0.00    +0.000 NA
BRANCH  11  13
ATOM     13  C   UNL     1      -2.723  11.623  18.036  0.00  0.00    +0.000 A 
ATOM     14  C   UNL     1      -3.210  11.176  16.806  0.00  0.00    +0.000 A 
ATOM     15  C   UNL     1      -4.584  11.168  16.573  0.00  0.00    +0.000 A 
ATOM     16  C   UNL     1      -5.445  11.601  17.572  0.00  0.00    +0.000 A 
ATOM     17  C   UNL     1      -4.896  12.019  18.769  0.00  0.00    +0.000 A 
ATOM     18  N   UNL     1      -3.568  12.040  19.021  0.00  0.00    +0.000 NA
ENDBRANCH  11  13
ENDBRANCH   4   7
BRANCH   1  19
ATOM     19  O   UNL     1       3.151   5.403  19.393  0.00  0.00    +0.000 OA
BRANCH  19  21
ATOM     20  O   UNL     1       2.264   4.018  17.736  0.00  0.00    +0.000 OA
ATOM     21  C   UNL     1       3.203   4.589  18.271  0.00  0.00    +0.000 C 
BRANCH  21  22
ATOM     22  C   UNL     1       4.598   4.521  17.726  0.00  0.00    +0.000 A 
ATOM     23  C   UNL     1       5.738   4.644  18.530  0.00  0.00    +0.000 A 
ATOM     24  C   UNL     1       7.009   4.691  17.948  0.00  0.00    +0.000 A 
ATOM     25  C   UNL     1       7.154   4.599  16.562  0.00  0.00    +0.000 A 
ATOM     26  C   UNL     1       6.034   4.428  15.740  0.00  0.00    +0.000 A 
ATOM     27  C   UNL     1       4.758   4.386  16.335  0.00  0.00    +0.000 A 
BRANCH  26  28
ATOM     28  C   UNL     1       6.183   4.303  14.241  0.00  0.00    +0.000 C 
ATOM     29  F   UNL     1       6.598   3.069  13.839  0.00  0.00    +0.000 F 
ATOM     30  F   UNL     1       5.017   4.537  13.579  0.00  0.00    +0.000 F 
ATOM     31  F   UNL     1       7.089   5.184  13.734  0.00  0.00    +0.000 F 
ENDBRANCH  26  28
ENDBRANCH  21  22
ENDBRANCH  19  21
ENDBRANCH   1  19
TORSDOF 6
ENDMDL
MODEL 2
REMARK VINA RESULT:      -9.1      0.555      1.086
REMARK  Name = 
REMARK  6 active torsions:
REMARK  status: ('A' for Active; 'I' for Inactive)
REMARK    1  A    between atoms: C_2  and  O_3
REMARK    2  A    between atoms: C_2  and  C_22
REMARK    3  A    between atoms: O_3  and  C_4
REMARK    4  A    between atoms: C_7  and  C_8
REMARK    5  A    between atoms: C_12  and  C_13
REMARK    6  A    between atoms: C_26  and  C_27
REMARK                            x       y       z     vdW  Elec       q    Type
REMARK                         _______ _______ _______ _____ _____    ______ ____
ROOT
ATOM      1  C   UNL     1       2.496   6.589  19.522  0.00  0.00    +0.000 A 
ATOM      2  C   UNL     1       2.574   7.205  18.276  0.00  0.00    +0.000 A 
ATOM      3  C   UNL     1       2.013   8.474  18.085  0.00  0.00    +0.000 A 
ATOM      4  C   UNL     1       1.344   9.153  19.125  0.00  0.00    +0.000 A 
ATOM      5  C   UNL     1       1.307   8.511  20.378  0.00  0.00    +0.000 A 
ATOM      6  C   UNL     1       1.870   7.239  20.582  0.00  0.00    +0.000 A 
ENDROOT
BRANCH   4   7
ATOM      7  C   UNL     1       0.683  10.459  18.896  0.00  0.00    +0.000 A 
ATOM      8  N   UNL     1       1.457  11.563  18.909  0.00  0.00    +0.000 NA
ATOM      9  C   UNL     1       0.845  12.728  18.640  0.00  0.00    +0.000 A 
ATOM     10  C   UNL     1      -0.493  12.834  18.359  0.00  0.00    +0.000 A 
ATOM     11  C   UNL     1      -1.223  11.658  18.367  0.00  0.00    +0.000 A 
ATOM     12  N   UNL     1      -0.637  10.463  18.633  0.00  0.00    +0.000 NA
BRANCH  11  13
ATOM     13  C   UNL     1      -2.674  11.643  18.068  0.00  0.00    +0.000 A 
ATOM     14  C   UNL     1      -3.637  11.996  19.017  0.00  0.00    +0.000 A 
ATOM     15  C   UNL     1      -4.988  11.937  18.679  0.00  0.00    +0.000 A 
ATOM     16  C   UNL     1      -5.352  11.534  17.402  0.00  0.00    +0.000 A 
ATOM     17  C   UNL     1      -4.347  11.211  16.509  0.00  0.00    +0.000 A 
ATOM     18  N   UNL     1      -3.031  11.255  16.811  0.00  0.00    +0.000 NA
ENDBRANCH  11  13
ENDBRANCH   4   7
BRANCH   1  19
ATOM     19  O   UNL     1       2.972   5.254  19.585  0.00  0.00    +0.000 OA
BRANCH  19  21
ATOM     20  O   UNL     1       2.272   3.811  17.888  0.00  0.00    +0.000 OA
ATOM     21  C   UNL     1       3.137   4.455  18.463  0.00  0.00    +0.000 C 
BRANCH  21  22
ATOM     22  C   UNL     1       4.553   4.509  17.974  0.00  0.00    +0.000 A 
ATOM     23  C   UNL     1       5.644   4.737  18.823  0.00  0.00    +0.000 A 
ATOM     24  C   UNL     1       6.929   4.894  18.291  0.00  0.00    +0.000 A 
ATOM     25  C   UNL     1       7.137   4.809  16.912  0.00  0.00    +0.000 A 
ATOM     26  C   UNL     1       6.070   4.535  16.048  0.00  0.00    +0.000 A 
ATOM     27  C   UNL     1       4.780   4.382  16.592  0.00  0.00    +0.000 A 
BRANCH  26  28
ATOM     28  C   UNL     1       6.290   4.417  14.558  0.00  0.00    +0.000 C 
ATOM     29  F   UNL     1       7.409   5.062  14.122  0.00  0.00    +0.000 F 
ATOM     30  F   UNL     1       6.424   3.125  14.149  0.00  0.00    +0.000 F 
ATOM     31  F   UNL     1       5.258   4.936  13.837  0.00  0.00    +0.000 F 
ENDBRANCH  26  28
ENDBRANCH  21  22
ENDBRANCH  19  21
ENDBRANCH   1  19
TORSDOF 6
ENDMDL
MODEL 3
REMARK VINA RESULT:      -9.1      1.910      2.376
REMARK  Name = 
REMARK  6 active torsions:
REMARK  status: ('A' for Active; 'I' for Inactive)
REMARK    1  A    between atoms: C_2  and  O_3
REMARK    2  A    between atoms: C_2  and  C_22
REMARK    3  A    between atoms: O_3  and  C_4
REMARK    4  A    between atoms: C_7  and  C_8
REMARK    5  A    between atoms: C_12  and  C_13
REMARK    6  A    between atoms: C_26  and  C_27
REMARK                            x       y       z     vdW  Elec       q    Type
REMARK                         _______ _______ _______ _____ _____    ______ ____
ROOT
ATOM      1  C   UNL     1       2.456   6.629  19.228  0.00  0.00    +0.000 A 
ATOM      2  C   UNL     1       2.442   7.273  17.993  0.00  0.00    +0.000 A 
ATOM      3  C   UNL     1       1.868   8.545  17.872  0.00  0.00    +0.000 A 
ATOM      4  C   UNL     1       1.277   9.199  18.973  0.00  0.00    +0.000 A 
ATOM      5  C   UNL     1       1.333   8.530  20.211  0.00  0.00    +0.000 A 
ATOM      6  C   UNL     1       1.910   7.255  20.345  0.00  0.00    +0.000 A 
ENDROOT
BRANCH   4   7
ATOM      7  C   UNL     1       0.600  10.509  18.821  0.00  0.00    +0.000 A 
ATOM      8  N   UNL     1       1.368  11.617  18.856  0.00  0.00    +0.000 NA
ATOM      9  C   UNL     1       0.740  12.787  18.657  0.00  0.00    +0.000 A 
ATOM     10  C   UNL     1      -0.607  12.895  18.426  0.00  0.00    +0.000 A 
ATOM     11  C   UNL     1      -1.329  11.714  18.408  0.00  0.00    +0.000 A 
ATOM     12  N   UNL     1      -0.728  10.514  18.604  0.00  0.00    +0.000 NA
BRANCH  11  13
ATOM     13  C   UNL     1      -2.790  11.701  18.158  0.00  0.00    +0.000 A 
ATOM     14  C   UNL     1      -3.336  11.317  16.931  0.00  0.00    +0.000 A 
ATOM     15  C   UNL     1      -4.718  11.350  16.753  0.00  0.00    +0.000 A 
ATOM     16  C   UNL     1      -5.528  11.760  17.803  0.00  0.00    +0.000 A 
ATOM     17  C   UNL     1      -4.922  12.115  18.994  0.00  0.00    +0.000 A 
ATOM     18  N   UNL     1      -3.586  12.096  19.193  0.00  0.00    +0.000 NA
ENDBRANCH  11  13
ENDBRANCH   4   7
BRANCH   1  19
ATOM     19  O   UNL     1       2.936   5.294  19.226  0.00  0.00    +0.000 OA
BRANCH  19  21
ATOM     20  O   UNL     1       2.220   3.922  17.477  0.00  0.00    +0.000 OA
ATOM     21  C   UNL     1       3.089   4.546  18.068  0.00  0.00    +0.000 C 
BRANCH  21  22
ATOM     22  C   UNL     1       4.498   4.630  17.563  0.00  0.00    +0.000 A 
ATOM     23  C   UNL     1       4.875   4.205  16.282  0.00  0.00    +0.000 A 
ATOM     24  C   UNL     1       6.224   4.200  15.911  0.00  0.00    +0.000 A 
ATOM     25  C   UNL     1       7.204   4.632  16.808  0.00  0.00    +0.000 A 
ATOM     26  C   UNL     1       6.848   5.104  18.076  0.00  0.00    +0.000 A 
ATOM     27  C   UNL     1       5.488   5.104  18.442  0.00  0.00    +0.000 A 
BRANCH  26  28
ATOM     28  C   UNL     1       7.900   5.596  19.044  0.00  0.00    +0.000 C 
ATOM     29  F   UNL     1       8.995   4.788  19.111  0.00  0.00    +0.000 F 
ATOM     30  F   UNL     1       8.370   6.833  18.721  0.00  0.00    +0.000 F 
ATOM     31  F   UNL     1       7.430   5.692  20.319  0.00  0.00    +0.000 F 
ENDBRANCH  26  28
ENDBRANCH  21  22
ENDBRANCH  19  21
ENDBRANCH   1  19
TORSDOF 6
ENDMDL
MODEL 4
REMARK VINA RESULT:      -9.0      4.764      9.903
REMARK  Name = 
REMARK  6 active torsions:
REMARK  status: ('A' for Active; 'I' for Inactive)
REMARK    1  A    between atoms: C_2  and  O_3
REMARK    2  A    between atoms: C_2  and  C_22
REMARK    3  A    between atoms: O_3  and  C_4
REMARK    4  A    between atoms: C_7  and  C_8
REMARK    5  A    between atoms: C_12  and  C_13
REMARK    6  A    between atoms: C_26  and  C_27
REMARK                            x       y       z     vdW  Elec       q    Type
REMARK                         _______ _______ _______ _____ _____    ______ ____
ROOT
ATOM      1  C   UNL     1       1.692   8.095  19.030  0.00  0.00    +0.000 A 
ATOM      2  C   UNL     1       2.270   8.369  17.793  0.00  0.00    +0.000 A 
ATOM      3  C   UNL     1       3.401   7.656  17.374  0.00  0.00    +0.000 A 
ATOM      4  C   UNL     1       3.994   6.666  18.185  0.00  0.00    +0.000 A 
ATOM      5  C   UNL     1       3.368   6.398  19.417  0.00  0.00    +0.000 A 
ATOM      6  C   UNL     1       2.231   7.104  19.846  0.00  0.00    +0.000 A 
ENDROOT
BRANCH   4   7
ATOM      7  C   UNL     1       5.237   5.972  17.771  0.00  0.00    +0.000 A 
ATOM      8  N   UNL     1       6.094   5.593  18.741  0.00  0.00    +0.000 NA
ATOM      9  C   UNL     1       7.183   4.914  18.346  0.00  0.00    +0.000 A 
ATOM     10  C   UNL     1       7.448   4.599  17.038  0.00  0.00    +0.000 A 
ATOM     11  C   UNL     1       6.523   5.025  16.099  0.00  0.00    +0.000 A 
ATOM     12  N   UNL     1       5.411   5.712  16.462  0.00  0.00    +0.000 NA
BRANCH  11  13
ATOM     13  C   UNL     1       6.693   4.736  14.656  0.00  0.00    +0.000 A 
ATOM     14  C   UNL     1       5.929   3.775  13.989  0.00  0.00    +0.000 A 
ATOM     15  C   UNL     1       6.156   3.535  12.635  0.00  0.00    +0.000 A 
ATOM     16  C   UNL     1       7.136   4.260  11.971  0.00  0.00    +0.000 A 
ATOM     17  C   UNL     1       7.846   5.204  12.689  0.00  0.00    +0.000 A 
ATOM     18  N   UNL     1       7.650   5.455  14.002  0.00  0.00    +0.000 NA
ENDBRANCH  11  13
ENDBRANCH   4   7
BRANCH   1  19
ATOM     19  O   UNL     1       0.636   8.956  19.425  0.00  0.00    +0.000 OA
BRANCH  19  21
ATOM     20  O   UNL     1       1.690  11.039  19.369  0.00  0.00    +0.000 OA
ATOM     21  C   UNL     1       0.693  10.336  19.292  0.00  0.00    +0.000 C 
BRANCH  21  22
ATOM     22  C   UNL     1      -0.660  10.897  18.975  0.00  0.00    +0.000 A 
ATOM     23  C   UNL     1      -1.368  11.723  19.857  0.00  0.00    +0.000 A 
ATOM     24  C   UNL     1      -2.676  12.119  19.555  0.00  0.00    +0.000 A 
ATOM     25  C   UNL     1      -3.280  11.708  18.365  0.00  0.00    +0.000 A 
ATOM     26  C   UNL     1      -2.576  10.922  17.445  0.00  0.00    +0.000 A 
ATOM     27  C   UNL     1      -1.262  10.525  17.759  0.00  0.00    +0.000 A 
BRANCH  26  28
ATOM     28  C   UNL     1      -3.213  10.493  16.143  0.00  0.00    +0.000 C 
ATOM     29  F   UNL     1      -3.262   9.140  15.983  0.00  0.00    +0.000 F 
ATOM     30  F   UNL     1      -4.498  10.928  16.021  0.00  0.00    +0.000 F 
ATOM     31  F   UNL     1      -2.547  10.971  15.056  0.00  0.00    +0.000 F 
ENDBRANCH  26  28
ENDBRANCH  21  22
ENDBRANCH  19  21
ENDBRANCH   1  19
TORSDOF 6
ENDMDL
MODEL 5
REMARK VINA RESULT:      -9.0      1.237      1.635
REMARK  Name = 
REMARK  6 active torsions:
REMARK  status: ('A' for Active; 'I' for Inactive)
REMARK    1  A    between atoms: C_2  and  O_3
REMARK    2  A    between atoms: C_2  and  C_22
REMARK    3  A    between atoms: O_3  and  C_4
REMARK    4  A    between atoms: C_7  and  C_8
REMARK    5  A    between atoms: C_12  and  C_13
REMARK    6  A    between atoms: C_26  and  C_27
REMARK                            x       y       z     vdW  Elec       q    Type
REMARK                         _______ _______ _______ _____ _____    ______ ____
ROOT
ATOM      1  C   UNL     1       3.397   6.194  18.747  0.00  0.00    +0.000 A 
ATOM      2  C   UNL     1       3.335   7.191  17.777  0.00  0.00    +0.000 A 
ATOM      3  C   UNL     1       2.530   8.319  17.982  0.00  0.00    +0.000 A 
ATOM      4  C   UNL     1       1.753   8.473  19.149  0.00  0.00    +0.000 A 
ATOM      5  C   UNL     1       1.861   7.459  20.120  0.00  0.00    +0.000 A 
ATOM      6  C   UNL     1       2.668   6.324  19.927  0.00  0.00    +0.000 A 
ENDROOT
BRANCH   4   7
ATOM      7  C   UNL     1       0.843   9.629  19.324  0.00  0.00    +0.000 A 
ATOM      8  N   UNL     1       1.181  10.559  20.240  0.00  0.00    +0.000 NA
ATOM      9  C   UNL     1       0.372  11.626  20.339  0.00  0.00    +0.000 A 
ATOM     10  C   UNL     1      -0.748  11.802  19.567  0.00  0.00    +0.000 A 
ATOM     11  C   UNL     1      -1.032  10.804  18.651  0.00  0.00    +0.000 A 
ATOM     12  N   UNL     1      -0.236   9.713  18.523  0.00  0.00    +0.000 NA
BRANCH  11  13
ATOM     13  C   UNL     1      -2.208  10.886  17.753  0.00  0.00    +0.000 A 
ATOM     14  C   UNL     1      -2.215  10.324  16.474  0.00  0.00    +0.000 A 
ATOM     15  C   UNL     1      -3.346  10.458  15.671  0.00  0.00    +0.000 A 
ATOM     16  C   UNL     1      -4.450  11.144  16.160  0.00  0.00    +0.000 A 
ATOM     17  C   UNL     1      -4.379  11.664  17.439  0.00  0.00    +0.000 A 
ATOM     18  N   UNL     1      -3.295  11.553  18.238  0.00  0.00    +0.000 NA
ENDBRANCH  11  13
ENDBRANCH   4   7
BRANCH   1  19
ATOM     19  O   UNL     1       4.130   5.031  18.396  0.00  0.00    +0.000 OA
BRANCH  19  21
ATOM     20  O   UNL     1       2.892   3.731  16.902  0.00  0.00    +0.000 OA
ATOM     21  C   UNL     1       3.911   4.325  17.222  0.00  0.00    +0.000 C 
BRANCH  21  22
ATOM     22  C   UNL     1       5.103   4.414  16.317  0.00  0.00    +0.000 A 
ATOM     23  C   UNL     1       6.318   4.990  16.711  0.00  0.00    +0.000 A 
ATOM     24  C   UNL     1       7.354   5.150  15.785  0.00  0.00    +0.000 A 
ATOM     25  C   UNL     1       7.193   4.722  14.465  0.00  0.00    +0.000 A 
ATOM     26  C   UNL     1       6.006   4.101  14.059  0.00  0.00    +0.000 A 
ATOM     27  C   UNL     1       4.967   3.948  14.997  0.00  0.00    +0.000 A 
BRANCH  26  28
ATOM     28  C   UNL     1       5.832   3.614  12.639  0.00  0.00    +0.000 C 
ATOM     29  F   UNL     1       6.681   4.209  11.754  0.00  0.00    +0.000 F 
ATOM     30  F   UNL     1       6.046   2.275  12.516  0.00  0.00    +0.000 F 
ATOM     31  F   UNL     1       4.578   3.841  12.161  0.00  0.00    +0.000 F 
ENDBRANCH  26  28
ENDBRANCH  21  22
ENDBRANCH  19  21
ENDBRANCH   1  19
TORSDOF 6
ENDMDL
MODEL 6
REMARK VINA RESULT:      -8.9      1.745      3.927
REMARK  Name = 
REMARK  6 active torsions:
REMARK  status: ('A' for Active; 'I' for Inactive)
REMARK    1  A    between atoms: C_2  and  O_3
REMARK    2  A    between atoms: C_2  and  C_22
REMARK    3  A    between atoms: O_3  and  C_4
REMARK    4  A    between atoms: C_7  and  C_8
REMARK    5  A    between atoms: C_12  and  C_13
REMARK    6  A    between atoms: C_26  and  C_27
REMARK                            x       y       z     vdW  Elec       q    Type
REMARK                         _______ _______ _______ _____ _____    ______ ____
ROOT
ATOM      1  C   UNL     1       2.379   7.102  19.444  0.00  0.00    +0.000 A 
ATOM      2  C   UNL     1       1.699   7.762  20.463  0.00  0.00    +0.000 A 
ATOM      3  C   UNL     1       1.123   9.016  20.223  0.00  0.00    +0.000 A 
ATOM      4  C   UNL     1       1.226   9.652  18.969  0.00  0.00    +0.000 A 
ATOM      5  C   UNL     1       1.899   8.944  17.954  0.00  0.00    +0.000 A 
ATOM      6  C   UNL     1       2.477   7.683  18.182  0.00  0.00    +0.000 A 
ENDROOT
BRANCH   4   7
ATOM      7  C   UNL     1       0.684  11.013  18.745  0.00  0.00    +0.000 A 
ATOM      8  N   UNL     1      -0.655  11.148  18.668  0.00  0.00    +0.000 NA
ATOM      9  C   UNL     1      -1.124  12.398  18.524  0.00  0.00    +0.000 A 
ATOM     10  C   UNL     1      -0.319  13.507  18.457  0.00  0.00    +0.000 A 
ATOM     11  C   UNL     1       1.045  13.288  18.540  0.00  0.00    +0.000 A 
ATOM     12  N   UNL     1       1.554  12.039  18.687  0.00  0.00    +0.000 NA
BRANCH  11  13
ATOM     13  C   UNL     1       2.015  14.407  18.490  0.00  0.00    +0.000 A 
ATOM     14  C   UNL     1       1.633  15.738  18.678  0.00  0.00    +0.000 A 
ATOM     15  C   UNL     1       2.592  16.746  18.594  0.00  0.00    +0.000 A 
ATOM     16  C   UNL     1       3.912  16.408  18.330  0.00  0.00    +0.000 A 
ATOM     17  C   UNL     1       4.222  15.071  18.168  0.00  0.00    +0.000 A 
ATOM     18  N   UNL     1       3.313  14.074  18.240  0.00  0.00    +0.000 NA
ENDBRANCH  11  13
ENDBRANCH   4   7
BRANCH   1  19
ATOM     19  O   UNL     1       3.042   5.904  19.814  0.00  0.00    +0.000 OA
BRANCH  19  21
ATOM     20  O   UNL     1       2.442   4.016  18.577  0.00  0.00    +0.000 OA
ATOM     21  C   UNL     1       3.258   4.854  18.933  0.00  0.00    +0.000 C 
BRANCH  21  22
ATOM     22  C   UNL     1       4.657   4.888  18.397  0.00  0.00    +0.000 A 
ATOM     23  C   UNL     1       5.771   5.193  19.190  0.00  0.00    +0.000 A 
ATOM     24  C   UNL     1       7.036   5.324  18.606  0.00  0.00    +0.000 A 
ATOM     25  C   UNL     1       7.202   5.137  17.232  0.00  0.00    +0.000 A 
ATOM     26  C   UNL     1       6.113   4.785  16.426  0.00  0.00    +0.000 A 
ATOM     27  C   UNL     1       4.843   4.659  17.021  0.00  0.00    +0.000 A 
BRANCH  26  28
ATOM     28  C   UNL     1       6.288   4.557  14.942  0.00  0.00    +0.000 C 
ATOM     29  F   UNL     1       6.313   3.239  14.596  0.00  0.00    +0.000 F 
ATOM     30  F   UNL     1       5.288   5.115  14.206  0.00  0.00    +0.000 F 
ATOM     31  F   UNL     1       7.448   5.088  14.467  0.00  0.00    +0.000 F 
ENDBRANCH  26  28
ENDBRANCH  21  22
ENDBRANCH  19  21
ENDBRANCH   1  19
TORSDOF 6
ENDMDL
MODEL 7
REMARK VINA RESULT:      -8.9      3.302      4.358
REMARK  Name = 
REMARK  6 active torsions:
REMARK  status: ('A' for Active; 'I' for Inactive)
REMARK    1  A    between atoms: C_2  and  O_3
REMARK    2  A    between atoms: C_2  and  C_22
REMARK    3  A    between atoms: O_3  and  C_4
REMARK    4  A    between atoms: C_7  and  C_8
REMARK    5  A    between atoms: C_12  and  C_13
REMARK    6  A    between atoms: C_26  and  C_27
REMARK                            x       y       z     vdW  Elec       q    Type
REMARK                         _______ _______ _______ _____ _____    ______ ____
ROOT
ATOM      1  C   UNL     1       3.154   7.174  18.410  0.00  0.00    +0.000 A 
ATOM      2  C   UNL     1       2.525   7.141  19.652  0.00  0.00    +0.000 A 
ATOM      3  C   UNL     1       1.608   8.141  20.000  0.00  0.00    +0.000 A 
ATOM      4  C   UNL     1       1.309   9.208  19.129  0.00  0.00    +0.000 A 
ATOM      5  C   UNL     1       1.943   9.195  17.872  0.00  0.00    +0.000 A 
ATOM      6  C   UNL     1       2.862   8.195  17.509  0.00  0.00    +0.000 A 
ENDROOT
BRANCH   4   7
ATOM      7  C   UNL     1       0.400  10.306  19.535  0.00  0.00    +0.000 A 
ATOM      8  N   UNL     1       0.831  11.154  20.490  0.00  0.00    +0.000 NA
ATOM      9  C   UNL     1       0.014  12.175  20.799  0.00  0.00    +0.000 A 
ATOM     10  C   UNL     1      -1.201  12.382  20.197  0.00  0.00    +0.000 A 
ATOM     11  C   UNL     1      -1.577  11.467  19.229  0.00  0.00    +0.000 A 
ATOM     12  N   UNL     1      -0.776  10.425  18.891  0.00  0.00    +0.000 NA
BRANCH  11  13
ATOM     13  C   UNL     1      -2.862  11.590  18.502  0.00  0.00    +0.000 A 
ATOM     14  C   UNL     1      -4.045  11.983  19.133  0.00  0.00    +0.000 A 
ATOM     15  C   UNL     1      -5.226  12.055  18.396  0.00  0.00    +0.000 A 
ATOM     16  C   UNL     1      -5.203  11.740  17.045  0.00  0.00    +0.000 A 
ATOM     17  C   UNL     1      -3.996  11.370  16.482  0.00  0.00    +0.000 A 
ATOM     18  N   UNL     1      -2.838  11.288  17.172  0.00  0.00    +0.000 NA
ENDBRANCH  11  13
ENDBRANCH   4   7
BRANCH   1  19
ATOM     19  O   UNL     1       4.162   6.199  18.198  0.00  0.00    +0.000 OA
BRANCH  19  21
ATOM     20  O   UNL     1       4.536   4.694  16.453  0.00  0.00    +0.000 OA
ATOM     21  C   UNL     1       3.952   5.038  17.469  0.00  0.00    +0.000 C 
BRANCH  21  22
ATOM     22  C   UNL     1       2.911   4.179  18.124  0.00  0.00    +0.000 A 
ATOM     23  C   UNL     1       1.778   3.707  17.449  0.00  0.00    +0.000 A 
ATOM     24  C   UNL     1       0.785   3.009  18.145  0.00  0.00    +0.000 A 
ATOM     25  C   UNL     1       0.921   2.764  19.512  0.00  0.00    +0.000 A 
ATOM     26  C   UNL     1       2.066   3.185  20.199  0.00  0.00    +0.000 A 
ATOM     27  C   UNL     1       3.059   3.889  19.492  0.00  0.00    +0.000 A 
BRANCH  26  28
ATOM     28  C   UNL     1       2.233   2.903  21.675  0.00  0.00    +0.000 C 
ATOM     29  F   UNL     1       3.295   2.096  21.955  0.00  0.00    +0.000 F 
ATOM     30  F   UNL     1       2.424   4.035  22.405  0.00  0.00    +0.000 F 
ATOM     31  F   UNL     1       1.145   2.285  22.213  0.00  0.00    +0.000 F 
ENDBRANCH  26  28
ENDBRANCH  21  22
ENDBRANCH  19  21
ENDBRANCH   1  19
TORSDOF 6
ENDMDL
MODEL 8
REMARK VINA RESULT:      -8.9      2.049      2.509
REMARK  Name = 
REMARK  6 active torsions:
REMARK  status: ('A' for Active; 'I' for Inactive)
REMARK    1  A    between atoms: C_2  and  O_3
REMARK    2  A    between atoms: C_2  and  C_22
REMARK    3  A    between atoms: O_3  and  C_4
REMARK    4  A    between atoms: C_7  and  C_8
REMARK    5  A    between atoms: C_12  and  C_13
REMARK    6  A    between atoms: C_26  and  C_27
REMARK                            x       y       z     vdW  Elec       q    Type
REMARK                         _______ _______ _______ _____ _____    ______ ____
ROOT
ATOM      1  C   UNL     1       2.554   5.779  19.112  0.00  0.00    +0.000 A 
ATOM      2  C   UNL     1       2.654   6.595  17.989  0.00  0.00    +0.000 A 
ATOM      3  C   UNL     1       2.275   7.941  18.064  0.00  0.00    +0.000 A 
ATOM      4  C   UNL     1       1.769   8.503  19.255  0.00  0.00    +0.000 A 
ATOM      5  C   UNL     1       1.707   7.656  20.378  0.00  0.00    +0.000 A 
ATOM      6  C   UNL     1       2.088   6.304  20.315  0.00  0.00    +0.000 A 
ENDROOT
BRANCH   4   7
ATOM      7  C   UNL     1       1.295   9.906  19.306  0.00  0.00    +0.000 A 
ATOM      8  N   UNL     1       1.840  10.783  18.440  0.00  0.00    +0.000 NA
ATOM      9  C   UNL     1       1.352  12.034  18.466  0.00  0.00    +0.000 A 
ATOM     10  C   UNL     1       0.351  12.440  19.311  0.00  0.00    +0.000 A 
ATOM     11  C   UNL     1      -0.156  11.484  20.174  0.00  0.00    +0.000 A 
ATOM     12  N   UNL     1       0.312  10.211  20.174  0.00  0.00    +0.000 NA
BRANCH  11  13
ATOM     13  C   UNL     1      -1.247  11.799  21.127  0.00  0.00    +0.000 A 
ATOM     14  C   UNL     1      -2.375  12.535  20.757  0.00  0.00    +0.000 A 
ATOM     15  C   UNL     1      -3.354  12.818  21.708  0.00  0.00    +0.000 A 
ATOM     16  C   UNL     1      -3.191  12.357  23.008  0.00  0.00    +0.000 A 
ATOM     17  C   UNL     1      -2.056  11.625  23.302  0.00  0.00    +0.000 A 
ATOM     18  N   UNL     1      -1.090  11.340  22.401  0.00  0.00    +0.000 NA
ENDBRANCH  11  13
ENDBRANCH   4   7
BRANCH   1  19
ATOM     19  O   UNL     1       2.832   4.403  18.907  0.00  0.00    +0.000 OA
BRANCH  19  21
ATOM     20  O   UNL     1       4.166   2.873  20.062  0.00  0.00    +0.000 OA
ATOM     21  C   UNL     1       4.027   3.808  19.286  0.00  0.00    +0.000 C 
BRANCH  21  22
ATOM     22  C   UNL     1       5.185   4.431  18.567  0.00  0.00    +0.000 A 
ATOM     23  C   UNL     1       6.129   5.246  19.205  0.00  0.00    +0.000 A 
ATOM     24  C   UNL     1       7.119   5.893  18.457  0.00  0.00    +0.000 A 
ATOM     25  C   UNL     1       7.184   5.721  17.073  0.00  0.00    +0.000 A 
ATOM     26  C   UNL     1       6.281   4.875  16.419  0.00  0.00    +0.000 A 
ATOM     27  C   UNL     1       5.286   4.229  17.179  0.00  0.00    +0.000 A 
BRANCH  26  28
ATOM     28  C   UNL     1       6.359   4.663  14.925  0.00  0.00    +0.000 C 
ATOM     29  F   UNL     1       7.513   5.132  14.371  0.00  0.00    +0.000 F 
ATOM     30  F   UNL     1       6.289   3.348  14.579  0.00  0.00    +0.000 F 
ATOM     31  F   UNL     1       5.347   5.284  14.257  0.00  0.00    +0.000 F 
ENDBRANCH  26  28
ENDBRANCH  21  22
ENDBRANCH  19  21
ENDBRANCH   1  19
TORSDOF 6
ENDMDL
MODEL 9
REMARK VINA RESULT:      -8.8      4.601      9.734
REMARK  Name = 
REMARK  6 active torsions:
REMARK  status: ('A' for Active; 'I' for Inactive)
REMARK    1  A    between atoms: C_2  and  O_3
REMARK    2  A    between atoms: C_2  and  C_22
REMARK    3  A    between atoms: O_3  and  C_4
REMARK    4  A    between atoms: C_7  and  C_8
REMARK    5  A    between atoms: C_12  and  C_13
REMARK    6  A    between atoms: C_26  and  C_27
REMARK                            x       y       z     vdW  Elec       q    Type
REMARK                         _______ _______ _______ _____ _____    ______ ____
ROOT
ATOM      1  C   UNL     1       0.810  10.179  20.356  0.00  0.00    +0.000 A 
ATOM      2  C   UNL     1       1.315   9.774  19.123  0.00  0.00    +0.000 A 
ATOM      3  C   UNL     1       1.820   8.477  18.964  0.00  0.00    +0.000 A 
ATOM      4  C   UNL     1       1.851   7.558  20.033  0.00  0.00    +0.000 A 
ATOM      5  C   UNL     1       1.308   7.992  21.257  0.00  0.00    +0.000 A 
ATOM      6  C   UNL     1       0.796   9.290  21.428  0.00  0.00    +0.000 A 
ENDROOT
BRANCH   4   7
ATOM      7  C   UNL     1       2.459   6.215  19.880  0.00  0.00    +0.000 A 
ATOM      8  N   UNL     1       1.938   5.206  20.606  0.00  0.00    +0.000 NA
ATOM      9  C   UNL     1       2.467   3.987  20.407  0.00  0.00    +0.000 A 
ATOM     10  C   UNL     1       3.482   3.738  19.518  0.00  0.00    +0.000 A 
ATOM     11  C   UNL     1       3.967   4.825  18.811  0.00  0.00    +0.000 A 
ATOM     12  N   UNL     1       3.456   6.069  18.987  0.00  0.00    +0.000 NA
BRANCH  11  13
ATOM     13  C   UNL     1       5.056   4.680  17.816  0.00  0.00    +0.000 A 
ATOM     14  C   UNL     1       6.406   4.730  18.171  0.00  0.00    +0.000 A 
ATOM     15  C   UNL     1       7.381   4.611  17.181  0.00  0.00    +0.000 A 
ATOM     16  C   UNL     1       6.991   4.439  15.860  0.00  0.00    +0.000 A 
ATOM     17  C   UNL     1       5.638   4.387  15.582  0.00  0.00    +0.000 A 
ATOM     18  N   UNL     1       4.672   4.503  16.519  0.00  0.00    +0.000 NA
ENDBRANCH  11  13
ENDBRANCH   4   7
BRANCH   1  19
ATOM     19  O   UNL     1       0.446  11.546  20.459  0.00  0.00    +0.000 OA
BRANCH  19  21
ATOM     20  O   UNL     1       0.864  12.998  18.679  0.00  0.00    +0.000 OA
ATOM     21  C   UNL     1       0.107  12.324  19.361  0.00  0.00    +0.000 C 
BRANCH  21  22
ATOM     22  C   UNL     1      -1.355  12.203  19.054  0.00  0.00    +0.000 A 
ATOM     23  C   UNL     1      -2.357  12.593  19.951  0.00  0.00    +0.000 A 
ATOM     24  C   UNL     1      -3.702  12.347  19.655  0.00  0.00    +0.000 A 
ATOM     25  C   UNL     1      -4.058  11.726  18.456  0.00  0.00    +0.000 A 
ATOM     26  C   UNL     1      -3.078  11.369  17.522  0.00  0.00    +0.000 A 
ATOM     27  C   UNL     1      -1.727  11.618  17.830  0.00  0.00    +0.000 A 
BRANCH  26  28
ATOM     28  C   UNL     1      -3.456  10.719  16.211  0.00  0.00    +0.000 C 
ATOM     29  F   UNL     1      -2.803  11.246  15.137  0.00  0.00    +0.000 F 
ATOM     30  F   UNL     1      -3.186   9.385  16.192  0.00  0.00    +0.000 F 
ATOM     31  F   UNL     1      -4.784  10.840  15.934  0.00  0.00    +0.000 F 
ENDBRANCH  26  28
ENDBRANCH  21  22
ENDBRANCH  19  21
ENDBRANCH   1  19
TORSDOF 6
ENDMDL
