MODEL 1
REMARK VINA RESULT:      -7.5      0.000      0.000
REMARK  Name = 
REMARK  10 active torsions:
REMARK  status: ('A' for Active; 'I' for Inactive)
REMARK    1  A    between atoms: C_1  and  N_2
REMARK    2  A    between atoms: C_6  and  C_7
REMARK    3  A    between atoms: N_9  and  C_10
REMARK    4  A    between atoms: C_10  and  C_11
REMARK    5  A    between atoms: C_10  and  C_12
REMARK    6  A    between atoms: C_10  and  C_13
REMARK    7  A    between atoms: C_16  and  C_17
REMARK    8  A    between atoms: C_17  and  C_18
REMARK    9  A    between atoms: C_17  and  C_19
REMARK   10  A    between atoms: C_17  and  C_20
REMARK                            x       y       z     vdW  Elec       q    Type
REMARK                         _______ _______ _______ _____ _____    ______ ____
ROOT
ATOM      1  C   UNL     1       5.600   6.050  17.361  0.00  0.00    +0.000 C 
ATOM      2  C   UNL     1       7.003   6.422  17.870  0.00  0.00    +0.000 C 
ATOM      3  C   UNL     1       4.660   7.269  17.370  0.00  0.00    +0.000 C 
ENDROOT
BRANCH   1   4
ATOM      4  C   UNL     1       5.013   4.975  18.280  0.00  0.00    +0.000 A 
ATOM      5  N   UNL     1       5.769   4.059  18.906  0.00  0.00    +0.000 NA
ATOM      6  O   UNL     1       4.842   3.297  19.614  0.00  0.00    +0.000 OA
ATOM      7  C   UNL     1       3.614   3.828  19.345  0.00  0.00    +0.000 A 
ATOM      8  N   UNL     1       3.663   4.866  18.533  0.00  0.00    +0.000 NA
BRANCH   7   9
ATOM      9  C   UNL     1       2.423   3.166  19.979  0.00  0.00    +0.000 C 
ATOM     10  C   UNL     1       1.945   1.982  19.121  0.00  0.00    +0.000 C 
ATOM     11  C   UNL     1       2.817   2.647  21.373  0.00  0.00    +0.000 C 
ATOM     12  C   UNL     1       1.273   4.175  20.133  0.00  0.00    +0.000 C 
ENDBRANCH   7   9
ENDBRANCH   1   4
BRANCH   1  15
ATOM     13  C   UNL     1       6.772   4.790  15.488  0.00  0.00    +0.000 C 
ATOM     14  O   UNL     1       7.779   4.575  16.151  0.00  0.00    +0.000 OA
ATOM     15  N   UNL     1       5.687   5.486  15.994  0.00  0.00    +0.000 N 
ATOM     16  H   UNL     1       4.875   5.642  15.418  0.00  0.00    +0.000 HD
BRANCH  13  22
ATOM     17  C   UNL     1       8.441   5.751  13.005  0.00  0.00    +0.000 C 
ATOM     18  N   UNL     1       7.389   4.755  13.044  0.00  0.00    +0.000 N 
ATOM     19  N   UNL     1       7.062   4.150  11.881  0.00  0.00    +0.000 NA
ATOM     20  C   UNL     1       6.068   3.333  12.211  0.00  0.00    +0.000 A 
ATOM     21  C   UNL     1       5.759   3.399  13.576  0.00  0.00    +0.000 A 
ATOM     22  C   UNL     1       6.632   4.328  14.121  0.00  0.00    +0.000 A 
ENDBRANCH  13  22
ENDBRANCH   1  15
TORSDOF 4
ENDMDL
MODEL 2
REMARK VINA RESULT:      -7.5      0.802      1.145
REMARK  Name = 
REMARK  10 active torsions:
REMARK  status: ('A' for Active; 'I' for Inactive)
REMARK    1  A    between atoms: C_1  and  N_2
REMARK    2  A    between atoms: C_6  and  C_7
REMARK    3  A    between atoms: N_9  and  C_10
REMARK    4  A    between atoms: C_10  and  C_11
REMARK    5  A    between atoms: C_10  and  C_12
REMARK    6  A    between atoms: C_10  and  C_13
REMARK    7  A    between atoms: C_16  and  C_17
REMARK    8  A    between atoms: C_17  and  C_18
REMARK    9  A    between atoms: C_17  and  C_19
REMARK   10  A    between atoms: C_17  and  C_20
REMARK                            x       y       z     vdW  Elec       q    Type
REMARK                         _______ _______ _______ _____ _____    ______ ____
ROOT
ATOM      1  C   UNL     1       5.942   5.257  17.894  0.00  0.00    +0.000 C 
ATOM      2  C   UNL     1       7.361   5.145  18.477  0.00  0.00    +0.000 C 
ATOM      3  C   UNL     1       5.433   6.708  17.933  0.00  0.00    +0.000 C 
ENDROOT
BRANCH   1   4
ATOM      4  C   UNL     1       4.999   4.387  18.730  0.00  0.00    +0.000 A 
ATOM      5  N   UNL     1       5.407   3.285  19.379  0.00  0.00    +0.000 NA
ATOM      6  O   UNL     1       4.246   2.815  19.990  0.00  0.00    +0.000 OA
ATOM      7  C   UNL     1       3.247   3.682  19.649  0.00  0.00    +0.000 A 
ATOM      8  N   UNL     1       3.658   4.670  18.878  0.00  0.00    +0.000 NA
BRANCH   7   9
ATOM      9  C   UNL     1       1.869   3.384  20.169  0.00  0.00    +0.000 C 
ATOM     10  C   UNL     1       1.945   2.473  21.405  0.00  0.00    +0.000 C 
ATOM     11  C   UNL     1       1.182   4.704  20.561  0.00  0.00    +0.000 C 
ATOM     12  C   UNL     1       1.029   2.693  19.082  0.00  0.00    +0.000 C 
ENDBRANCH   7   9
ENDBRANCH   1   4
BRANCH   1  15
ATOM     13  C   UNL     1       6.761   5.174  15.488  0.00  0.00    +0.000 C 
ATOM     14  O   UNL     1       7.618   6.031  15.662  0.00  0.00    +0.000 OA
ATOM     15  N   UNL     1       5.921   4.748  16.502  0.00  0.00    +0.000 N 
ATOM     16  H   UNL     1       5.229   4.039  16.320  0.00  0.00    +0.000 HD
BRANCH  13  22
ATOM     17  C   UNL     1       8.448   5.637  12.876  0.00  0.00    +0.000 C 
ATOM     18  N   UNL     1       7.326   4.740  13.069  0.00  0.00    +0.000 N 
ATOM     19  N   UNL     1       6.932   4.000  12.010  0.00  0.00    +0.000 NA
ATOM     20  C   UNL     1       5.887   3.317  12.463  0.00  0.00    +0.000 A 
ATOM     21  C   UNL     1       5.611   3.603  13.807  0.00  0.00    +0.000 A 
ATOM     22  C   UNL     1       6.561   4.531  14.203  0.00  0.00    +0.000 A 
ENDBRANCH  13  22
ENDBRANCH   1  15
TORSDOF 4
ENDMDL
MODEL 3
REMARK VINA RESULT:      -7.3      1.145      1.330
REMARK  Name = 
REMARK  10 active torsions:
REMARK  status: ('A' for Active; 'I' for Inactive)
REMARK    1  A    between atoms: C_1  and  N_2
REMARK    2  A    between atoms: C_6  and  C_7
REMARK    3  A    between atoms: N_9  and  C_10
REMARK    4  A    between atoms: C_10  and  C_11
REMARK    5  A    between atoms: C_10  and  C_12
REMARK    6  A    between atoms: C_10  and  C_13
REMARK    7  A    between atoms: C_16  and  C_17
REMARK    8  A    between atoms: C_17  and  C_18
REMARK    9  A    between atoms: C_17  and  C_19
REMARK   10  A    between atoms: C_17  and  C_20
REMARK                            x       y       z     vdW  Elec       q    Type
REMARK                         _______ _______ _______ _____ _____    ______ ____
ROOT
ATOM      1  C   UNL     1       6.595   5.240  17.569  0.00  0.00    +0.000 C 
ATOM      2  C   UNL     1       7.907   4.929  18.311  0.00  0.00    +0.000 C 
ATOM      3  C   UNL     1       6.330   6.755  17.512  0.00  0.00    +0.000 C 
ENDROOT
BRANCH   1   4
ATOM      4  C   UNL     1       5.439   4.570  18.316  0.00  0.00    +0.000 A 
ATOM      5  N   UNL     1       5.624   3.749  19.361  0.00  0.00    +0.000 NA
ATOM      6  O   UNL     1       4.330   3.374  19.718  0.00  0.00    +0.000 OA
ATOM      7  C   UNL     1       3.487   4.007  18.850  0.00  0.00    +0.000 A 
ATOM      8  N   UNL     1       4.118   4.760  17.969  0.00  0.00    +0.000 NA
BRANCH   7   9
ATOM      9  C   UNL     1       2.015   3.750  19.008  0.00  0.00    +0.000 C 
ATOM     10  C   UNL     1       1.253   4.185  17.746  0.00  0.00    +0.000 C 
ATOM     11  C   UNL     1       1.788   2.245  19.236  0.00  0.00    +0.000 C 
ATOM     12  C   UNL     1       1.468   4.522  20.221  0.00  0.00    +0.000 C 
ENDBRANCH   7   9
ENDBRANCH   1   4
BRANCH   1  15
ATOM     13  C   UNL     1       6.042   5.249  15.086  0.00  0.00    +0.000 C 
ATOM     14  O   UNL     1       5.406   6.293  15.147  0.00  0.00    +0.000 OA
ATOM     15  N   UNL     1       6.641   4.680  16.198  0.00  0.00    +0.000 N 
ATOM     16  H   UNL     1       7.157   3.820  16.108  0.00  0.00    +0.000 HD
BRANCH  13  22
ATOM     17  C   UNL     1       8.323   5.693  12.971  0.00  0.00    +0.000 C 
ATOM     18  N   UNL     1       7.244   4.727  12.933  0.00  0.00    +0.000 N 
ATOM     19  N   UNL     1       7.184   3.904  11.863  0.00  0.00    +0.000 NA
ATOM     20  C   UNL     1       6.098   3.171  12.080  0.00  0.00    +0.000 A 
ATOM     21  C   UNL     1       5.463   3.508  13.283  0.00  0.00    +0.000 A 
ATOM     22  C   UNL     1       6.222   4.524  13.843  0.00  0.00    +0.000 A 
ENDBRANCH  13  22
ENDBRANCH   1  15
TORSDOF 4
ENDMDL
MODEL 4
REMARK VINA RESULT:      -7.3      3.225      4.626
REMARK  Name = 
REMARK  10 active torsions:
REMARK  status: ('A' for Active; 'I' for Inactive)
REMARK    1  A    between atoms: C_1  and  N_2
REMARK    2  A    between atoms: C_6  and  C_7
REMARK    3  A    between atoms: N_9  and  C_10
REMARK    4  A    between atoms: C_10  and  C_11
REMARK    5  A    between atoms: C_10  and  C_12
REMARK    6  A    between atoms: C_10  and  C_13
REMARK    7  A    between atoms: C_16  and  C_17
REMARK    8  A    between atoms: C_17  and  C_18
REMARK    9  A    between atoms: C_17  and  C_19
REMARK   10  A    between atoms: C_17  and  C_20
REMARK                            x       y       z     vdW  Elec       q    Type
REMARK                         _______ _______ _______ _____ _____    ______ ____
ROOT
ATOM      1  C   UNL     1       2.814   4.982  18.786  0.00  0.00    +0.000 C 
ATOM      2  C   UNL     1       1.613   4.215  18.207  0.00  0.00    +0.000 C 
ATOM      3  C   UNL     1       3.348   4.308  20.062  0.00  0.00    +0.000 C 
ENDROOT
BRANCH   1   4
ATOM      4  C   UNL     1       2.366   6.403  19.137  0.00  0.00    +0.000 A 
ATOM      5  N   UNL     1       2.565   7.452  18.323  0.00  0.00    +0.000 NA
ATOM      6  O   UNL     1       2.016   8.523  19.027  0.00  0.00    +0.000 OA
ATOM      7  C   UNL     1       1.538   8.014  20.201  0.00  0.00    +0.000 A 
ATOM      8  N   UNL     1       1.724   6.713  20.317  0.00  0.00    +0.000 NA
BRANCH   7   9
ATOM      9  C   UNL     1       0.908   8.979  21.164  0.00  0.00    +0.000 C 
ATOM     10  C   UNL     1       1.791   9.152  22.410  0.00  0.00    +0.000 C 
ATOM     11  C   UNL     1       0.742  10.345  20.474  0.00  0.00    +0.000 C 
ATOM     12  C   UNL     1      -0.479   8.471  21.593  0.00  0.00    +0.000 C 
ENDBRANCH   7   9
ENDBRANCH   1   4
BRANCH   1  15
ATOM     13  C   UNL     1       4.504   3.999  17.158  0.00  0.00    +0.000 C 
ATOM     14  O   UNL     1       4.193   2.841  17.406  0.00  0.00    +0.000 OA
ATOM     15  N   UNL     1       3.893   5.078  17.774  0.00  0.00    +0.000 N 
ATOM     16  H   UNL     1       4.175   6.018  17.542  0.00  0.00    +0.000 HD
BRANCH  13  22
ATOM     17  C   UNL     1       7.505   4.689  17.787  0.00  0.00    +0.000 C 
ATOM     18  N   UNL     1       6.855   4.621  16.494  0.00  0.00    +0.000 N 
ATOM     19  N   UNL     1       7.609   4.886  15.404  0.00  0.00    +0.000 NA
ATOM     20  C   UNL     1       6.758   4.785  14.390  0.00  0.00    +0.000 A 
ATOM     21  C   UNL     1       5.465   4.449  14.815  0.00  0.00    +0.000 A 
ATOM     22  C   UNL     1       5.535   4.334  16.195  0.00  0.00    +0.000 A 
ENDBRANCH  13  22
ENDBRANCH   1  15
TORSDOF 4
ENDMDL
MODEL 5
REMARK VINA RESULT:      -7.2      3.634      5.101
REMARK  Name = 
REMARK  10 active torsions:
REMARK  status: ('A' for Active; 'I' for Inactive)
REMARK    1  A    between atoms: C_1  and  N_2
REMARK    2  A    between atoms: C_6  and  C_7
REMARK    3  A    between atoms: N_9  and  C_10
REMARK    4  A    between atoms: C_10  and  C_11
REMARK    5  A    between atoms: C_10  and  C_12
REMARK    6  A    between atoms: C_10  and  C_13
REMARK    7  A    between atoms: C_16  and  C_17
REMARK    8  A    between atoms: C_17  and  C_18
REMARK    9  A    between atoms: C_17  and  C_19
REMARK   10  A    between atoms: C_17  and  C_20
REMARK                            x       y       z     vdW  Elec       q    Type
REMARK                         _______ _______ _______ _____ _____    ______ ____
ROOT
ATOM      1  C   UNL     1       2.884   5.962  18.351  0.00  0.00    +0.000 C 
ATOM      2  C   UNL     1       1.709   5.037  17.991  0.00  0.00    +0.000 C 
ATOM      3  C   UNL     1       3.382   5.703  19.784  0.00  0.00    +0.000 C 
ENDROOT
BRANCH   1   4
ATOM      4  C   UNL     1       2.412   7.416  18.254  0.00  0.00    +0.000 A 
ATOM      5  N   UNL     1       2.704   8.209  17.212  0.00  0.00    +0.000 NA
ATOM      6  O   UNL     1       2.093   9.418  17.538  0.00  0.00    +0.000 OA
ATOM      7  C   UNL     1       1.491   9.236  18.750  0.00  0.00    +0.000 A 
ATOM      8  N   UNL     1       1.653   8.020  19.233  0.00  0.00    +0.000 NA
BRANCH   7   9
ATOM      9  C   UNL     1       0.770  10.413  19.344  0.00  0.00    +0.000 C 
ATOM     10  C   UNL     1       1.439  11.729  18.914  0.00  0.00    +0.000 C 
ATOM     11  C   UNL     1      -0.689  10.410  18.856  0.00  0.00    +0.000 C 
ATOM     12  C   UNL     1       0.778  10.320  20.880  0.00  0.00    +0.000 C 
ENDBRANCH   7   9
ENDBRANCH   1   4
BRANCH   1  15
ATOM     13  C   UNL     1       4.501   4.551  16.986  0.00  0.00    +0.000 C 
ATOM     14  O   UNL     1       4.062   3.489  17.409  0.00  0.00    +0.000 OA
ATOM     15  N   UNL     1       3.993   5.775  17.386  0.00  0.00    +0.000 N 
ATOM     16  H   UNL     1       4.381   6.628  17.015  0.00  0.00    +0.000 HD
BRANCH  13  22
ATOM     17  C   UNL     1       7.573   4.668  17.639  0.00  0.00    +0.000 C 
ATOM     18  N   UNL     1       6.936   4.647  16.339  0.00  0.00    +0.000 N 
ATOM     19  N   UNL     1       7.738   4.686  15.252  0.00  0.00    +0.000 NA
ATOM     20  C   UNL     1       6.894   4.692  14.227  0.00  0.00    +0.000 A 
ATOM     21  C   UNL     1       5.556   4.647  14.642  0.00  0.00    +0.000 A 
ATOM     22  C   UNL     1       5.588   4.611  16.028  0.00  0.00    +0.000 A 
ENDBRANCH  13  22
ENDBRANCH   1  15
TORSDOF 4
ENDMDL
MODEL 6
REMARK VINA RESULT:      -7.2      1.763      6.605
REMARK  Name = 
REMARK  10 active torsions:
REMARK  status: ('A' for Active; 'I' for Inactive)
REMARK    1  A    between atoms: C_1  and  N_2
REMARK    2  A    between atoms: C_6  and  C_7
REMARK    3  A    between atoms: N_9  and  C_10
REMARK    4  A    between atoms: C_10  and  C_11
REMARK    5  A    between atoms: C_10  and  C_12
REMARK    6  A    between atoms: C_10  and  C_13
REMARK    7  A    between atoms: C_16  and  C_17
REMARK    8  A    between atoms: C_17  and  C_18
REMARK    9  A    between atoms: C_17  and  C_19
REMARK   10  A    between atoms: C_17  and  C_20
REMARK                            x       y       z     vdW  Elec       q    Type
REMARK                         _______ _______ _______ _____ _____    ______ ____
ROOT
ATOM      1  C   UNL     1       6.403   5.193  16.911  0.00  0.00    +0.000 C 
ATOM      2  C   UNL     1       6.179   6.697  17.144  0.00  0.00    +0.000 C 
ATOM      3  C   UNL     1       7.602   4.673  17.722  0.00  0.00    +0.000 C 
ENDROOT
BRANCH   1   4
ATOM      4  C   UNL     1       6.683   4.963  15.424  0.00  0.00    +0.000 A 
ATOM      5  N   UNL     1       7.692   5.561  14.771  0.00  0.00    +0.000 NA
ATOM      6  O   UNL     1       7.573   5.079  13.469  0.00  0.00    +0.000 OA
ATOM      7  C   UNL     1       6.499   4.236  13.462  0.00  0.00    +0.000 A 
ATOM      8  N   UNL     1       5.918   4.125  14.641  0.00  0.00    +0.000 NA
BRANCH   7   9
ATOM      9  C   UNL     1       6.137   3.592  12.154  0.00  0.00    +0.000 C 
ATOM     10  C   UNL     1       4.626   3.705  11.897  0.00  0.00    +0.000 C 
ATOM     11  C   UNL     1       6.893   4.301  11.017  0.00  0.00    +0.000 C 
ATOM     12  C   UNL     1       6.539   2.107  12.164  0.00  0.00    +0.000 C 
ENDBRANCH   7   9
ENDBRANCH   1   4
BRANCH   1  15
ATOM     13  C   UNL     1       4.421   4.643  18.408  0.00  0.00    +0.000 C 
ATOM     14  O   UNL     1       4.705   5.498  19.238  0.00  0.00    +0.000 OA
ATOM     15  N   UNL     1       5.180   4.435  17.270  0.00  0.00    +0.000 N 
ATOM     16  H   UNL     1       4.914   3.722  16.609  0.00  0.00    +0.000 HD
BRANCH  13  22
ATOM     17  C   UNL     1       4.267   1.959  20.035  0.00  0.00    +0.000 C 
ATOM     18  N   UNL     1       3.214   2.611  19.284  0.00  0.00    +0.000 N 
ATOM     19  N   UNL     1       2.004   2.009  19.260  0.00  0.00    +0.000 NA
ATOM     20  C   UNL     1       1.267   2.796  18.484  0.00  0.00    +0.000 A 
ATOM     21  C   UNL     1       1.989   3.904  18.017  0.00  0.00    +0.000 A 
ATOM     22  C   UNL     1       3.263   3.782  18.550  0.00  0.00    +0.000 A 
ENDBRANCH  13  22
ENDBRANCH   1  15
TORSDOF 4
ENDMDL
MODEL 7
REMARK VINA RESULT:      -7.1      1.717      6.539
REMARK  Name = 
REMARK  10 active torsions:
REMARK  status: ('A' for Active; 'I' for Inactive)
REMARK    1  A    between atoms: C_1  and  N_2
REMARK    2  A    between atoms: C_6  and  C_7
REMARK    3  A    between atoms: N_9  and  C_10
REMARK    4  A    between atoms: C_10  and  C_11
REMARK    5  A    between atoms: C_10  and  C_12
REMARK    6  A    between atoms: C_10  and  C_13
REMARK    7  A    between atoms: C_16  and  C_17
REMARK    8  A    between atoms: C_17  and  C_18
REMARK    9  A    between atoms: C_17  and  C_19
REMARK   10  A    between atoms: C_17  and  C_20
REMARK                            x       y       z     vdW  Elec       q    Type
REMARK                         _______ _______ _______ _____ _____    ______ ____
ROOT
ATOM      1  C   UNL     1       6.580   5.030  16.849  0.00  0.00    +0.000 C 
ATOM      2  C   UNL     1       6.437   6.527  17.174  0.00  0.00    +0.000 C 
ATOM      3  C   UNL     1       7.764   4.404  17.606  0.00  0.00    +0.000 C 
ENDROOT
BRANCH   1   4
ATOM      4  C   UNL     1       6.825   4.876  15.346  0.00  0.00    +0.000 A 
ATOM      5  N   UNL     1       7.770   5.565  14.687  0.00  0.00    +0.000 NA
ATOM      6  O   UNL     1       7.639   5.125  13.371  0.00  0.00    +0.000 OA
ATOM      7  C   UNL     1       6.625   4.211  13.364  0.00  0.00    +0.000 A 
ATOM      8  N   UNL     1       6.092   4.017  14.555  0.00  0.00    +0.000 NA
BRANCH   7   9
ATOM      9  C   UNL     1       6.263   3.593  12.043  0.00  0.00    +0.000 C 
ATOM     10  C   UNL     1       6.823   2.164  11.945  0.00  0.00    +0.000 C 
ATOM     11  C   UNL     1       4.731   3.541  11.913  0.00  0.00    +0.000 C 
ATOM     12  C   UNL     1       6.830   4.438  10.889  0.00  0.00    +0.000 C 
ENDBRANCH   7   9
ENDBRANCH   1   4
BRANCH   1  15
ATOM     13  C   UNL     1       4.894   4.026  18.469  0.00  0.00    +0.000 C 
ATOM     14  O   UNL     1       5.532   4.350  19.463  0.00  0.00    +0.000 OA
ATOM     15  N   UNL     1       5.326   4.314  17.185  0.00  0.00    +0.000 N 
ATOM     16  H   UNL     1       4.773   4.033  16.391  0.00  0.00    +0.000 HD
BRANCH  13  22
ATOM     17  C   UNL     1       2.022   5.277  18.221  0.00  0.00    +0.000 C 
ATOM     18  N   UNL     1       2.377   3.888  18.429  0.00  0.00    +0.000 N 
ATOM     19  N   UNL     1       1.367   2.998  18.538  0.00  0.00    +0.000 NA
ATOM     20  C   UNL     1       1.979   1.839  18.755  0.00  0.00    +0.000 A 
ATOM     21  C   UNL     1       3.375   1.974  18.777  0.00  0.00    +0.000 A 
ATOM     22  C   UNL     1       3.632   3.318  18.556  0.00  0.00    +0.000 A 
ENDBRANCH  13  22
ENDBRANCH   1  15
TORSDOF 4
ENDMDL
MODEL 8
REMARK VINA RESULT:      -7.1      1.277      1.451
REMARK  Name = 
REMARK  10 active torsions:
REMARK  status: ('A' for Active; 'I' for Inactive)
REMARK    1  A    between atoms: C_1  and  N_2
REMARK    2  A    between atoms: C_6  and  C_7
REMARK    3  A    between atoms: N_9  and  C_10
REMARK    4  A    between atoms: C_10  and  C_11
REMARK    5  A    between atoms: C_10  and  C_12
REMARK    6  A    between atoms: C_10  and  C_13
REMARK    7  A    between atoms: C_16  and  C_17
REMARK    8  A    between atoms: C_17  and  C_18
REMARK    9  A    between atoms: C_17  and  C_19
REMARK   10  A    between atoms: C_17  and  C_20
REMARK                            x       y       z     vdW  Elec       q    Type
REMARK                         _______ _______ _______ _____ _____    ______ ____
ROOT
ATOM      1  C   UNL     1       6.787   5.474  17.498  0.00  0.00    +0.000 C 
ATOM      2  C   UNL     1       7.822   4.779  18.400  0.00  0.00    +0.000 C 
ATOM      3  C   UNL     1       7.059   6.984  17.393  0.00  0.00    +0.000 C 
ENDROOT
BRANCH   1   4
ATOM      4  C   UNL     1       5.395   5.269  18.100  0.00  0.00    +0.000 A 
ATOM      5  N   UNL     1       4.576   6.287  18.407  0.00  0.00    +0.000 NA
ATOM      6  O   UNL     1       3.445   5.656  18.921  0.00  0.00    +0.000 OA
ATOM      7  C   UNL     1       3.693   4.314  18.876  0.00  0.00    +0.000 A 
ATOM      8  N   UNL     1       4.877   4.021  18.374  0.00  0.00    +0.000 NA
BRANCH   7   9
ATOM      9  C   UNL     1       2.624   3.398  19.401  0.00  0.00    +0.000 C 
ATOM     10  C   UNL     1       2.160   2.425  18.304  0.00  0.00    +0.000 C 
ATOM     11  C   UNL     1       3.188   2.590  20.582  0.00  0.00    +0.000 C 
ATOM     12  C   UNL     1       1.418   4.217  19.893  0.00  0.00    +0.000 C 
ENDBRANCH   7   9
ENDBRANCH   1   4
BRANCH   1  15
ATOM     13  C   UNL     1       6.072   5.320  15.061  0.00  0.00    +0.000 C 
ATOM     14  O   UNL     1       5.340   6.299  15.127  0.00  0.00    +0.000 OA
ATOM     15  N   UNL     1       6.798   4.862  16.147  0.00  0.00    +0.000 N 
ATOM     16  H   UNL     1       7.391   4.052  16.053  0.00  0.00    +0.000 HD
BRANCH  13  22
ATOM     17  C   UNL     1       8.338   5.705  12.917  0.00  0.00    +0.000 C 
ATOM     18  N   UNL     1       7.257   4.740  12.912  0.00  0.00    +0.000 N 
ATOM     19  N   UNL     1       7.187   3.889  11.865  0.00  0.00    +0.000 NA
ATOM     20  C   UNL     1       6.102   3.164  12.109  0.00  0.00    +0.000 A 
ATOM     21  C   UNL     1       5.477   3.534  13.308  0.00  0.00    +0.000 A 
ATOM     22  C   UNL     1       6.242   4.563  13.836  0.00  0.00    +0.000 A 
ENDBRANCH  13  22
ENDBRANCH   1  15
TORSDOF 4
ENDMDL
MODEL 9
REMARK VINA RESULT:      -7.1      1.725      6.567
REMARK  Name = 
REMARK  10 active torsions:
REMARK  status: ('A' for Active; 'I' for Inactive)
REMARK    1  A    between atoms: C_1  and  N_2
REMARK    2  A    between atoms: C_6  and  C_7
REMARK    3  A    between atoms: N_9  and  C_10
REMARK    4  A    between atoms: C_10  and  C_11
REMARK    5  A    between atoms: C_10  and  C_12
REMARK    6  A    between atoms: C_10  and  C_13
REMARK    7  A    between atoms: C_16  and  C_17
REMARK    8  A    between atoms: C_17  and  C_18
REMARK    9  A    between atoms: C_17  and  C_19
REMARK   10  A    between atoms: C_17  and  C_20
REMARK                            x       y       z     vdW  Elec       q    Type
REMARK                         _______ _______ _______ _____ _____    ______ ____
ROOT
ATOM      1  C   UNL     1       6.561   4.971  16.906  0.00  0.00    +0.000 C 
ATOM      2  C   UNL     1       6.316   6.452  17.241  0.00  0.00    +0.000 C 
ATOM      3  C   UNL     1       7.812   4.433  17.622  0.00  0.00    +0.000 C 
ENDROOT
BRANCH   1   4
ATOM      4  C   UNL     1       6.769   4.837  15.395  0.00  0.00    +0.000 A 
ATOM      5  N   UNL     1       7.669   5.564  14.715  0.00  0.00    +0.000 NA
ATOM      6  O   UNL     1       7.517   5.131  13.400  0.00  0.00    +0.000 OA
ATOM      7  C   UNL     1       6.535   4.182  13.413  0.00  0.00    +0.000 A 
ATOM      8  N   UNL     1       6.044   3.959  14.617  0.00  0.00    +0.000 NA
BRANCH   7   9
ATOM      9  C   UNL     1       6.159   3.562  12.097  0.00  0.00    +0.000 C 
ATOM     10  C   UNL     1       4.644   3.676  11.862  0.00  0.00    +0.000 C 
ATOM     11  C   UNL     1       6.899   4.295  10.965  0.00  0.00    +0.000 C 
ATOM     12  C   UNL     1       6.563   2.078  12.074  0.00  0.00    +0.000 C 
ENDBRANCH   7   9
ENDBRANCH   1   4
BRANCH   1  15
ATOM     13  C   UNL     1       4.731   4.214  18.503  0.00  0.00    +0.000 C 
ATOM     14  O   UNL     1       5.097   4.956  19.405  0.00  0.00    +0.000 OA
ATOM     15  N   UNL     1       5.376   4.162  17.279  0.00  0.00    +0.000 N 
ATOM     16  H   UNL     1       5.044   3.539  16.559  0.00  0.00    +0.000 HD
BRANCH  13  22
ATOM     17  C   UNL     1       1.732   4.919  17.877  0.00  0.00    +0.000 C 
ATOM     18  N   UNL     1       2.276   3.660  18.346  0.00  0.00    +0.000 N 
ATOM     19  N   UNL     1       1.408   2.646  18.552  0.00  0.00    +0.000 NA
ATOM     20  C   UNL     1       2.169   1.656  19.004  0.00  0.00    +0.000 A 
ATOM     21  C   UNL     1       3.520   2.020  19.081  0.00  0.00    +0.000 A 
ATOM     22  C   UNL     1       3.588   3.333  18.642  0.00  0.00    +0.000 A 
ENDBRANCH  13  22
ENDBRANCH   1  15
TORSDOF 4
ENDMDL
