MODEL 1
REMARK VINA RESULT:      -8.0      0.000      0.000
REMARK  Name = 
REMARK  8 active torsions:
REMARK  status: ('A' for Active; 'I' for Inactive)
REMARK    1  A    between atoms: C_1  and  C_2
REMARK    2  A    between atoms: C_5  and  N_6
REMARK    3  A    between atoms: C_7  and  C_9
REMARK    4  A    between atoms: C_9  and  O_10
REMARK    5  A    between atoms: O_10  and  C_11
REMARK    6  A    between atoms: C_11  and  C_13
REMARK    7  A    between atoms: C_19  and  S_20
REMARK    8  A    between atoms: S_20  and  N_23
REMARK                            x       y       z     vdW  Elec       q    Type
REMARK                         _______ _______ _______ _____ _____    ______ ____
ROOT
ATOM      1  C   UNL     1       2.952   2.896  20.713  0.00  0.00    +0.000 C 
ATOM      2  C   UNL     1       2.628   4.281  20.232  0.00  0.00    +0.000 A 
ATOM      3  C   UNL     1       1.543   4.929  20.833  0.00  0.00    +0.000 A 
ATOM      4  C   UNL     1       1.291   6.279  20.600  0.00  0.00    +0.000 A 
ATOM      5  C   UNL     1       2.122   7.032  19.771  0.00  0.00    +0.000 A 
ATOM      6  C   UNL     1       3.167   6.377  19.097  0.00  0.00    +0.000 A 
ATOM      7  C   UNL     1       3.411   5.004  19.315  0.00  0.00    +0.000 A 
ENDROOT
BRANCH   5   8
ATOM      8  N   UNL     1       1.984   8.432  19.635  0.00  0.00    +0.000 N 
ATOM      9  C   UNL     1       1.778   9.113  18.443  0.00  0.00    +0.000 C 
ATOM     10  O   UNL     1       1.858   8.643  17.310  0.00  0.00    +0.000 OA
ATOM     11  H   UNL     1       2.085   8.982  20.480  0.00  0.00    +0.000 HD
BRANCH   9  12
ATOM     12  C   UNL     1       1.414  10.595  18.633  0.00  0.00    +0.000 C 
BRANCH  12  13
ATOM     13  O   UNL     1       0.116  10.739  19.201  0.00  0.00    +0.000 OA
BRANCH  13  14
ATOM     14  C   UNL     1      -0.632  11.709  18.598  0.00  0.00    +0.000 C 
ATOM     15  O   UNL     1      -0.371  12.906  18.649  0.00  0.00    +0.000 OA
BRANCH  14  16
ATOM     16  C   UNL     1      -1.756  11.124  17.904  0.00  0.00    +0.000 A 
ATOM     17  C   UNL     1      -1.834   9.991  17.113  0.00  0.00    +0.000 A 
ATOM     18  C   UNL     1      -3.184   9.874  16.702  0.00  0.00    +0.000 A 
ATOM     19  C   UNL     1      -3.851  10.926  17.277  0.00  0.00    +0.000 A 
ATOM     20  O   UNL     1      -2.996  11.692  17.999  0.00  0.00    +0.000 OA
ENDBRANCH  14  16
ENDBRANCH  13  14
ENDBRANCH  12  13
ENDBRANCH   9  12
ENDBRANCH   5   8
BRANCH   7  21
ATOM     21  S   UNL     1       4.669   4.179  18.325  0.00  0.00    +0.000 S 
ATOM     22  O   UNL     1       5.816   3.986  19.184  0.00  0.00    +0.000 OA
ATOM     23  O   UNL     1       4.043   3.058  17.655  0.00  0.00    +0.000 OA
BRANCH  21  24
ATOM     24  N   UNL     1       5.039   5.330  17.148  0.00  0.00    +0.000 NA
ATOM     25  C   UNL     1       5.276   4.853  15.763  0.00  0.00    +0.000 C 
ATOM     26  C   UNL     1       6.773   4.624  15.534  0.00  0.00    +0.000 C 
ATOM     27  O   UNL     1       7.496   5.849  15.729  0.00  0.00    +0.000 OA
ATOM     28  C   UNL     1       7.359   6.315  17.079  0.00  0.00    +0.000 C 
ATOM     29  C   UNL     1       5.894   6.497  17.500  0.00  0.00    +0.000 C 
ENDBRANCH  21  24
ENDBRANCH   7  21
TORSDOF 7
ENDMDL
MODEL 2
REMARK VINA RESULT:      -7.8      1.908      2.376
REMARK  Name = 
REMARK  8 active torsions:
REMARK  status: ('A' for Active; 'I' for Inactive)
REMARK    1  A    between atoms: C_1  and  C_2
REMARK    2  A    between atoms: C_5  and  N_6
REMARK    3  A    between atoms: C_7  and  C_9
REMARK    4  A    between atoms: C_9  and  O_10
REMARK    5  A    between atoms: O_10  and  C_11
REMARK    6  A    between atoms: C_11  and  C_13
REMARK    7  A    between atoms: C_19  and  S_20
REMARK    8  A    between atoms: S_20  and  N_23
REMARK                            x       y       z     vdW  Elec       q    Type
REMARK                         _______ _______ _______ _____ _____    ______ ____
ROOT
ATOM      1  C   UNL     1       2.832   2.559  20.342  0.00  0.00    +0.000 C 
ATOM      2  C   UNL     1       2.540   3.993  20.004  0.00  0.00    +0.000 A 
ATOM      3  C   UNL     1       1.400   4.567  20.580  0.00  0.00    +0.000 A 
ATOM      4  C   UNL     1       1.158   5.935  20.489  0.00  0.00    +0.000 A 
ATOM      5  C   UNL     1       2.053   6.781  19.834  0.00  0.00    +0.000 A 
ATOM      6  C   UNL     1       3.160   6.210  19.182  0.00  0.00    +0.000 A 
ATOM      7  C   UNL     1       3.395   4.820  19.254  0.00  0.00    +0.000 A 
ENDROOT
BRANCH   5   8
ATOM      8  N   UNL     1       1.916   8.188  19.855  0.00  0.00    +0.000 N 
ATOM      9  C   UNL     1       1.522   8.979  18.785  0.00  0.00    +0.000 C 
ATOM     10  O   UNL     1       1.402   8.618  17.615  0.00  0.00    +0.000 OA
ATOM     11  H   UNL     1       2.166   8.654  20.719  0.00  0.00    +0.000 HD
BRANCH   9  12
ATOM     12  C   UNL     1       1.218  10.435  19.172  0.00  0.00    +0.000 C 
BRANCH  12  13
ATOM     13  O   UNL     1       0.109  10.512  20.063  0.00  0.00    +0.000 OA
BRANCH  13  14
ATOM     14  C   UNL     1       0.323  11.350  21.120  0.00  0.00    +0.000 C 
ATOM     15  O   UNL     1       1.432  11.736  21.473  0.00  0.00    +0.000 OA
BRANCH  14  16
ATOM     16  C   UNL     1      -0.929  11.706  21.745  0.00  0.00    +0.000 A 
ATOM     17  C   UNL     1      -1.363  11.540  23.048  0.00  0.00    +0.000 A 
ATOM     18  C   UNL     1      -2.668  12.087  23.115  0.00  0.00    +0.000 A 
ATOM     19  C   UNL     1      -2.946  12.567  21.860  0.00  0.00    +0.000 A 
ATOM     20  O   UNL     1      -1.905  12.335  21.022  0.00  0.00    +0.000 OA
ENDBRANCH  14  16
ENDBRANCH  13  14
ENDBRANCH  12  13
ENDBRANCH   9  12
ENDBRANCH   5   8
BRANCH   7  21
ATOM     21  S   UNL     1       4.744   4.117  18.288  0.00  0.00    +0.000 S 
ATOM     22  O   UNL     1       5.853   3.930  19.196  0.00  0.00    +0.000 OA
ATOM     23  O   UNL     1       4.212   3.009  17.524  0.00  0.00    +0.000 OA
BRANCH  21  24
ATOM     24  N   UNL     1       5.113   5.353  17.200  0.00  0.00    +0.000 NA
ATOM     25  C   UNL     1       5.300   4.987  15.774  0.00  0.00    +0.000 C 
ATOM     26  C   UNL     1       6.784   4.741  15.485  0.00  0.00    +0.000 C 
ATOM     27  O   UNL     1       7.544   5.927  15.759  0.00  0.00    +0.000 OA
ATOM     28  C   UNL     1       7.455   6.283  17.146  0.00  0.00    +0.000 C 
ATOM     29  C   UNL     1       6.008   6.465  17.623  0.00  0.00    +0.000 C 
ENDBRANCH  21  24
ENDBRANCH   7  21
TORSDOF 7
ENDMDL
MODEL 3
REMARK VINA RESULT:      -7.8      1.546      1.923
REMARK  Name = 
REMARK  8 active torsions:
REMARK  status: ('A' for Active; 'I' for Inactive)
REMARK    1  A    between atoms: C_1  and  C_2
REMARK    2  A    between atoms: C_5  and  N_6
REMARK    3  A    between atoms: C_7  and  C_9
REMARK    4  A    between atoms: C_9  and  O_10
REMARK    5  A    between atoms: O_10  and  C_11
REMARK    6  A    between atoms: C_11  and  C_13
REMARK    7  A    between atoms: C_19  and  S_20
REMARK    8  A    between atoms: S_20  and  N_23
REMARK                            x       y       z     vdW  Elec       q    Type
REMARK                         _______ _______ _______ _____ _____    ______ ____
ROOT
ATOM      1  C   UNL     1       2.374   1.714  19.053  0.00  0.00    +0.000 C 
ATOM      2  C   UNL     1       2.166   3.161  19.399  0.00  0.00    +0.000 A 
ATOM      3  C   UNL     1       0.949   3.507  19.996  0.00  0.00    +0.000 A 
ATOM      4  C   UNL     1       0.744   4.775  20.533  0.00  0.00    +0.000 A 
ATOM      5  C   UNL     1       1.755   5.737  20.508  0.00  0.00    +0.000 A 
ATOM      6  C   UNL     1       2.954   5.432  19.842  0.00  0.00    +0.000 A 
ATOM      7  C   UNL     1       3.155   4.154  19.277  0.00  0.00    +0.000 A 
ENDROOT
BRANCH   5   8
ATOM      8  N   UNL     1       1.633   6.977  21.177  0.00  0.00    +0.000 N 
ATOM      9  C   UNL     1       1.528   8.219  20.567  0.00  0.00    +0.000 C 
ATOM     10  O   UNL     1       1.698   8.463  19.374  0.00  0.00    +0.000 OA
ATOM     11  H   UNL     1       1.667   6.950  22.189  0.00  0.00    +0.000 HD
BRANCH   9  12
ATOM     12  C   UNL     1       1.155   9.353  21.535  0.00  0.00    +0.000 C 
BRANCH  12  13
ATOM     13  O   UNL     1       0.860  10.557  20.831  0.00  0.00    +0.000 OA
BRANCH  13  14
ATOM     14  C   UNL     1      -0.424  10.985  21.010  0.00  0.00    +0.000 C 
ATOM     15  O   UNL     1      -0.910  11.252  22.103  0.00  0.00    +0.000 OA
BRANCH  14  16
ATOM     16  C   UNL     1      -1.109  11.074  19.742  0.00  0.00    +0.000 A 
ATOM     17  C   UNL     1      -1.883  12.089  19.206  0.00  0.00    +0.000 A 
ATOM     18  C   UNL     1      -2.291  11.654  17.922  0.00  0.00    +0.000 A 
ATOM     19  C   UNL     1      -1.732  10.414  17.742  0.00  0.00    +0.000 A 
ATOM     20  O   UNL     1      -1.021  10.051  18.839  0.00  0.00    +0.000 OA
ENDBRANCH  14  16
ENDBRANCH  13  14
ENDBRANCH  12  13
ENDBRANCH   9  12
ENDBRANCH   5   8
BRANCH   7  21
ATOM     21  S   UNL     1       4.647   3.856  18.314  0.00  0.00    +0.000 S 
ATOM     22  O   UNL     1       5.609   3.254  19.210  0.00  0.00    +0.000 OA
ATOM     23  O   UNL     1       4.259   3.196  17.086  0.00  0.00    +0.000 OA
BRANCH  21  24
ATOM     24  N   UNL     1       5.156   5.414  17.913  0.00  0.00    +0.000 NA
ATOM     25  C   UNL     1       5.049   5.834  16.494  0.00  0.00    +0.000 C 
ATOM     26  C   UNL     1       6.372   5.574  15.767  0.00  0.00    +0.000 C 
ATOM     27  O   UNL     1       7.431   6.317  16.388  0.00  0.00    +0.000 OA
ATOM     28  C   UNL     1       7.625   5.896  17.746  0.00  0.00    +0.000 C 
ATOM     29  C   UNL     1       6.346   5.999  18.589  0.00  0.00    +0.000 C 
ENDBRANCH  21  24
ENDBRANCH   7  21
TORSDOF 7
ENDMDL
MODEL 4
REMARK VINA RESULT:      -7.7      1.000      1.163
REMARK  Name = 
REMARK  8 active torsions:
REMARK  status: ('A' for Active; 'I' for Inactive)
REMARK    1  A    between atoms: C_1  and  C_2
REMARK    2  A    between atoms: C_5  and  N_6
REMARK    3  A    between atoms: C_7  and  C_9
REMARK    4  A    between atoms: C_9  and  O_10
REMARK    5  A    between atoms: O_10  and  C_11
REMARK    6  A    between atoms: C_11  and  C_13
REMARK    7  A    between atoms: C_19  and  S_20
REMARK    8  A    between atoms: S_20  and  N_23
REMARK                            x       y       z     vdW  Elec       q    Type
REMARK                         _______ _______ _______ _____ _____    ______ ____
ROOT
ATOM      1  C   UNL     1       3.465   2.658  20.751  0.00  0.00    +0.000 C 
ATOM      2  C   UNL     1       2.932   3.991  20.309  0.00  0.00    +0.000 A 
ATOM      3  C   UNL     1       1.844   4.512  21.017  0.00  0.00    +0.000 A 
ATOM      4  C   UNL     1       1.411   5.820  20.814  0.00  0.00    +0.000 A 
ATOM      5  C   UNL     1       2.062   6.658  19.909  0.00  0.00    +0.000 A 
ATOM      6  C   UNL     1       3.105   6.126  19.132  0.00  0.00    +0.000 A 
ATOM      7  C   UNL     1       3.530   4.793  19.321  0.00  0.00    +0.000 A 
ENDROOT
BRANCH   5   8
ATOM      8  N   UNL     1       1.746   8.032  19.791  0.00  0.00    +0.000 N 
ATOM      9  C   UNL     1       0.932   8.752  20.655  0.00  0.00    +0.000 C 
ATOM     10  O   UNL     1       0.220   8.289  21.545  0.00  0.00    +0.000 OA
ATOM     11  H   UNL     1       2.118   8.514  18.983  0.00  0.00    +0.000 HD
BRANCH   9  12
ATOM     12  C   UNL     1       0.976  10.271  20.422  0.00  0.00    +0.000 C 
BRANCH  12  13
ATOM     13  O   UNL     1       0.345  10.624  19.194  0.00  0.00    +0.000 OA
BRANCH  13  14
ATOM     14  C   UNL     1      -0.862  11.238  19.364  0.00  0.00    +0.000 C 
ATOM     15  O   UNL     1      -1.108  12.024  20.273  0.00  0.00    +0.000 OA
BRANCH  14  16
ATOM     16  C   UNL     1      -1.787  10.829  18.333  0.00  0.00    +0.000 A 
ATOM     17  C   UNL     1      -1.614   9.981  17.254  0.00  0.00    +0.000 A 
ATOM     18  C   UNL     1      -2.857   9.924  16.578  0.00  0.00    +0.000 A 
ATOM     19  C   UNL     1      -3.716  10.723  17.289  0.00  0.00    +0.000 A 
ATOM     20  O   UNL     1      -3.078  11.281  18.348  0.00  0.00    +0.000 OA
ENDBRANCH  14  16
ENDBRANCH  13  14
ENDBRANCH  12  13
ENDBRANCH   9  12
ENDBRANCH   5   8
BRANCH   7  21
ATOM     21  S   UNL     1       4.772   4.113  18.208  0.00  0.00    +0.000 S 
ATOM     22  O   UNL     1       5.942   3.835  19.009  0.00  0.00    +0.000 OA
ATOM     23  O   UNL     1       4.143   3.073  17.421  0.00  0.00    +0.000 OA
BRANCH  21  24
ATOM     24  N   UNL     1       5.098   5.405  17.171  0.00  0.00    +0.000 NA
ATOM     25  C   UNL     1       5.352   5.099  15.741  0.00  0.00    +0.000 C 
ATOM     26  C   UNL     1       6.857   4.953  15.494  0.00  0.00    +0.000 C 
ATOM     27  O   UNL     1       7.533   6.174  15.830  0.00  0.00    +0.000 OA
ATOM     28  C   UNL     1       7.379   6.477  17.224  0.00  0.00    +0.000 C 
ATOM     29  C   UNL     1       5.909   6.555  17.658  0.00  0.00    +0.000 C 
ENDBRANCH  21  24
ENDBRANCH   7  21
TORSDOF 7
ENDMDL
MODEL 5
REMARK VINA RESULT:      -7.6      2.707      3.307
REMARK  Name = 
REMARK  8 active torsions:
REMARK  status: ('A' for Active; 'I' for Inactive)
REMARK    1  A    between atoms: C_1  and  C_2
REMARK    2  A    between atoms: C_5  and  N_6
REMARK    3  A    between atoms: C_7  and  C_9
REMARK    4  A    between atoms: C_9  and  O_10
REMARK    5  A    between atoms: O_10  and  C_11
REMARK    6  A    between atoms: C_11  and  C_13
REMARK    7  A    between atoms: C_19  and  S_20
REMARK    8  A    between atoms: S_20  and  N_23
REMARK                            x       y       z     vdW  Elec       q    Type
REMARK                         _______ _______ _______ _____ _____    ______ ____
ROOT
ATOM      1  C   UNL     1       2.649   2.115  19.711  0.00  0.00    +0.000 C 
ATOM      2  C   UNL     1       2.385   3.590  19.817  0.00  0.00    +0.000 A 
ATOM      3  C   UNL     1       1.080   3.986  20.131  0.00  0.00    +0.000 A 
ATOM      4  C   UNL     1       0.785   5.309  20.447  0.00  0.00    +0.000 A 
ATOM      5  C   UNL     1       1.785   6.281  20.478  0.00  0.00    +0.000 A 
ATOM      6  C   UNL     1       3.085   5.916  20.087  0.00  0.00    +0.000 A 
ATOM      7  C   UNL     1       3.382   4.580  19.745  0.00  0.00    +0.000 A 
ENDROOT
BRANCH   5   8
ATOM      8  N   UNL     1       1.547   7.595  20.941  0.00  0.00    +0.000 N 
ATOM      9  C   UNL     1       1.393   8.720  20.142  0.00  0.00    +0.000 C 
ATOM     10  O   UNL     1       1.610   8.793  18.934  0.00  0.00    +0.000 OA
ATOM     11  H   UNL     1       1.529   7.724  21.946  0.00  0.00    +0.000 HD
BRANCH   9  12
ATOM     12  C   UNL     1       0.896   9.957  20.907  0.00  0.00    +0.000 C 
BRANCH  12  13
ATOM     13  O   UNL     1      -0.305   9.675  21.621  0.00  0.00    +0.000 OA
BRANCH  13  14
ATOM     14  C   UNL     1      -0.298  10.154  22.899  0.00  0.00    +0.000 C 
ATOM     15  O   UNL     1       0.238   9.581  23.841  0.00  0.00    +0.000 OA
BRANCH  14  16
ATOM     16  C   UNL     1      -1.005  11.411  22.973  0.00  0.00    +0.000 A 
ATOM     17  C   UNL     1      -2.343  11.680  23.202  0.00  0.00    +0.000 A 
ATOM     18  C   UNL     1      -2.483  13.088  23.187  0.00  0.00    +0.000 A 
ATOM     19  C   UNL     1      -1.228  13.596  22.968  0.00  0.00    +0.000 A 
ATOM     20  O   UNL     1      -0.327  12.590  22.829  0.00  0.00    +0.000 OA
ENDBRANCH  14  16
ENDBRANCH  13  14
ENDBRANCH  12  13
ENDBRANCH   9  12
ENDBRANCH   5   8
BRANCH   7  21
ATOM     21  S   UNL     1       5.025   4.189  19.117  0.00  0.00    +0.000 S 
ATOM     22  O   UNL     1       5.918   5.206  19.624  0.00  0.00    +0.000 OA
ATOM     23  O   UNL     1       5.275   2.786  19.368  0.00  0.00    +0.000 OA
BRANCH  21  24
ATOM     24  N   UNL     1       4.847   4.381  17.450  0.00  0.00    +0.000 NA
ATOM     25  C   UNL     1       5.897   3.809  16.570  0.00  0.00    +0.000 C 
ATOM     26  C   UNL     1       6.949   4.873  16.246  0.00  0.00    +0.000 C 
ATOM     27  O   UNL     1       6.338   5.982  15.570  0.00  0.00    +0.000 OA
ATOM     28  C   UNL     1       5.363   6.619  16.409  0.00  0.00    +0.000 C 
ATOM     29  C   UNL     1       4.283   5.649  16.909  0.00  0.00    +0.000 C 
ENDBRANCH  21  24
ENDBRANCH   7  21
TORSDOF 7
ENDMDL
MODEL 6
REMARK VINA RESULT:      -7.5      1.837      2.420
REMARK  Name = 
REMARK  8 active torsions:
REMARK  status: ('A' for Active; 'I' for Inactive)
REMARK    1  A    between atoms: C_1  and  C_2
REMARK    2  A    between atoms: C_5  and  N_6
REMARK    3  A    between atoms: C_7  and  C_9
REMARK    4  A    between atoms: C_9  and  O_10
REMARK    5  A    between atoms: O_10  and  C_11
REMARK    6  A    between atoms: C_11  and  C_13
REMARK    7  A    between atoms: C_19  and  S_20
REMARK    8  A    between atoms: S_20  and  N_23
REMARK                            x       y       z     vdW  Elec       q    Type
REMARK                         _______ _______ _______ _____ _____    ______ ____
ROOT
ATOM      1  C   UNL     1       3.002   2.728  20.647  0.00  0.00    +0.000 C 
ATOM      2  C   UNL     1       2.646   4.108  20.176  0.00  0.00    +0.000 A 
ATOM      3  C   UNL     1       1.519   4.709  20.749  0.00  0.00    +0.000 A 
ATOM      4  C   UNL     1       1.228   6.052  20.528  0.00  0.00    +0.000 A 
ATOM      5  C   UNL     1       2.060   6.847  19.740  0.00  0.00    +0.000 A 
ATOM      6  C   UNL     1       3.150   6.240  19.093  0.00  0.00    +0.000 A 
ATOM      7  C   UNL     1       3.435   4.873  19.298  0.00  0.00    +0.000 A 
ENDROOT
BRANCH   5   8
ATOM      8  N   UNL     1       1.878   8.244  19.621  0.00  0.00    +0.000 N 
ATOM      9  C   UNL     1       1.803   8.952  18.429  0.00  0.00    +0.000 C 
ATOM     10  O   UNL     1       2.056   8.520  17.306  0.00  0.00    +0.000 OA
ATOM     11  H   UNL     1       1.838   8.771  20.485  0.00  0.00    +0.000 HD
BRANCH   9  12
ATOM     12  C   UNL     1       1.349  10.411  18.603  0.00  0.00    +0.000 C 
BRANCH  12  13
ATOM     13  O   UNL     1       0.398  10.533  19.657  0.00  0.00    +0.000 OA
BRANCH  13  14
ATOM     14  C   UNL     1       0.699  11.527  20.544  0.00  0.00    +0.000 C 
ATOM     15  O   UNL     1       1.009  11.329  21.713  0.00  0.00    +0.000 OA
BRANCH  14  16
ATOM     16  C   UNL     1       0.599  12.819  19.908  0.00  0.00    +0.000 A 
ATOM     17  C   UNL     1      -0.490  13.467  19.351  0.00  0.00    +0.000 A 
ATOM     18  C   UNL     1      -0.024  14.720  18.885  0.00  0.00    +0.000 A 
ATOM     19  C   UNL     1       1.311  14.772  19.197  0.00  0.00    +0.000 A 
ATOM     20  O   UNL     1       1.700  13.625  19.809  0.00  0.00    +0.000 OA
ENDBRANCH  14  16
ENDBRANCH  13  14
ENDBRANCH  12  13
ENDBRANCH   9  12
ENDBRANCH   5   8
BRANCH   7  21
ATOM     21  S   UNL     1       4.754   4.108  18.340  0.00  0.00    +0.000 S 
ATOM     22  O   UNL     1       5.886   3.969  19.227  0.00  0.00    +0.000 OA
ATOM     23  O   UNL     1       4.198   2.961  17.655  0.00  0.00    +0.000 OA
BRANCH  21  24
ATOM     24  N   UNL     1       5.099   5.277  17.172  0.00  0.00    +0.000 NA
ATOM     25  C   UNL     1       5.306   4.820  15.775  0.00  0.00    +0.000 C 
ATOM     26  C   UNL     1       6.798   4.594  15.511  0.00  0.00    +0.000 C 
ATOM     27  O   UNL     1       7.525   5.816  15.708  0.00  0.00    +0.000 OA
ATOM     28  C   UNL     1       7.417   6.263  17.068  0.00  0.00    +0.000 C 
ATOM     29  C   UNL     1       5.962   6.439  17.523  0.00  0.00    +0.000 C 
ENDBRANCH  21  24
ENDBRANCH   7  21
TORSDOF 7
ENDMDL
MODEL 7
REMARK VINA RESULT:      -7.5      0.955      1.242
REMARK  Name = 
REMARK  8 active torsions:
REMARK  status: ('A' for Active; 'I' for Inactive)
REMARK    1  A    between atoms: C_1  and  C_2
REMARK    2  A    between atoms: C_5  and  N_6
REMARK    3  A    between atoms: C_7  and  C_9
REMARK    4  A    between atoms: C_9  and  O_10
REMARK    5  A    between atoms: O_10  and  C_11
REMARK    6  A    between atoms: C_11  and  C_13
REMARK    7  A    between atoms: C_19  and  S_20
REMARK    8  A    between atoms: S_20  and  N_23
REMARK                            x       y       z     vdW  Elec       q    Type
REMARK                         _______ _______ _______ _____ _____    ______ ____
ROOT
ATOM      1  C   UNL     1       3.117   2.615  20.548  0.00  0.00    +0.000 C 
ATOM      2  C   UNL     1       2.738   4.020  20.178  0.00  0.00    +0.000 A 
ATOM      3  C   UNL     1       1.608   4.562  20.798  0.00  0.00    +0.000 A 
ATOM      4  C   UNL     1       1.296   5.914  20.674  0.00  0.00    +0.000 A 
ATOM      5  C   UNL     1       2.111   6.774  19.939  0.00  0.00    +0.000 A 
ATOM      6  C   UNL     1       3.205   6.230  19.244  0.00  0.00    +0.000 A 
ATOM      7  C   UNL     1       3.510   4.856  19.351  0.00  0.00    +0.000 A 
ENDROOT
BRANCH   5   8
ATOM      8  N   UNL     1       1.909   8.173  19.919  0.00  0.00    +0.000 N 
ATOM      9  C   UNL     1       1.519   8.919  18.815  0.00  0.00    +0.000 C 
ATOM     10  O   UNL     1       1.460   8.526  17.652  0.00  0.00    +0.000 OA
ATOM     11  H   UNL     1       2.104   8.672  20.779  0.00  0.00    +0.000 HD
BRANCH   9  12
ATOM     12  C   UNL     1       1.135  10.369  19.153  0.00  0.00    +0.000 C 
BRANCH  12  13
ATOM     13  O   UNL     1       0.021  10.802  18.376  0.00  0.00    +0.000 OA
BRANCH  13  14
ATOM     14  C   UNL     1      -0.358  12.086  18.645  0.00  0.00    +0.000 C 
ATOM     15  O   UNL     1       0.400  13.049  18.589  0.00  0.00    +0.000 OA
BRANCH  14  16
ATOM     16  C   UNL     1      -1.757  12.137  18.999  0.00  0.00    +0.000 A 
ATOM     17  C   UNL     1      -2.395  12.755  20.060  0.00  0.00    +0.000 A 
ATOM     18  C   UNL     1      -3.779  12.497  19.908  0.00  0.00    +0.000 A 
ATOM     19  C   UNL     1      -3.906  11.755  18.760  0.00  0.00    +0.000 A 
ATOM     20  O   UNL     1      -2.689  11.526  18.207  0.00  0.00    +0.000 OA
ENDBRANCH  14  16
ENDBRANCH  13  14
ENDBRANCH  12  13
ENDBRANCH   9  12
ENDBRANCH   5   8
BRANCH   7  21
ATOM     21  S   UNL     1       4.833   4.180  18.333  0.00  0.00    +0.000 S 
ATOM     22  O   UNL     1       5.974   3.994  19.202  0.00  0.00    +0.000 OA
ATOM     23  O   UNL     1       4.288   3.075  17.572  0.00  0.00    +0.000 OA
BRANCH  21  24
ATOM     24  N   UNL     1       5.154   5.432  17.249  0.00  0.00    +0.000 NA
ATOM     25  C   UNL     1       5.370   5.077  15.824  0.00  0.00    +0.000 C 
ATOM     26  C   UNL     1       6.865   4.900  15.546  0.00  0.00    +0.000 C 
ATOM     27  O   UNL     1       7.568   6.119  15.828  0.00  0.00    +0.000 OA
ATOM     28  C   UNL     1       7.452   6.469  17.214  0.00  0.00    +0.000 C 
ATOM     29  C   UNL     1       5.994   6.584  17.679  0.00  0.00    +0.000 C 
ENDBRANCH  21  24
ENDBRANCH   7  21
TORSDOF 7
ENDMDL
MODEL 8
REMARK VINA RESULT:      -7.4      1.998      2.451
REMARK  Name = 
REMARK  8 active torsions:
REMARK  status: ('A' for Active; 'I' for Inactive)
REMARK    1  A    between atoms: C_1  and  C_2
REMARK    2  A    between atoms: C_5  and  N_6
REMARK    3  A    between atoms: C_7  and  C_9
REMARK    4  A    between atoms: C_9  and  O_10
REMARK    5  A    between atoms: O_10  and  C_11
REMARK    6  A    between atoms: C_11  and  C_13
REMARK    7  A    between atoms: C_19  and  S_20
REMARK    8  A    between atoms: S_20  and  N_23
REMARK                            x       y       z     vdW  Elec       q    Type
REMARK                         _______ _______ _______ _____ _____    ______ ____
ROOT
ATOM      1  C   UNL     1       2.540   2.633  20.931  0.00  0.00    +0.000 C 
ATOM      2  C   UNL     1       2.345   4.015  20.377  0.00  0.00    +0.000 A 
ATOM      3  C   UNL     1       1.285   4.768  20.894  0.00  0.00    +0.000 A 
ATOM      4  C   UNL     1       1.147   6.120  20.593  0.00  0.00    +0.000 A 
ATOM      5  C   UNL     1       2.073   6.772  19.778  0.00  0.00    +0.000 A 
ATOM      6  C   UNL     1       3.097   6.013  19.186  0.00  0.00    +0.000 A 
ATOM      7  C   UNL     1       3.225   4.637  19.473  0.00  0.00    +0.000 A 
ENDROOT
BRANCH   5   8
ATOM      8  N   UNL     1       2.048   8.172  19.577  0.00  0.00    +0.000 N 
ATOM      9  C   UNL     1       1.998   8.812  18.346  0.00  0.00    +0.000 C 
ATOM     10  O   UNL     1       2.144   8.288  17.244  0.00  0.00    +0.000 OA
ATOM     11  H   UNL     1       2.112   8.749  20.406  0.00  0.00    +0.000 HD
BRANCH   9  12
ATOM     12  C   UNL     1       1.726  10.322  18.446  0.00  0.00    +0.000 C 
BRANCH  12  13
ATOM     13  O   UNL     1       1.206  10.669  19.727  0.00  0.00    +0.000 OA
BRANCH  13  14
ATOM     14  C   UNL     1       0.652  11.917  19.764  0.00  0.00    +0.000 C 
ATOM     15  O   UNL     1       0.764  12.742  18.865  0.00  0.00    +0.000 OA
BRANCH  14  16
ATOM     16  C   UNL     1      -0.071  12.112  20.999  0.00  0.00    +0.000 A 
ATOM     17  C   UNL     1      -0.668  11.196  21.847  0.00  0.00    +0.000 A 
ATOM     18  C   UNL     1      -1.220  11.935  22.921  0.00  0.00    +0.000 A 
ATOM     19  C   UNL     1      -0.916  13.250  22.676  0.00  0.00    +0.000 A 
ATOM     20  O   UNL     1      -0.228  13.369  21.513  0.00  0.00    +0.000 OA
ENDBRANCH  14  16
ENDBRANCH  13  14
ENDBRANCH  12  13
ENDBRANCH   9  12
ENDBRANCH   5   8
BRANCH   7  21
ATOM     21  S   UNL     1       4.464   3.677  18.585  0.00  0.00    +0.000 S 
ATOM     22  O   UNL     1       5.389   3.173  19.574  0.00  0.00    +0.000 OA
ATOM     23  O   UNL     1       3.769   2.778  17.687  0.00  0.00    +0.000 OA
BRANCH  21  24
ATOM     24  N   UNL     1       5.236   4.842  17.638  0.00  0.00    +0.000 NA
ATOM     25  C   UNL     1       5.090   4.744  16.164  0.00  0.00    +0.000 C 
ATOM     26  C   UNL     1       6.265   3.962  15.570  0.00  0.00    +0.000 C 
ATOM     27  O   UNL     1       7.502   4.626  15.867  0.00  0.00    +0.000 OA
ATOM     28  C   UNL     1       7.727   4.681  17.283  0.00  0.00    +0.000 C 
ATOM     29  C   UNL     1       6.574   5.353  18.043  0.00  0.00    +0.000 C 
ENDBRANCH  21  24
ENDBRANCH   7  21
TORSDOF 7
ENDMDL
MODEL 9
REMARK VINA RESULT:      -7.4      1.212      1.877
REMARK  Name = 
REMARK  8 active torsions:
REMARK  status: ('A' for Active; 'I' for Inactive)
REMARK    1  A    between atoms: C_1  and  C_2
REMARK    2  A    between atoms: C_5  and  N_6
REMARK    3  A    between atoms: C_7  and  C_9
REMARK    4  A    between atoms: C_9  and  O_10
REMARK    5  A    between atoms: O_10  and  C_11
REMARK    6  A    between atoms: C_11  and  C_13
REMARK    7  A    between atoms: C_19  and  S_20
REMARK    8  A    between atoms: S_20  and  N_23
REMARK                            x       y       z     vdW  Elec       q    Type
REMARK                         _______ _______ _______ _____ _____    ______ ____
ROOT
ATOM      1  C   UNL     1       3.111   2.683  20.646  0.00  0.00    +0.000 C 
ATOM      2  C   UNL     1       2.735   4.075  20.227  0.00  0.00    +0.000 A 
ATOM      3  C   UNL     1       1.620   4.651  20.848  0.00  0.00    +0.000 A 
ATOM      4  C   UNL     1       1.316   5.999  20.675  0.00  0.00    +0.000 A 
ATOM      5  C   UNL     1       2.123   6.823  19.891  0.00  0.00    +0.000 A 
ATOM      6  C   UNL     1       3.198   6.243  19.197  0.00  0.00    +0.000 A 
ATOM      7  C   UNL     1       3.496   4.872  19.353  0.00  0.00    +0.000 A 
ENDROOT
BRANCH   5   8
ATOM      8  N   UNL     1       1.930   8.222  19.819  0.00  0.00    +0.000 N 
ATOM      9  C   UNL     1       1.573   8.932  18.681  0.00  0.00    +0.000 C 
ATOM     10  O   UNL     1       1.540   8.500  17.531  0.00  0.00    +0.000 OA
ATOM     11  H   UNL     1       2.107   8.747  20.666  0.00  0.00    +0.000 HD
BRANCH   9  12
ATOM     12  C   UNL     1       1.189  10.394  18.961  0.00  0.00    +0.000 C 
BRANCH  12  13
ATOM     13  O   UNL     1      -0.044  10.478  19.670  0.00  0.00    +0.000 OA
BRANCH  13  14
ATOM     14  C   UNL     1      -1.050  11.042  18.939  0.00  0.00    +0.000 C 
ATOM     15  O   UNL     1      -1.448  10.599  17.868  0.00  0.00    +0.000 OA
BRANCH  14  16
ATOM     16  C   UNL     1      -1.563  12.216  19.606  0.00  0.00    +0.000 A 
ATOM     17  C   UNL     1      -2.815  12.475  20.135  0.00  0.00    +0.000 A 
ATOM     18  C   UNL     1      -2.761  13.778  20.687  0.00  0.00    +0.000 A 
ATOM     19  C   UNL     1      -1.482  14.229  20.479  0.00  0.00    +0.000 A 
ATOM     20  O   UNL     1      -0.751  13.295  19.820  0.00  0.00    +0.000 OA
ENDBRANCH  14  16
ENDBRANCH  13  14
ENDBRANCH  12  13
ENDBRANCH   9  12
ENDBRANCH   5   8
BRANCH   7  21
ATOM     21  S   UNL     1       4.793   4.144  18.337  0.00  0.00    +0.000 S 
ATOM     22  O   UNL     1       5.948   3.981  19.191  0.00  0.00    +0.000 OA
ATOM     23  O   UNL     1       4.225   3.017  17.630  0.00  0.00    +0.000 OA
BRANCH  21  24
ATOM     24  N   UNL     1       5.104   5.352  17.199  0.00  0.00    +0.000 NA
ATOM     25  C   UNL     1       5.333   4.937  15.793  0.00  0.00    +0.000 C 
ATOM     26  C   UNL     1       6.833   4.767  15.532  0.00  0.00    +0.000 C 
ATOM     27  O   UNL     1       7.517   6.008  15.763  0.00  0.00    +0.000 OA
ATOM     28  C   UNL     1       7.388   6.418  17.132  0.00  0.00    +0.000 C 
ATOM     29  C   UNL     1       5.925   6.533  17.583  0.00  0.00    +0.000 C 
ENDBRANCH  21  24
ENDBRANCH   7  21
TORSDOF 7
ENDMDL
