MODEL 1
REMARK VINA RESULT:      -5.4      0.000      0.000
REMARK  Name = 
REMARK  30 active torsions:
REMARK  status: ('A' for Active; 'I' for Inactive)
REMARK    1  A    between atoms: C_1  and  C_2
REMARK    2  A    between atoms: C_2  and  C_3
REMARK    3  A    between atoms: C_3  and  C_4
REMARK    4  A    between atoms: C_4  and  C_5
REMARK    5  A    between atoms: C_5  and  C_6
REMARK    6  A    between atoms: C_6  and  C_7
REMARK    7  A    between atoms: C_7  and  C_8
REMARK    8  A    between atoms: C_8  and  C_9
REMARK    9  A    between atoms: C_9  and  C_10
REMARK   10  A    between atoms: C_10  and  C_11
REMARK   11  A    between atoms: C_11  and  C_12
REMARK   12  A    between atoms: C_12  and  O_13
REMARK   13  A    between atoms: O_13  and  C_14
REMARK   14  A    between atoms: C_14  and  C_16
REMARK   15  A    between atoms: C_16  and  C_17
REMARK   16  A    between atoms: C_17  and  C_18
REMARK   17  A    between atoms: C_18  and  C_19
REMARK   18  A    between atoms: C_19  and  C_20
REMARK   19  A    between atoms: C_20  and  N_21
REMARK   20  A    between atoms: C_22  and  O_24
REMARK   21  A    between atoms: O_24  and  C_25
REMARK   22  A    between atoms: C_25  and  C_26
REMARK   23  A    between atoms: C_26  and  C_27
REMARK   24  A    between atoms: C_27  and  C_28
REMARK   25  A    between atoms: C_28  and  C_29
REMARK   26  A    between atoms: C_29  and  C_30
REMARK   27  A    between atoms: C_30  and  C_31
REMARK   28  A    between atoms: C_31  and  C_32
REMARK   29  A    between atoms: C_32  and  C_33
REMARK   30  A    between atoms: C_33  and  C_34
REMARK                            x       y       z     vdW  Elec       q    Type
REMARK                         _______ _______ _______ _____ _____    ______ ____
ROOT
ATOM      1  C   UNL     1       1.287   9.477  17.846  0.00  0.00    +0.000 C 
ENDROOT
BRANCH   1   2
ATOM      2  C   UNL     1       2.522   8.591  18.041  0.00  0.00    +0.000 C 
BRANCH   2   3
ATOM      3  C   UNL     1       2.179   7.110  18.256  0.00  0.00    +0.000 C 
BRANCH   3   4
ATOM      4  C   UNL     1       2.364   6.729  19.720  0.00  0.00    +0.000 C 
ATOM      5  O   UNL     1       2.063   7.426  20.660  0.00  0.00    +0.000 OA
BRANCH   4   6
ATOM      6  O   UNL     1       2.983   5.513  19.817  0.00  0.00    +0.000 OA
BRANCH   6   7
ATOM      7  C   UNL     1       2.377   4.641  20.786  0.00  0.00    +0.000 C 
BRANCH   7   8
ATOM      8  C   UNL     1       1.036   4.113  20.299  0.00  0.00    +0.000 C 
BRANCH   8   9
ATOM      9  C   UNL     1       1.168   3.464  18.923  0.00  0.00    +0.000 C 
BRANCH   9  10
ATOM     10  C   UNL     1       1.883   2.123  19.024  0.00  0.00    +0.000 C 
BRANCH  10  11
ATOM     11  C   UNL     1       3.071   2.077  18.074  0.00  0.00    +0.000 C 
BRANCH  11  12
ATOM     12  C   UNL     1       3.080   3.308  17.182  0.00  0.00    +0.000 C 
BRANCH  12  13
ATOM     13  C   UNL     1       4.499   3.627  16.744  0.00  0.00    +0.000 C 
BRANCH  13  14
ATOM     14  C   UNL     1       4.721   5.130  16.745  0.00  0.00    +0.000 C 
BRANCH  14  15
ATOM     15  C   UNL     1       6.029   5.465  16.048  0.00  0.00    +0.000 C 
BRANCH  15  16
ATOM     16  C   UNL     1       6.945   6.228  16.992  0.00  0.00    +0.000 C 
BRANCH  16  18
ATOM     17  C   UNL     1       7.871   5.811  19.270  0.00  0.00    +0.000 C 
ATOM     18  C   UNL     1       6.606   5.904  18.440  0.00  0.00    +0.000 C 
ENDBRANCH  16  18
ENDBRANCH  15  16
ENDBRANCH  14  15
ENDBRANCH  13  14
ENDBRANCH  12  13
ENDBRANCH  11  12
ENDBRANCH  10  11
ENDBRANCH   9  10
ENDBRANCH   8   9
ENDBRANCH   7   8
ENDBRANCH   6   7
ENDBRANCH   4   6
ENDBRANCH   3   4
ENDBRANCH   2   3
ENDBRANCH   1   2
BRANCH   1  19
ATOM     19  C   UNL     1       1.024  10.357  19.084  0.00  0.00    +0.000 C 
BRANCH  19  20
ATOM     20  C   UNL     1      -0.166   9.843  19.905  0.00  0.00    +0.000 C 
BRANCH  20  21
ATOM     21  N   UNL     1      -0.584  10.749  20.963  0.00  0.00    +0.000 N 
ATOM     22  C   UNL     1      -0.058  10.668  22.228  0.00  0.00    +0.000 C 
ATOM     23  O   UNL     1       0.772   9.839  22.580  0.00  0.00    +0.000 OA
ATOM     24  H   UNL     1      -1.276  11.467  20.795  0.00  0.00    +0.000 HD
BRANCH  22  25
ATOM     25  O   UNL     1      -0.622  11.592  23.052  0.00  0.00    +0.000 OA
BRANCH  25  26
ATOM     26  C   UNL     1      -1.847  12.164  22.545  0.00  0.00    +0.000 C 
BRANCH  26  27
ATOM     27  C   UNL     1      -2.386  13.281  23.435  0.00  0.00    +0.000 C 
BRANCH  27  28
ATOM     28  C   UNL     1      -3.709  12.890  24.103  0.00  0.00    +0.000 C 
BRANCH  28  29
ATOM     29  C   UNL     1      -4.886  13.625  23.464  0.00  0.00    +0.000 C 
BRANCH  29  30
ATOM     30  C   UNL     1      -5.514  12.790  22.353  0.00  0.00    +0.000 C 
BRANCH  30  31
ATOM     31  C   UNL     1      -6.501  13.626  21.549  0.00  0.00    +0.000 C 
BRANCH  31  32
ATOM     32  C   UNL     1      -7.384  12.728  20.694  0.00  0.00    +0.000 C 
BRANCH  32  33
ATOM     33  C   UNL     1      -6.601  11.511  20.223  0.00  0.00    +0.000 C 
BRANCH  33  34
ATOM     34  C   UNL     1      -6.013  11.757  18.839  0.00  0.00    +0.000 C 
ATOM     35  C   UNL     1      -7.082  12.275  17.895  0.00  0.00    +0.000 C 
ENDBRANCH  33  34
ENDBRANCH  32  33
ENDBRANCH  31  32
ENDBRANCH  30  31
ENDBRANCH  29  30
ENDBRANCH  28  29
ENDBRANCH  27  28
ENDBRANCH  26  27
ENDBRANCH  25  26
ENDBRANCH  22  25
ENDBRANCH  20  21
ENDBRANCH  19  20
ENDBRANCH   1  19
TORSDOF 28
ENDMDL
MODEL 2
REMARK VINA RESULT:      -5.4      2.124     10.829
REMARK  Name = 
REMARK  30 active torsions:
REMARK  status: ('A' for Active; 'I' for Inactive)
REMARK    1  A    between atoms: C_1  and  C_2
REMARK    2  A    between atoms: C_2  and  C_3
REMARK    3  A    between atoms: C_3  and  C_4
REMARK    4  A    between atoms: C_4  and  C_5
REMARK    5  A    between atoms: C_5  and  C_6
REMARK    6  A    between atoms: C_6  and  C_7
REMARK    7  A    between atoms: C_7  and  C_8
REMARK    8  A    between atoms: C_8  and  C_9
REMARK    9  A    between atoms: C_9  and  C_10
REMARK   10  A    between atoms: C_10  and  C_11
REMARK   11  A    between atoms: C_11  and  C_12
REMARK   12  A    between atoms: C_12  and  O_13
REMARK   13  A    between atoms: O_13  and  C_14
REMARK   14  A    between atoms: C_14  and  C_16
REMARK   15  A    between atoms: C_16  and  C_17
REMARK   16  A    between atoms: C_17  and  C_18
REMARK   17  A    between atoms: C_18  and  C_19
REMARK   18  A    between atoms: C_19  and  C_20
REMARK   19  A    between atoms: C_20  and  N_21
REMARK   20  A    between atoms: C_22  and  O_24
REMARK   21  A    between atoms: O_24  and  C_25
REMARK   22  A    between atoms: C_25  and  C_26
REMARK   23  A    between atoms: C_26  and  C_27
REMARK   24  A    between atoms: C_27  and  C_28
REMARK   25  A    between atoms: C_28  and  C_29
REMARK   26  A    between atoms: C_29  and  C_30
REMARK   27  A    between atoms: C_30  and  C_31
REMARK   28  A    between atoms: C_31  and  C_32
REMARK   29  A    between atoms: C_32  and  C_33
REMARK   30  A    between atoms: C_33  and  C_34
REMARK                            x       y       z     vdW  Elec       q    Type
REMARK                         _______ _______ _______ _____ _____    ______ ____
ROOT
ATOM      1  C   UNL     1      -0.165  10.233  22.512  0.00  0.00    +0.000 C 
ENDROOT
BRANCH   1   2
ATOM      2  C   UNL     1      -1.074  11.389  22.081  0.00  0.00    +0.000 C 
BRANCH   2   3
ATOM      3  C   UNL     1      -0.330  12.724  21.937  0.00  0.00    +0.000 C 
BRANCH   3   4
ATOM      4  C   UNL     1      -0.153  13.076  20.464  0.00  0.00    +0.000 C 
ATOM      5  O   UNL     1       0.848  13.553  19.982  0.00  0.00    +0.000 OA
BRANCH   4   6
ATOM      6  O   UNL     1      -1.311  12.836  19.778  0.00  0.00    +0.000 OA
BRANCH   6   7
ATOM      7  C   UNL     1      -1.093  12.353  18.442  0.00  0.00    +0.000 C 
BRANCH   7   8
ATOM      8  C   UNL     1      -0.724  10.876  18.436  0.00  0.00    +0.000 C 
BRANCH   8   9
ATOM      9  C   UNL     1      -1.831  10.037  17.802  0.00  0.00    +0.000 C 
BRANCH   9  10
ATOM     10  C   UNL     1      -2.754  10.907  16.959  0.00  0.00    +0.000 C 
BRANCH  10  11
ATOM     11  C   UNL     1      -4.199  10.749  17.410  0.00  0.00    +0.000 C 
BRANCH  11  12
ATOM     12  C   UNL     1      -5.037  11.913  16.907  0.00  0.00    +0.000 C 
BRANCH  12  13
ATOM     13  C   UNL     1      -6.332  12.005  17.697  0.00  0.00    +0.000 C 
BRANCH  13  14
ATOM     14  C   UNL     1      -6.234  11.166  18.960  0.00  0.00    +0.000 C 
BRANCH  14  15
ATOM     15  C   UNL     1      -7.405  11.470  19.880  0.00  0.00    +0.000 C 
BRANCH  15  16
ATOM     16  C   UNL     1      -6.900  12.050  21.192  0.00  0.00    +0.000 C 
BRANCH  16  18
ATOM     17  C   UNL     1      -5.237  13.908  21.180  0.00  0.00    +0.000 C 
ATOM     18  C   UNL     1      -5.425  12.407  21.086  0.00  0.00    +0.000 C 
ENDBRANCH  16  18
ENDBRANCH  15  16
ENDBRANCH  14  15
ENDBRANCH  13  14
ENDBRANCH  12  13
ENDBRANCH  11  12
ENDBRANCH  10  11
ENDBRANCH   9  10
ENDBRANCH   8   9
ENDBRANCH   7   8
ENDBRANCH   6   7
ENDBRANCH   4   6
ENDBRANCH   3   4
ENDBRANCH   2   3
ENDBRANCH   1   2
BRANCH   1  19
ATOM     19  C   UNL     1      -0.215   9.071  21.500  0.00  0.00    +0.000 C 
BRANCH  19  20
ATOM     20  C   UNL     1       1.166   8.780  20.899  0.00  0.00    +0.000 C 
BRANCH  20  21
ATOM     21  N   UNL     1       1.553   7.379  20.965  0.00  0.00    +0.000 N 
ATOM     22  C   UNL     1       2.310   6.796  19.982  0.00  0.00    +0.000 C 
ATOM     23  O   UNL     1       2.705   7.374  18.978  0.00  0.00    +0.000 OA
ATOM     24  H   UNL     1       1.272   6.795  21.742  0.00  0.00    +0.000 HD
BRANCH  22  25
ATOM     25  O   UNL     1       2.517   5.477  20.244  0.00  0.00    +0.000 OA
BRANCH  25  26
ATOM     26  C   UNL     1       1.320   4.752  20.599  0.00  0.00    +0.000 C 
BRANCH  26  27
ATOM     27  C   UNL     1       1.619   3.456  21.350  0.00  0.00    +0.000 C 
BRANCH  27  28
ATOM     28  C   UNL     1       1.802   2.272  20.394  0.00  0.00    +0.000 C 
BRANCH  28  29
ATOM     29  C   UNL     1       1.306   2.616  18.990  0.00  0.00    +0.000 C 
BRANCH  29  30
ATOM     30  C   UNL     1       2.399   2.385  17.953  0.00  0.00    +0.000 C 
BRANCH  30  31
ATOM     31  C   UNL     1       2.536   3.597  17.041  0.00  0.00    +0.000 C 
BRANCH  31  32
ATOM     32  C   UNL     1       3.837   4.333  17.328  0.00  0.00    +0.000 C 
BRANCH  32  33
ATOM     33  C   UNL     1       4.958   3.782  16.459  0.00  0.00    +0.000 C 
BRANCH  33  34
ATOM     34  C   UNL     1       5.469   4.852  15.503  0.00  0.00    +0.000 C 
ATOM     35  C   UNL     1       5.976   4.217  14.222  0.00  0.00    +0.000 C 
ENDBRANCH  33  34
ENDBRANCH  32  33
ENDBRANCH  31  32
ENDBRANCH  30  31
ENDBRANCH  29  30
ENDBRANCH  28  29
ENDBRANCH  27  28
ENDBRANCH  26  27
ENDBRANCH  25  26
ENDBRANCH  22  25
ENDBRANCH  20  21
ENDBRANCH  19  20
ENDBRANCH   1  19
TORSDOF 28
ENDMDL
MODEL 3
REMARK VINA RESULT:      -5.3      2.579      5.038
REMARK  Name = 
REMARK  30 active torsions:
REMARK  status: ('A' for Active; 'I' for Inactive)
REMARK    1  A    between atoms: C_1  and  C_2
REMARK    2  A    between atoms: C_2  and  C_3
REMARK    3  A    between atoms: C_3  and  C_4
REMARK    4  A    between atoms: C_4  and  C_5
REMARK    5  A    between atoms: C_5  and  C_6
REMARK    6  A    between atoms: C_6  and  C_7
REMARK    7  A    between atoms: C_7  and  C_8
REMARK    8  A    between atoms: C_8  and  C_9
REMARK    9  A    between atoms: C_9  and  C_10
REMARK   10  A    between atoms: C_10  and  C_11
REMARK   11  A    between atoms: C_11  and  C_12
REMARK   12  A    between atoms: C_12  and  O_13
REMARK   13  A    between atoms: O_13  and  C_14
REMARK   14  A    between atoms: C_14  and  C_16
REMARK   15  A    between atoms: C_16  and  C_17
REMARK   16  A    between atoms: C_17  and  C_18
REMARK   17  A    between atoms: C_18  and  C_19
REMARK   18  A    between atoms: C_19  and  C_20
REMARK   19  A    between atoms: C_20  and  N_21
REMARK   20  A    between atoms: C_22  and  O_24
REMARK   21  A    between atoms: O_24  and  C_25
REMARK   22  A    between atoms: C_25  and  C_26
REMARK   23  A    between atoms: C_26  and  C_27
REMARK   24  A    between atoms: C_27  and  C_28
REMARK   25  A    between atoms: C_28  and  C_29
REMARK   26  A    between atoms: C_29  and  C_30
REMARK   27  A    between atoms: C_30  and  C_31
REMARK   28  A    between atoms: C_31  and  C_32
REMARK   29  A    between atoms: C_32  and  C_33
REMARK   30  A    between atoms: C_33  and  C_34
REMARK                            x       y       z     vdW  Elec       q    Type
REMARK                         _______ _______ _______ _____ _____    ______ ____
ROOT
ATOM      1  C   UNL     1       1.828   5.514  20.742  0.00  0.00    +0.000 C 
ENDROOT
BRANCH   1   2
ATOM      2  C   UNL     1       0.883   4.337  20.480  0.00  0.00    +0.000 C 
BRANCH   2   3
ATOM      3  C   UNL     1       1.594   2.977  20.475  0.00  0.00    +0.000 C 
BRANCH   3   4
ATOM      4  C   UNL     1       1.467   2.316  19.107  0.00  0.00    +0.000 C 
ATOM      5  O   UNL     1       0.453   2.271  18.451  0.00  0.00    +0.000 OA
BRANCH   4   6
ATOM      6  O   UNL     1       2.649   1.723  18.757  0.00  0.00    +0.000 OA
BRANCH   6   7
ATOM      7  C   UNL     1       3.271   2.326  17.610  0.00  0.00    +0.000 C 
BRANCH   7   8
ATOM      8  C   UNL     1       3.772   3.730  17.920  0.00  0.00    +0.000 C 
BRANCH   8   9
ATOM      9  C   UNL     1       4.997   3.687  18.831  0.00  0.00    +0.000 C 
BRANCH   9  10
ATOM     10  C   UNL     1       5.496   5.094  19.132  0.00  0.00    +0.000 C 
BRANCH  10  11
ATOM     11  C   UNL     1       7.007   5.174  18.963  0.00  0.00    +0.000 C 
BRANCH  11  12
ATOM     12  C   UNL     1       7.396   6.501  18.332  0.00  0.00    +0.000 C 
BRANCH  12  13
ATOM     13  C   UNL     1       6.589   6.735  17.066  0.00  0.00    +0.000 C 
BRANCH  13  14
ATOM     14  C   UNL     1       6.955   5.702  16.014  0.00  0.00    +0.000 C 
BRANCH  14  15
ATOM     15  C   UNL     1       5.701   5.198  15.320  0.00  0.00    +0.000 C 
BRANCH  15  16
ATOM     16  C   UNL     1       5.997   3.900  14.585  0.00  0.00    +0.000 C 
BRANCH  16  18
ATOM     17  C   UNL     1       6.185   3.202  12.198  0.00  0.00    +0.000 C 
ATOM     18  C   UNL     1       5.309   3.888  13.227  0.00  0.00    +0.000 C 
ENDBRANCH  16  18
ENDBRANCH  15  16
ENDBRANCH  14  15
ENDBRANCH  13  14
ENDBRANCH  12  13
ENDBRANCH  11  12
ENDBRANCH  10  11
ENDBRANCH   9  10
ENDBRANCH   8   9
ENDBRANCH   7   8
ENDBRANCH   6   7
ENDBRANCH   4   6
ENDBRANCH   3   4
ENDBRANCH   2   3
ENDBRANCH   1   2
BRANCH   1  19
ATOM     19  C   UNL     1       2.043   6.357  19.470  0.00  0.00    +0.000 C 
BRANCH  19  20
ATOM     20  C   UNL     1       2.379   7.817  19.805  0.00  0.00    +0.000 C 
BRANCH  20  21
ATOM     21  N   UNL     1       1.212   8.635  20.098  0.00  0.00    +0.000 N 
ATOM     22  C   UNL     1       0.651   9.452  19.149  0.00  0.00    +0.000 C 
ATOM     23  O   UNL     1       1.077   9.581  18.008  0.00  0.00    +0.000 OA
ATOM     24  H   UNL     1       0.781   8.624  21.013  0.00  0.00    +0.000 HD
BRANCH  22  25
ATOM     25  O   UNL     1      -0.404  10.142  19.661  0.00  0.00    +0.000 OA
BRANCH  25  26
ATOM     26  C   UNL     1      -1.347  10.600  18.668  0.00  0.00    +0.000 C 
BRANCH  26  27
ATOM     27  C   UNL     1      -1.556  12.112  18.711  0.00  0.00    +0.000 C 
BRANCH  27  28
ATOM     28  C   UNL     1      -0.400  12.829  19.416  0.00  0.00    +0.000 C 
BRANCH  28  29
ATOM     29  C   UNL     1      -0.211  14.241  18.865  0.00  0.00    +0.000 C 
BRANCH  29  30
ATOM     30  C   UNL     1       0.208  15.206  19.969  0.00  0.00    +0.000 C 
BRANCH  30  31
ATOM     31  C   UNL     1      -0.813  15.201  21.099  0.00  0.00    +0.000 C 
BRANCH  31  32
ATOM     32  C   UNL     1      -0.142  14.847  22.419  0.00  0.00    +0.000 C 
BRANCH  32  33
ATOM     33  C   UNL     1      -1.149  14.218  23.371  0.00  0.00    +0.000 C 
BRANCH  33  34
ATOM     34  C   UNL     1      -1.313  12.734  23.071  0.00  0.00    +0.000 C 
ATOM     35  C   UNL     1      -2.781  12.384  22.915  0.00  0.00    +0.000 C 
ENDBRANCH  33  34
ENDBRANCH  32  33
ENDBRANCH  31  32
ENDBRANCH  30  31
ENDBRANCH  29  30
ENDBRANCH  28  29
ENDBRANCH  27  28
ENDBRANCH  26  27
ENDBRANCH  25  26
ENDBRANCH  22  25
ENDBRANCH  20  21
ENDBRANCH  19  20
ENDBRANCH   1  19
TORSDOF 28
ENDMDL
MODEL 4
REMARK VINA RESULT:      -5.3      4.466     10.677
REMARK  Name = 
REMARK  30 active torsions:
REMARK  status: ('A' for Active; 'I' for Inactive)
REMARK    1  A    between atoms: C_1  and  C_2
REMARK    2  A    between atoms: C_2  and  C_3
REMARK    3  A    between atoms: C_3  and  C_4
REMARK    4  A    between atoms: C_4  and  C_5
REMARK    5  A    between atoms: C_5  and  C_6
REMARK    6  A    between atoms: C_6  and  C_7
REMARK    7  A    between atoms: C_7  and  C_8
REMARK    8  A    between atoms: C_8  and  C_9
REMARK    9  A    between atoms: C_9  and  C_10
REMARK   10  A    between atoms: C_10  and  C_11
REMARK   11  A    between atoms: C_11  and  C_12
REMARK   12  A    between atoms: C_12  and  O_13
REMARK   13  A    between atoms: O_13  and  C_14
REMARK   14  A    between atoms: C_14  and  C_16
REMARK   15  A    between atoms: C_16  and  C_17
REMARK   16  A    between atoms: C_17  and  C_18
REMARK   17  A    between atoms: C_18  and  C_19
REMARK   18  A    between atoms: C_19  and  C_20
REMARK   19  A    between atoms: C_20  and  N_21
REMARK   20  A    between atoms: C_22  and  O_24
REMARK   21  A    between atoms: O_24  and  C_25
REMARK   22  A    between atoms: C_25  and  C_26
REMARK   23  A    between atoms: C_26  and  C_27
REMARK   24  A    between atoms: C_27  and  C_28
REMARK   25  A    between atoms: C_28  and  C_29
REMARK   26  A    between atoms: C_29  and  C_30
REMARK   27  A    between atoms: C_30  and  C_31
REMARK   28  A    between atoms: C_31  and  C_32
REMARK   29  A    between atoms: C_32  and  C_33
REMARK   30  A    between atoms: C_33  and  C_34
REMARK                            x       y       z     vdW  Elec       q    Type
REMARK                         _______ _______ _______ _____ _____    ______ ____
ROOT
ATOM      1  C   UNL     1       3.599   5.539  17.870  0.00  0.00    +0.000 C 
ENDROOT
BRANCH   1   2
ATOM      2  C   UNL     1       3.788   4.183  17.181  0.00  0.00    +0.000 C 
BRANCH   2   3
ATOM      3  C   UNL     1       2.553   3.275  17.278  0.00  0.00    +0.000 C 
BRANCH   3   4
ATOM      4  C   UNL     1       2.798   2.151  18.277  0.00  0.00    +0.000 C 
ATOM      5  O   UNL     1       3.645   1.296  18.164  0.00  0.00    +0.000 OA
BRANCH   4   6
ATOM      6  O   UNL     1       1.879   2.209  19.289  0.00  0.00    +0.000 OA
BRANCH   6   7
ATOM      7  C   UNL     1       2.473   2.251  20.597  0.00  0.00    +0.000 C 
BRANCH   7   8
ATOM      8  C   UNL     1       2.091   3.521  21.343  0.00  0.00    +0.000 C 
BRANCH   8   9
ATOM      9  C   UNL     1       0.970   4.266  20.621  0.00  0.00    +0.000 C 
BRANCH   9  10
ATOM     10  C   UNL     1       1.455   5.621  20.123  0.00  0.00    +0.000 C 
BRANCH  10  11
ATOM     11  C   UNL     1       1.426   6.646  21.248  0.00  0.00    +0.000 C 
BRANCH  11  12
ATOM     12  C   UNL     1       1.217   8.042  20.683  0.00  0.00    +0.000 C 
BRANCH  12  13
ATOM     13  C   UNL     1      -0.016   8.678  21.301  0.00  0.00    +0.000 C 
BRANCH  13  14
ATOM     14  C   UNL     1      -0.297  10.020  20.647  0.00  0.00    +0.000 C 
BRANCH  14  15
ATOM     15  C   UNL     1      -0.674  11.046  21.701  0.00  0.00    +0.000 C 
BRANCH  15  16
ATOM     16  C   UNL     1       0.228  12.265  21.590  0.00  0.00    +0.000 C 
BRANCH  16  18
ATOM     17  C   UNL     1       2.113  13.281  20.311  0.00  0.00    +0.000 C 
ATOM     18  C   UNL     1       1.034  12.217  20.300  0.00  0.00    +0.000 C 
ENDBRANCH  16  18
ENDBRANCH  15  16
ENDBRANCH  14  15
ENDBRANCH  13  14
ENDBRANCH  12  13
ENDBRANCH  11  12
ENDBRANCH  10  11
ENDBRANCH   9  10
ENDBRANCH   8   9
ENDBRANCH   7   8
ENDBRANCH   6   7
ENDBRANCH   4   6
ENDBRANCH   3   4
ENDBRANCH   2   3
ENDBRANCH   1   2
BRANCH   1  19
ATOM     19  C   UNL     1       4.533   5.687  19.087  0.00  0.00    +0.000 C 
BRANCH  19  20
ATOM     20  C   UNL     1       5.322   4.399  19.359  0.00  0.00    +0.000 C 
BRANCH  20  21
ATOM     21  N   UNL     1       6.284   4.069  18.319  0.00  0.00    +0.000 N 
ATOM     22  C   UNL     1       7.456   4.767  18.177  0.00  0.00    +0.000 C 
ATOM     23  O   UNL     1       7.784   5.717  18.877  0.00  0.00    +0.000 OA
ATOM     24  H   UNL     1       6.115   3.312  17.670  0.00  0.00    +0.000 HD
BRANCH  22  25
ATOM     25  O   UNL     1       8.177   4.302  17.121  0.00  0.00    +0.000 OA
BRANCH  25  26
ATOM     26  C   UNL     1       7.406   4.126  15.913  0.00  0.00    +0.000 C 
BRANCH  26  27
ATOM     27  C   UNL     1       6.876   5.445  15.357  0.00  0.00    +0.000 C 
BRANCH  27  28
ATOM     28  C   UNL     1       5.702   5.229  14.396  0.00  0.00    +0.000 C 
BRANCH  28  29
ATOM     29  C   UNL     1       6.098   4.307  13.243  0.00  0.00    +0.000 C 
BRANCH  29  30
ATOM     30  C   UNL     1       4.952   3.371  12.874  0.00  0.00    +0.000 C 
BRANCH  30  31
ATOM     31  C   UNL     1       4.495   3.623  11.444  0.00  0.00    +0.000 C 
BRANCH  31  32
ATOM     32  C   UNL     1       3.300   2.744  11.105  0.00  0.00    +0.000 C 
BRANCH  32  33
ATOM     33  C   UNL     1       2.739   3.117   9.741  0.00  0.00    +0.000 C 
BRANCH  33  34
ATOM     34  C   UNL     1       3.152   4.533   9.362  0.00  0.00    +0.000 C 
ATOM     35  C   UNL     1       1.988   5.273   8.732  0.00  0.00    +0.000 C 
ENDBRANCH  33  34
ENDBRANCH  32  33
ENDBRANCH  31  32
ENDBRANCH  30  31
ENDBRANCH  29  30
ENDBRANCH  28  29
ENDBRANCH  27  28
ENDBRANCH  26  27
ENDBRANCH  25  26
ENDBRANCH  22  25
ENDBRANCH  20  21
ENDBRANCH  19  20
ENDBRANCH   1  19
TORSDOF 28
ENDMDL
MODEL 5
REMARK VINA RESULT:      -5.2      2.779      5.284
REMARK  Name = 
REMARK  30 active torsions:
REMARK  status: ('A' for Active; 'I' for Inactive)
REMARK    1  A    between atoms: C_1  and  C_2
REMARK    2  A    between atoms: C_2  and  C_3
REMARK    3  A    between atoms: C_3  and  C_4
REMARK    4  A    between atoms: C_4  and  C_5
REMARK    5  A    between atoms: C_5  and  C_6
REMARK    6  A    between atoms: C_6  and  C_7
REMARK    7  A    between atoms: C_7  and  C_8
REMARK    8  A    between atoms: C_8  and  C_9
REMARK    9  A    between atoms: C_9  and  C_10
REMARK   10  A    between atoms: C_10  and  C_11
REMARK   11  A    between atoms: C_11  and  C_12
REMARK   12  A    between atoms: C_12  and  O_13
REMARK   13  A    between atoms: O_13  and  C_14
REMARK   14  A    between atoms: C_14  and  C_16
REMARK   15  A    between atoms: C_16  and  C_17
REMARK   16  A    between atoms: C_17  and  C_18
REMARK   17  A    between atoms: C_18  and  C_19
REMARK   18  A    between atoms: C_19  and  C_20
REMARK   19  A    between atoms: C_20  and  N_21
REMARK   20  A    between atoms: C_22  and  O_24
REMARK   21  A    between atoms: O_24  and  C_25
REMARK   22  A    between atoms: C_25  and  C_26
REMARK   23  A    between atoms: C_26  and  C_27
REMARK   24  A    between atoms: C_27  and  C_28
REMARK   25  A    between atoms: C_28  and  C_29
REMARK   26  A    between atoms: C_29  and  C_30
REMARK   27  A    between atoms: C_30  and  C_31
REMARK   28  A    between atoms: C_31  and  C_32
REMARK   29  A    between atoms: C_32  and  C_33
REMARK   30  A    between atoms: C_33  and  C_34
REMARK                            x       y       z     vdW  Elec       q    Type
REMARK                         _______ _______ _______ _____ _____    ______ ____
ROOT
ATOM      1  C   UNL     1      -1.605  10.000  17.216  0.00  0.00    +0.000 C 
ENDROOT
BRANCH   1   2
ATOM      2  C   UNL     1      -1.565  10.454  18.679  0.00  0.00    +0.000 C 
BRANCH   2   3
ATOM      3  C   UNL     1      -0.297  11.244  19.035  0.00  0.00    +0.000 C 
BRANCH   3   4
ATOM      4  C   UNL     1       0.943  10.507  18.542  0.00  0.00    +0.000 C 
ATOM      5  O   UNL     1       1.906  11.033  18.036  0.00  0.00    +0.000 OA
BRANCH   4   6
ATOM      6  O   UNL     1       0.782   9.157  18.693  0.00  0.00    +0.000 OA
BRANCH   6   7
ATOM      7  C   UNL     1       1.978   8.483  19.118  0.00  0.00    +0.000 C 
BRANCH   7   8
ATOM      8  C   UNL     1       2.643   7.745  17.965  0.00  0.00    +0.000 C 
BRANCH   8   9
ATOM      9  C   UNL     1       3.671   6.739  18.478  0.00  0.00    +0.000 C 
BRANCH   9  10
ATOM     10  C   UNL     1       4.779   6.529  17.455  0.00  0.00    +0.000 C 
BRANCH  10  11
ATOM     11  C   UNL     1       4.517   5.275  16.632  0.00  0.00    +0.000 C 
BRANCH  11  12
ATOM     12  C   UNL     1       5.030   4.047  17.365  0.00  0.00    +0.000 C 
BRANCH  12  13
ATOM     13  C   UNL     1       3.888   3.354  18.088  0.00  0.00    +0.000 C 
BRANCH  13  14
ATOM     14  C   UNL     1       2.670   3.272  17.183  0.00  0.00    +0.000 C 
BRANCH  14  15
ATOM     15  C   UNL     1       1.457   3.857  17.887  0.00  0.00    +0.000 C 
BRANCH  15  16
ATOM     16  C   UNL     1       1.167   3.080  19.161  0.00  0.00    +0.000 C 
BRANCH  16  18
ATOM     17  C   UNL     1       2.199   4.427  20.989  0.00  0.00    +0.000 C 
ATOM     18  C   UNL     1       0.899   4.032  20.318  0.00  0.00    +0.000 C 
ENDBRANCH  16  18
ENDBRANCH  15  16
ENDBRANCH  14  15
ENDBRANCH  13  14
ENDBRANCH  12  13
ENDBRANCH  11  12
ENDBRANCH  10  11
ENDBRANCH   9  10
ENDBRANCH   8   9
ENDBRANCH   7   8
ENDBRANCH   6   7
ENDBRANCH   4   6
ENDBRANCH   3   4
ENDBRANCH   2   3
ENDBRANCH   1   2
BRANCH   1  19
ATOM     19  C   UNL     1      -2.988  10.256  16.586  0.00  0.00    +0.000 C 
BRANCH  19  20
ATOM     20  C   UNL     1      -3.677  11.481  17.203  0.00  0.00    +0.000 C 
BRANCH  20  21
ATOM     21  N   UNL     1      -5.013  11.210  17.712  0.00  0.00    +0.000 N 
ATOM     22  C   UNL     1      -6.065  12.050  17.451  0.00  0.00    +0.000 C 
ATOM     23  O   UNL     1      -5.979  13.085  16.803  0.00  0.00    +0.000 OA
ATOM     24  H   UNL     1      -5.202  10.390  18.274  0.00  0.00    +0.000 HD
BRANCH  22  25
ATOM     25  O   UNL     1      -7.202  11.611  18.056  0.00  0.00    +0.000 OA
BRANCH  25  26
ATOM     26  C   UNL     1      -7.685  12.478  19.104  0.00  0.00    +0.000 C 
BRANCH  26  27
ATOM     27  C   UNL     1      -7.502  11.876  20.496  0.00  0.00    +0.000 C 
BRANCH  27  28
ATOM     28  C   UNL     1      -6.628  12.762  21.390  0.00  0.00    +0.000 C 
BRANCH  28  29
ATOM     29  C   UNL     1      -5.167  12.722  20.944  0.00  0.00    +0.000 C 
BRANCH  29  30
ATOM     30  C   UNL     1      -4.319  13.688  21.765  0.00  0.00    +0.000 C 
BRANCH  30  31
ATOM     31  C   UNL     1      -4.221  13.218  23.210  0.00  0.00    +0.000 C 
BRANCH  31  32
ATOM     32  C   UNL     1      -3.134  12.163  23.353  0.00  0.00    +0.000 C 
BRANCH  32  33
ATOM     33  C   UNL     1      -2.162  12.244  22.185  0.00  0.00    +0.000 C 
BRANCH  33  34
ATOM     34  C   UNL     1      -0.748  11.909  22.641  0.00  0.00    +0.000 C 
ATOM     35  C   UNL     1      -0.599  10.413  22.844  0.00  0.00    +0.000 C 
ENDBRANCH  33  34
ENDBRANCH  32  33
ENDBRANCH  31  32
ENDBRANCH  30  31
ENDBRANCH  29  30
ENDBRANCH  28  29
ENDBRANCH  27  28
ENDBRANCH  26  27
ENDBRANCH  25  26
ENDBRANCH  22  25
ENDBRANCH  20  21
ENDBRANCH  19  20
ENDBRANCH   1  19
TORSDOF 28
ENDMDL
MODEL 6
REMARK VINA RESULT:      -5.2      3.048     11.679
REMARK  Name = 
REMARK  30 active torsions:
REMARK  status: ('A' for Active; 'I' for Inactive)
REMARK    1  A    between atoms: C_1  and  C_2
REMARK    2  A    between atoms: C_2  and  C_3
REMARK    3  A    between atoms: C_3  and  C_4
REMARK    4  A    between atoms: C_4  and  C_5
REMARK    5  A    between atoms: C_5  and  C_6
REMARK    6  A    between atoms: C_6  and  C_7
REMARK    7  A    between atoms: C_7  and  C_8
REMARK    8  A    between atoms: C_8  and  C_9
REMARK    9  A    between atoms: C_9  and  C_10
REMARK   10  A    between atoms: C_10  and  C_11
REMARK   11  A    between atoms: C_11  and  C_12
REMARK   12  A    between atoms: C_12  and  O_13
REMARK   13  A    between atoms: O_13  and  C_14
REMARK   14  A    between atoms: C_14  and  C_16
REMARK   15  A    between atoms: C_16  and  C_17
REMARK   16  A    between atoms: C_17  and  C_18
REMARK   17  A    between atoms: C_18  and  C_19
REMARK   18  A    between atoms: C_19  and  C_20
REMARK   19  A    between atoms: C_20  and  N_21
REMARK   20  A    between atoms: C_22  and  O_24
REMARK   21  A    between atoms: O_24  and  C_25
REMARK   22  A    between atoms: C_25  and  C_26
REMARK   23  A    between atoms: C_26  and  C_27
REMARK   24  A    between atoms: C_27  and  C_28
REMARK   25  A    between atoms: C_28  and  C_29
REMARK   26  A    between atoms: C_29  and  C_30
REMARK   27  A    between atoms: C_30  and  C_31
REMARK   28  A    between atoms: C_31  and  C_32
REMARK   29  A    between atoms: C_32  and  C_33
REMARK   30  A    between atoms: C_33  and  C_34
REMARK                            x       y       z     vdW  Elec       q    Type
REMARK                         _______ _______ _______ _____ _____    ______ ____
ROOT
ATOM      1  C   UNL     1       2.064   7.097  20.462  0.00  0.00    +0.000 C 
ENDROOT
BRANCH   1   2
ATOM      2  C   UNL     1       1.378   8.465  20.548  0.00  0.00    +0.000 C 
BRANCH   2   3
ATOM      3  C   UNL     1       0.250   8.514  21.589  0.00  0.00    +0.000 C 
BRANCH   3   4
ATOM      4  C   UNL     1       0.249   9.859  22.306  0.00  0.00    +0.000 C 
ATOM      5  O   UNL     1      -0.345  10.097  23.331  0.00  0.00    +0.000 OA
BRANCH   4   6
ATOM      6  O   UNL     1       0.964  10.778  21.588  0.00  0.00    +0.000 OA
BRANCH   6   7
ATOM      7  C   UNL     1       0.138  11.750  20.925  0.00  0.00    +0.000 C 
BRANCH   7   8
ATOM      8  C   UNL     1       0.121  11.534  19.418  0.00  0.00    +0.000 C 
BRANCH   8   9
ATOM      9  C   UNL     1      -1.302  11.603  18.870  0.00  0.00    +0.000 C 
BRANCH   9  10
ATOM     10  C   UNL     1      -1.567  10.454  17.906  0.00  0.00    +0.000 C 
BRANCH  10  11
ATOM     11  C   UNL     1      -2.217  10.965  16.629  0.00  0.00    +0.000 C 
BRANCH  11  12
ATOM     12  C   UNL     1      -3.614  10.382  16.480  0.00  0.00    +0.000 C 
BRANCH  12  13
ATOM     13  C   UNL     1      -4.338  10.412  17.815  0.00  0.00    +0.000 C 
BRANCH  13  14
ATOM     14  C   UNL     1      -5.481  11.412  17.768  0.00  0.00    +0.000 C 
BRANCH  14  15
ATOM     15  C   UNL     1      -6.533  11.052  18.802  0.00  0.00    +0.000 C 
BRANCH  15  16
ATOM     16  C   UNL     1      -6.539  12.080  19.922  0.00  0.00    +0.000 C 
BRANCH  16  18
ATOM     17  C   UNL     1      -7.917  10.199  20.810  0.00  0.00    +0.000 C 
ATOM     18  C   UNL     1      -7.364  11.580  21.100  0.00  0.00    +0.000 C 
ENDBRANCH  16  18
ENDBRANCH  15  16
ENDBRANCH  14  15
ENDBRANCH  13  14
ENDBRANCH  12  13
ENDBRANCH  11  12
ENDBRANCH  10  11
ENDBRANCH   9  10
ENDBRANCH   8   9
ENDBRANCH   7   8
ENDBRANCH   6   7
ENDBRANCH   4   6
ENDBRANCH   3   4
ENDBRANCH   2   3
ENDBRANCH   1   2
BRANCH   1  19
ATOM     19  C   UNL     1       1.093   5.957  20.827  0.00  0.00    +0.000 C 
BRANCH  19  20
ATOM     20  C   UNL     1       1.606   4.595  20.342  0.00  0.00    +0.000 C 
BRANCH  20  21
ATOM     21  N   UNL     1       3.043   4.556  20.113  0.00  0.00    +0.000 N 
ATOM     22  C   UNL     1       3.573   4.682  18.854  0.00  0.00    +0.000 C 
ATOM     23  O   UNL     1       2.909   4.813  17.834  0.00  0.00    +0.000 OA
ATOM     24  H   UNL     1       3.692   4.436  20.880  0.00  0.00    +0.000 HD
BRANCH  22  25
ATOM     25  O   UNL     1       4.930   4.582  18.884  0.00  0.00    +0.000 OA
BRANCH  25  26
ATOM     26  C   UNL     1       5.523   4.232  17.615  0.00  0.00    +0.000 C 
BRANCH  26  27
ATOM     27  C   UNL     1       6.913   4.838  17.430  0.00  0.00    +0.000 C 
BRANCH  27  28
ATOM     28  C   UNL     1       7.433   4.645  16.002  0.00  0.00    +0.000 C 
BRANCH  28  29
ATOM     29  C   UNL     1       6.342   4.944  14.974  0.00  0.00    +0.000 C 
BRANCH  29  30
ATOM     30  C   UNL     1       6.849   4.705  13.555  0.00  0.00    +0.000 C 
BRANCH  30  31
ATOM     31  C   UNL     1       6.255   3.425  12.984  0.00  0.00    +0.000 C 
BRANCH  31  32
ATOM     32  C   UNL     1       4.831   3.666  12.506  0.00  0.00    +0.000 C 
BRANCH  32  33
ATOM     33  C   UNL     1       4.670   3.201  11.066  0.00  0.00    +0.000 C 
BRANCH  33  34
ATOM     34  C   UNL     1       3.200   3.176  10.673  0.00  0.00    +0.000 C 
ATOM     35  C   UNL     1       2.925   4.201   9.589  0.00  0.00    +0.000 C 
ENDBRANCH  33  34
ENDBRANCH  32  33
ENDBRANCH  31  32
ENDBRANCH  30  31
ENDBRANCH  29  30
ENDBRANCH  28  29
ENDBRANCH  27  28
ENDBRANCH  26  27
ENDBRANCH  25  26
ENDBRANCH  22  25
ENDBRANCH  20  21
ENDBRANCH  19  20
ENDBRANCH   1  19
TORSDOF 28
ENDMDL
MODEL 7
REMARK VINA RESULT:      -5.2      4.084     11.976
REMARK  Name = 
REMARK  30 active torsions:
REMARK  status: ('A' for Active; 'I' for Inactive)
REMARK    1  A    between atoms: C_1  and  C_2
REMARK    2  A    between atoms: C_2  and  C_3
REMARK    3  A    between atoms: C_3  and  C_4
REMARK    4  A    between atoms: C_4  and  C_5
REMARK    5  A    between atoms: C_5  and  C_6
REMARK    6  A    between atoms: C_6  and  C_7
REMARK    7  A    between atoms: C_7  and  C_8
REMARK    8  A    between atoms: C_8  and  C_9
REMARK    9  A    between atoms: C_9  and  C_10
REMARK   10  A    between atoms: C_10  and  C_11
REMARK   11  A    between atoms: C_11  and  C_12
REMARK   12  A    between atoms: C_12  and  O_13
REMARK   13  A    between atoms: O_13  and  C_14
REMARK   14  A    between atoms: C_14  and  C_16
REMARK   15  A    between atoms: C_16  and  C_17
REMARK   16  A    between atoms: C_17  and  C_18
REMARK   17  A    between atoms: C_18  and  C_19
REMARK   18  A    between atoms: C_19  and  C_20
REMARK   19  A    between atoms: C_20  and  N_21
REMARK   20  A    between atoms: C_22  and  O_24
REMARK   21  A    between atoms: O_24  and  C_25
REMARK   22  A    between atoms: C_25  and  C_26
REMARK   23  A    between atoms: C_26  and  C_27
REMARK   24  A    between atoms: C_27  and  C_28
REMARK   25  A    between atoms: C_28  and  C_29
REMARK   26  A    between atoms: C_29  and  C_30
REMARK   27  A    between atoms: C_30  and  C_31
REMARK   28  A    between atoms: C_31  and  C_32
REMARK   29  A    between atoms: C_32  and  C_33
REMARK   30  A    between atoms: C_33  and  C_34
REMARK                            x       y       z     vdW  Elec       q    Type
REMARK                         _______ _______ _______ _____ _____    ______ ____
ROOT
ATOM      1  C   UNL     1       2.452   5.477  17.899  0.00  0.00    +0.000 C 
ENDROOT
BRANCH   1   2
ATOM      2  C   UNL     1       2.315   6.846  18.574  0.00  0.00    +0.000 C 
BRANCH   2   3
ATOM      3  C   UNL     1       2.997   7.979  17.792  0.00  0.00    +0.000 C 
BRANCH   3   4
ATOM      4  C   UNL     1       2.130   9.233  17.811  0.00  0.00    +0.000 C 
ATOM      5  O   UNL     1       2.526  10.352  17.582  0.00  0.00    +0.000 OA
BRANCH   4   6
ATOM      6  O   UNL     1       0.854   8.920  18.190  0.00  0.00    +0.000 OA
BRANCH   6   7
ATOM      7  C   UNL     1      -0.014  10.063  18.270  0.00  0.00    +0.000 C 
BRANCH   7   8
ATOM      8  C   UNL     1      -1.449   9.701  17.917  0.00  0.00    +0.000 C 
BRANCH   8   9
ATOM      9  C   UNL     1      -2.248  10.944  17.529  0.00  0.00    +0.000 C 
BRANCH   9  10
ATOM     10  C   UNL     1      -3.573  10.555  16.886  0.00  0.00    +0.000 C 
BRANCH  10  11
ATOM     11  C   UNL     1      -4.599  11.666  17.060  0.00  0.00    +0.000 C 
BRANCH  11  12
ATOM     12  C   UNL     1      -5.362  11.479  18.362  0.00  0.00    +0.000 C 
BRANCH  12  13
ATOM     13  C   UNL     1      -5.016  12.592  19.336  0.00  0.00    +0.000 C 
BRANCH  13  14
ATOM     14  C   UNL     1      -5.579  12.277  20.711  0.00  0.00    +0.000 C 
BRANCH  14  15
ATOM     15  C   UNL     1      -4.989  13.220  21.746  0.00  0.00    +0.000 C 
BRANCH  15  16
ATOM     16  C   UNL     1      -5.565  12.915  23.120  0.00  0.00    +0.000 C 
BRANCH  16  18
ATOM     17  C   UNL     1      -3.192  12.273  23.543  0.00  0.00    +0.000 C 
ATOM     18  C   UNL     1      -4.455  12.842  24.159  0.00  0.00    +0.000 C 
ENDBRANCH  16  18
ENDBRANCH  15  16
ENDBRANCH  14  15
ENDBRANCH  13  14
ENDBRANCH  12  13
ENDBRANCH  11  12
ENDBRANCH  10  11
ENDBRANCH   9  10
ENDBRANCH   8   9
ENDBRANCH   7   8
ENDBRANCH   6   7
ENDBRANCH   4   6
ENDBRANCH   3   4
ENDBRANCH   2   3
ENDBRANCH   1   2
BRANCH   1  19
ATOM     19  C   UNL     1       2.949   4.408  18.892  0.00  0.00    +0.000 C 
BRANCH  19  20
ATOM     20  C   UNL     1       3.996   3.484  18.257  0.00  0.00    +0.000 C 
BRANCH  20  21
ATOM     21  N   UNL     1       5.309   4.095  18.115  0.00  0.00    +0.000 N 
ATOM     22  C   UNL     1       5.882   4.289  16.883  0.00  0.00    +0.000 C 
ATOM     23  O   UNL     1       5.367   3.960  15.822  0.00  0.00    +0.000 OA
ATOM     24  H   UNL     1       5.838   4.394  18.924  0.00  0.00    +0.000 HD
BRANCH  22  25
ATOM     25  O   UNL     1       7.119   4.843  17.002  0.00  0.00    +0.000 OA
BRANCH  25  26
ATOM     26  C   UNL     1       7.159   6.260  16.731  0.00  0.00    +0.000 C 
BRANCH  26  27
ATOM     27  C   UNL     1       7.466   7.088  17.977  0.00  0.00    +0.000 C 
BRANCH  27  28
ATOM     28  C   UNL     1       7.926   8.506  17.621  0.00  0.00    +0.000 C 
BRANCH  28  29
ATOM     29  C   UNL     1       8.776   9.106  18.739  0.00  0.00    +0.000 C 
BRANCH  29  30
ATOM     30  C   UNL     1       9.118  10.562  18.443  0.00  0.00    +0.000 C 
BRANCH  30  31
ATOM     31  C   UNL     1      10.301  11.015  19.289  0.00  0.00    +0.000 C 
BRANCH  31  32
ATOM     32  C   UNL     1      10.735  12.418  18.887  0.00  0.00    +0.000 C 
BRANCH  32  33
ATOM     33  C   UNL     1      11.112  12.453  17.413  0.00  0.00    +0.000 C 
BRANCH  33  34
ATOM     34  C   UNL     1      11.129  13.886  16.900  0.00  0.00    +0.000 C 
ATOM     35  C   UNL     1      10.252  14.769  17.767  0.00  0.00    +0.000 C 
ENDBRANCH  33  34
ENDBRANCH  32  33
ENDBRANCH  31  32
ENDBRANCH  30  31
ENDBRANCH  29  30
ENDBRANCH  28  29
ENDBRANCH  27  28
ENDBRANCH  26  27
ENDBRANCH  25  26
ENDBRANCH  22  25
ENDBRANCH  20  21
ENDBRANCH  19  20
ENDBRANCH   1  19
TORSDOF 28
ENDMDL
MODEL 8
REMARK VINA RESULT:      -5.1      5.315     10.067
REMARK  Name = 
REMARK  30 active torsions:
REMARK  status: ('A' for Active; 'I' for Inactive)
REMARK    1  A    between atoms: C_1  and  C_2
REMARK    2  A    between atoms: C_2  and  C_3
REMARK    3  A    between atoms: C_3  and  C_4
REMARK    4  A    between atoms: C_4  and  C_5
REMARK    5  A    between atoms: C_5  and  C_6
REMARK    6  A    between atoms: C_6  and  C_7
REMARK    7  A    between atoms: C_7  and  C_8
REMARK    8  A    between atoms: C_8  and  C_9
REMARK    9  A    between atoms: C_9  and  C_10
REMARK   10  A    between atoms: C_10  and  C_11
REMARK   11  A    between atoms: C_11  and  C_12
REMARK   12  A    between atoms: C_12  and  O_13
REMARK   13  A    between atoms: O_13  and  C_14
REMARK   14  A    between atoms: C_14  and  C_16
REMARK   15  A    between atoms: C_16  and  C_17
REMARK   16  A    between atoms: C_17  and  C_18
REMARK   17  A    between atoms: C_18  and  C_19
REMARK   18  A    between atoms: C_19  and  C_20
REMARK   19  A    between atoms: C_20  and  N_21
REMARK   20  A    between atoms: C_22  and  O_24
REMARK   21  A    between atoms: O_24  and  C_25
REMARK   22  A    between atoms: C_25  and  C_26
REMARK   23  A    between atoms: C_26  and  C_27
REMARK   24  A    between atoms: C_27  and  C_28
REMARK   25  A    between atoms: C_28  and  C_29
REMARK   26  A    between atoms: C_29  and  C_30
REMARK   27  A    between atoms: C_30  and  C_31
REMARK   28  A    between atoms: C_31  and  C_32
REMARK   29  A    between atoms: C_32  and  C_33
REMARK   30  A    between atoms: C_33  and  C_34
REMARK                            x       y       z     vdW  Elec       q    Type
REMARK                         _______ _______ _______ _____ _____    ______ ____
ROOT
ATOM      1  C   UNL     1       6.614   6.025  17.020  0.00  0.00    +0.000 C 
ENDROOT
BRANCH   1   2
ATOM      2  C   UNL     1       7.668   5.704  18.086  0.00  0.00    +0.000 C 
BRANCH   2   3
ATOM      3  C   UNL     1       8.103   6.932  18.898  0.00  0.00    +0.000 C 
BRANCH   3   4
ATOM      4  C   UNL     1       8.148   8.169  18.008  0.00  0.00    +0.000 C 
ATOM      5  O   UNL     1       7.780   8.208  16.858  0.00  0.00    +0.000 OA
BRANCH   4   6
ATOM      6  O   UNL     1       8.728   9.212  18.677  0.00  0.00    +0.000 OA
BRANCH   6   7
ATOM      7  C   UNL     1       8.602  10.469  17.992  0.00  0.00    +0.000 C 
BRANCH   7   8
ATOM      8  C   UNL     1       9.934  11.202  17.921  0.00  0.00    +0.000 C 
BRANCH   8   9
ATOM      9  C   UNL     1       9.724  12.711  17.807  0.00  0.00    +0.000 C 
BRANCH   9  10
ATOM     10  C   UNL     1       9.714  13.360  19.185  0.00  0.00    +0.000 C 
BRANCH  10  11
ATOM     11  C   UNL     1      10.803  12.764  20.066  0.00  0.00    +0.000 C 
BRANCH  11  12
ATOM     12  C   UNL     1      10.184  11.982  21.213  0.00  0.00    +0.000 C 
BRANCH  12  13
ATOM     13  C   UNL     1       8.812  12.543  21.548  0.00  0.00    +0.000 C 
BRANCH  13  14
ATOM     14  C   UNL     1       8.790  13.051  22.979  0.00  0.00    +0.000 C 
BRANCH  14  15
ATOM     15  C   UNL     1       8.273  11.967  23.910  0.00  0.00    +0.000 C 
BRANCH  15  16
ATOM     16  C   UNL     1       7.812  12.580  25.222  0.00  0.00    +0.000 C 
BRANCH  16  18
ATOM     17  C   UNL     1       5.778  11.142  25.112  0.00  0.00    +0.000 C 
ATOM     18  C   UNL     1       6.926  11.605  25.985  0.00  0.00    +0.000 C 
ENDBRANCH  16  18
ENDBRANCH  15  16
ENDBRANCH  14  15
ENDBRANCH  13  14
ENDBRANCH  12  13
ENDBRANCH  11  12
ENDBRANCH  10  11
ENDBRANCH   9  10
ENDBRANCH   8   9
ENDBRANCH   7   8
ENDBRANCH   6   7
ENDBRANCH   4   6
ENDBRANCH   3   4
ENDBRANCH   2   3
ENDBRANCH   1   2
BRANCH   1  19
ATOM     19  C   UNL     1       5.573   4.895  16.900  0.00  0.00    +0.000 C 
BRANCH  19  20
ATOM     20  C   UNL     1       5.534   4.021  18.161  0.00  0.00    +0.000 C 
BRANCH  20  21
ATOM     21  N   UNL     1       4.393   3.119  18.215  0.00  0.00    +0.000 N 
ATOM     22  C   UNL     1       4.184   2.289  19.287  0.00  0.00    +0.000 C 
ATOM     23  O   UNL     1       4.923   2.217  20.260  0.00  0.00    +0.000 OA
ATOM     24  H   UNL     1       3.721   3.080  17.460  0.00  0.00    +0.000 HD
BRANCH  22  25
ATOM     25  O   UNL     1       3.079   1.519  19.099  0.00  0.00    +0.000 OA
BRANCH  25  26
ATOM     26  C   UNL     1       2.081   2.117  18.244  0.00  0.00    +0.000 C 
BRANCH  26  27
ATOM     27  C   UNL     1       0.864   2.614  19.020  0.00  0.00    +0.000 C 
BRANCH  27  28
ATOM     28  C   UNL     1       1.245   3.127  20.412  0.00  0.00    +0.000 C 
BRANCH  28  29
ATOM     29  C   UNL     1       1.259   4.655  20.451  0.00  0.00    +0.000 C 
BRANCH  29  30
ATOM     30  C   UNL     1       1.857   5.228  19.171  0.00  0.00    +0.000 C 
BRANCH  30  31
ATOM     31  C   UNL     1       2.882   6.306  19.496  0.00  0.00    +0.000 C 
BRANCH  31  32
ATOM     32  C   UNL     1       3.076   7.232  18.304  0.00  0.00    +0.000 C 
BRANCH  32  33
ATOM     33  C   UNL     1       1.784   7.977  17.998  0.00  0.00    +0.000 C 
BRANCH  33  34
ATOM     34  C   UNL     1       2.033   9.478  17.938  0.00  0.00    +0.000 C 
ATOM     35  C   UNL     1       0.939  10.226  18.676  0.00  0.00    +0.000 C 
ENDBRANCH  33  34
ENDBRANCH  32  33
ENDBRANCH  31  32
ENDBRANCH  30  31
ENDBRANCH  29  30
ENDBRANCH  28  29
ENDBRANCH  27  28
ENDBRANCH  26  27
ENDBRANCH  25  26
ENDBRANCH  22  25
ENDBRANCH  20  21
ENDBRANCH  19  20
ENDBRANCH   1  19
TORSDOF 28
ENDMDL
MODEL 9
REMARK VINA RESULT:      -5.1      3.441      6.279
REMARK  Name = 
REMARK  30 active torsions:
REMARK  status: ('A' for Active; 'I' for Inactive)
REMARK    1  A    between atoms: C_1  and  C_2
REMARK    2  A    between atoms: C_2  and  C_3
REMARK    3  A    between atoms: C_3  and  C_4
REMARK    4  A    between atoms: C_4  and  C_5
REMARK    5  A    between atoms: C_5  and  C_6
REMARK    6  A    between atoms: C_6  and  C_7
REMARK    7  A    between atoms: C_7  and  C_8
REMARK    8  A    between atoms: C_8  and  C_9
REMARK    9  A    between atoms: C_9  and  C_10
REMARK   10  A    between atoms: C_10  and  C_11
REMARK   11  A    between atoms: C_11  and  C_12
REMARK   12  A    between atoms: C_12  and  O_13
REMARK   13  A    between atoms: O_13  and  C_14
REMARK   14  A    between atoms: C_14  and  C_16
REMARK   15  A    between atoms: C_16  and  C_17
REMARK   16  A    between atoms: C_17  and  C_18
REMARK   17  A    between atoms: C_18  and  C_19
REMARK   18  A    between atoms: C_19  and  C_20
REMARK   19  A    between atoms: C_20  and  N_21
REMARK   20  A    between atoms: C_22  and  O_24
REMARK   21  A    between atoms: O_24  and  C_25
REMARK   22  A    between atoms: C_25  and  C_26
REMARK   23  A    between atoms: C_26  and  C_27
REMARK   24  A    between atoms: C_27  and  C_28
REMARK   25  A    between atoms: C_28  and  C_29
REMARK   26  A    between atoms: C_29  and  C_30
REMARK   27  A    between atoms: C_30  and  C_31
REMARK   28  A    between atoms: C_31  and  C_32
REMARK   29  A    between atoms: C_32  and  C_33
REMARK   30  A    between atoms: C_33  and  C_34
REMARK                            x       y       z     vdW  Elec       q    Type
REMARK                         _______ _______ _______ _____ _____    ______ ____
ROOT
ATOM      1  C   UNL     1       1.480   5.054  20.027  0.00  0.00    +0.000 C 
ENDROOT
BRANCH   1   2
ATOM      2  C   UNL     1       1.194   3.980  21.082  0.00  0.00    +0.000 C 
BRANCH   2   3
ATOM      3  C   UNL     1       1.778   2.606  20.724  0.00  0.00    +0.000 C 
BRANCH   3   4
ATOM      4  C   UNL     1       1.410   2.230  19.292  0.00  0.00    +0.000 C 
ATOM      5  O   UNL     1       0.286   2.206  18.850  0.00  0.00    +0.000 OA
BRANCH   4   6
ATOM      6  O   UNL     1       2.529   1.860  18.598  0.00  0.00    +0.000 OA
BRANCH   6   7
ATOM      7  C   UNL     1       2.593   2.424  17.278  0.00  0.00    +0.000 C 
BRANCH   7   8
ATOM      8  C   UNL     1       3.944   3.072  17.012  0.00  0.00    +0.000 C 
BRANCH   8   9
ATOM      9  C   UNL     1       4.370   3.954  18.184  0.00  0.00    +0.000 C 
BRANCH   9  10
ATOM     10  C   UNL     1       4.017   5.411  17.920  0.00  0.00    +0.000 C 
BRANCH  10  11
ATOM     11  C   UNL     1       5.277   6.234  17.689  0.00  0.00    +0.000 C 
BRANCH  11  12
ATOM     12  C   UNL     1       6.442   5.640  18.464  0.00  0.00    +0.000 C 
BRANCH  12  13
ATOM     13  C   UNL     1       7.532   5.188  17.506  0.00  0.00    +0.000 C 
BRANCH  13  14
ATOM     14  C   UNL     1       7.134   5.506  16.074  0.00  0.00    +0.000 C 
BRANCH  14  15
ATOM     15  C   UNL     1       6.909   4.220  15.297  0.00  0.00    +0.000 C 
BRANCH  15  16
ATOM     16  C   UNL     1       5.972   4.474  14.127  0.00  0.00    +0.000 C 
BRANCH  16  18
ATOM     17  C   UNL     1       5.509   3.089  12.105  0.00  0.00    +0.000 C 
ATOM     18  C   UNL     1       6.555   3.900  12.843  0.00  0.00    +0.000 C 
ENDBRANCH  16  18
ENDBRANCH  15  16
ENDBRANCH  14  15
ENDBRANCH  13  14
ENDBRANCH  12  13
ENDBRANCH  11  12
ENDBRANCH  10  11
ENDBRANCH   9  10
ENDBRANCH   8   9
ENDBRANCH   7   8
ENDBRANCH   6   7
ENDBRANCH   4   6
ENDBRANCH   3   4
ENDBRANCH   2   3
ENDBRANCH   1   2
BRANCH   1  19
ATOM     19  C   UNL     1       1.490   6.464  20.648  0.00  0.00    +0.000 C 
BRANCH  19  20
ATOM     20  C   UNL     1       2.313   7.450  19.808  0.00  0.00    +0.000 C 
BRANCH  20  21
ATOM     21  N   UNL     1       1.587   8.656  19.441  0.00  0.00    +0.000 N 
ATOM     22  C   UNL     1       1.636   9.165  18.168  0.00  0.00    +0.000 C 
ATOM     23  O   UNL     1       2.291   8.680  17.254  0.00  0.00    +0.000 OA
ATOM     24  H   UNL     1       1.023   9.155  20.118  0.00  0.00    +0.000 HD
BRANCH  22  25
ATOM     25  O   UNL     1       0.909  10.311  18.072  0.00  0.00    +0.000 OA
BRANCH  25  26
ATOM     26  C   UNL     1      -0.176  10.402  19.020  0.00  0.00    +0.000 C 
BRANCH  26  27
ATOM     27  C   UNL     1      -1.326  11.270  18.514  0.00  0.00    +0.000 C 
BRANCH  27  28
ATOM     28  C   UNL     1      -1.317  12.661  19.158  0.00  0.00    +0.000 C 
BRANCH  28  29
ATOM     29  C   UNL     1      -0.325  13.586  18.455  0.00  0.00    +0.000 C 
BRANCH  29  30
ATOM     30  C   UNL     1       0.563  14.303  19.466  0.00  0.00    +0.000 C 
BRANCH  30  31
ATOM     31  C   UNL     1       2.004  13.825  19.346  0.00  0.00    +0.000 C 
BRANCH  31  32
ATOM     32  C   UNL     1       2.887  14.934  18.792  0.00  0.00    +0.000 C 
BRANCH  32  33
ATOM     33  C   UNL     1       4.170  14.351  18.217  0.00  0.00    +0.000 C 
BRANCH  33  34
ATOM     34  C   UNL     1       5.387  15.043  18.815  0.00  0.00    +0.000 C 
ATOM     35  C   UNL     1       6.533  15.049  17.821  0.00  0.00    +0.000 C 
ENDBRANCH  33  34
ENDBRANCH  32  33
ENDBRANCH  31  32
ENDBRANCH  30  31
ENDBRANCH  29  30
ENDBRANCH  28  29
ENDBRANCH  27  28
ENDBRANCH  26  27
ENDBRANCH  25  26
ENDBRANCH  22  25
ENDBRANCH  20  21
ENDBRANCH  19  20
ENDBRANCH   1  19
TORSDOF 28
ENDMDL
