MODEL 1
REMARK VINA RESULT:      -5.2      0.000      0.000
REMARK  Name = 
REMARK  3 active torsions:
REMARK  status: ('A' for Active; 'I' for Inactive)
REMARK    1  A    between atoms: C_1  and  O_2
REMARK    2  A    between atoms: O_2  and  C_3
REMARK    3  A    between atoms: C_7  and  C_8
REMARK                            x       y       z     vdW  Elec       q    Type
REMARK                         _______ _______ _______ _____ _____    ______ ____
ROOT
ATOM      1  C   UNL     1       3.070   4.928  18.016  0.00  0.00    +0.000 A 
ATOM      2  C   UNL     1       3.678   3.768  17.509  0.00  0.00    +0.000 A 
ATOM      3 CL   UNL     1       3.056   2.173  17.749  0.00  0.00    +0.000 Cl
ATOM      4  C   UNL     1       4.817   3.859  16.699  0.00  0.00    +0.000 A 
ATOM      5  C   UNL     1       5.340   5.105  16.345  0.00  0.00    +0.000 A 
ATOM      6  C   UNL     1       4.712   6.267  16.793  0.00  0.00    +0.000 A 
ATOM      7  C   UNL     1       3.586   6.175  17.619  0.00  0.00    +0.000 A 
ATOM      8 CL   UNL     1       2.861   7.659  18.137  0.00  0.00    +0.000 Cl
ENDROOT
BRANCH   1  10
ATOM      9  C   UNL     1       2.173   4.780  20.206  0.00  0.00    +0.000 C 
ATOM     10  O   UNL     1       1.950   4.950  18.808  0.00  0.00    +0.000 OA
ENDBRANCH   1  10
BRANCH   5  11
ATOM     11  C   UNL     1       6.505   5.183  15.517  0.00  0.00    +0.000 C 
ATOM     12  N   UNL     1       7.459   5.241  14.859  0.00  0.00    +0.000 NA
ENDBRANCH   5  11
TORSDOF 2
ENDMDL
MODEL 2
REMARK VINA RESULT:      -5.2      0.366      2.665
REMARK  Name = 
REMARK  3 active torsions:
REMARK  status: ('A' for Active; 'I' for Inactive)
REMARK    1  A    between atoms: C_1  and  O_2
REMARK    2  A    between atoms: O_2  and  C_3
REMARK    3  A    between atoms: C_7  and  C_8
REMARK                            x       y       z     vdW  Elec       q    Type
REMARK                         _______ _______ _______ _____ _____    ______ ____
ROOT
ATOM      1  C   UNL     1       2.765   4.772  17.980  0.00  0.00    +0.000 A 
ATOM      2  C   UNL     1       3.339   6.041  17.798  0.00  0.00    +0.000 A 
ATOM      3 CL   UNL     1       2.707   7.490  18.498  0.00  0.00    +0.000 Cl
ATOM      4  C   UNL     1       4.529   6.185  17.075  0.00  0.00    +0.000 A 
ATOM      5  C   UNL     1       5.189   5.066  16.561  0.00  0.00    +0.000 A 
ATOM      6  C   UNL     1       4.663   3.795  16.785  0.00  0.00    +0.000 A 
ATOM      7  C   UNL     1       3.463   3.652  17.490  0.00  0.00    +0.000 A 
ATOM      8 CL   UNL     1       2.869   2.043  17.726  0.00  0.00    +0.000 Cl
ENDROOT
BRANCH   1  10
ATOM      9  C   UNL     1       1.737   4.484  20.097  0.00  0.00    +0.000 C 
ATOM     10  O   UNL     1       1.611   4.519  18.677  0.00  0.00    +0.000 OA
ENDBRANCH   1  10
BRANCH   5  11
ATOM     11  C   UNL     1       6.405   5.230  15.823  0.00  0.00    +0.000 C 
ATOM     12  N   UNL     1       7.381   5.368  15.212  0.00  0.00    +0.000 NA
ENDBRANCH   5  11
TORSDOF 2
ENDMDL
MODEL 3
REMARK VINA RESULT:      -5.1      1.724      3.245
REMARK  Name = 
REMARK  3 active torsions:
REMARK  status: ('A' for Active; 'I' for Inactive)
REMARK    1  A    between atoms: C_1  and  O_2
REMARK    2  A    between atoms: O_2  and  C_3
REMARK    3  A    between atoms: C_7  and  C_8
REMARK                            x       y       z     vdW  Elec       q    Type
REMARK                         _______ _______ _______ _____ _____    ______ ____
ROOT
ATOM      1  C   UNL     1       2.560   3.776  19.322  0.00  0.00    +0.000 A 
ATOM      2  C   UNL     1       2.548   5.180  19.358  0.00  0.00    +0.000 A 
ATOM      3 CL   UNL     1       1.720   6.104  20.561  0.00  0.00    +0.000 Cl
ATOM      4  C   UNL     1       3.289   5.920  18.428  0.00  0.00    +0.000 A 
ATOM      5  C   UNL     1       4.087   5.275  17.480  0.00  0.00    +0.000 A 
ATOM      6  C   UNL     1       4.155   3.882  17.471  0.00  0.00    +0.000 A 
ATOM      7  C   UNL     1       3.399   3.142  18.386  0.00  0.00    +0.000 A 
ATOM      8 CL   UNL     1       3.532   1.418  18.314  0.00  0.00    +0.000 Cl
ENDROOT
BRANCH   1  10
ATOM      9  C   UNL     1       2.469   2.789  21.476  0.00  0.00    +0.000 C 
ATOM     10  O   UNL     1       1.880   2.958  20.189  0.00  0.00    +0.000 OA
ENDBRANCH   1  10
BRANCH   5  11
ATOM     11  C   UNL     1       4.838   6.045  16.536  0.00  0.00    +0.000 C 
ATOM     12  N   UNL     1       5.436   6.665  15.758  0.00  0.00    +0.000 NA
ENDBRANCH   5  11
TORSDOF 2
ENDMDL
MODEL 4
REMARK VINA RESULT:      -5.1      3.127      4.707
REMARK  Name = 
REMARK  3 active torsions:
REMARK  status: ('A' for Active; 'I' for Inactive)
REMARK    1  A    between atoms: C_1  and  O_2
REMARK    2  A    between atoms: O_2  and  C_3
REMARK    3  A    between atoms: C_7  and  C_8
REMARK                            x       y       z     vdW  Elec       q    Type
REMARK                         _______ _______ _______ _____ _____    ______ ____
ROOT
ATOM      1  C   UNL     1       4.458   5.850  16.999  0.00  0.00    +0.000 A 
ATOM      2  C   UNL     1       3.314   6.289  17.686  0.00  0.00    +0.000 A 
ATOM      3 CL   UNL     1       2.952   7.953  17.984  0.00  0.00    +0.000 Cl
ATOM      4  C   UNL     1       2.346   5.372  18.114  0.00  0.00    +0.000 A 
ATOM      5  C   UNL     1       2.481   4.012  17.826  0.00  0.00    +0.000 A 
ATOM      6  C   UNL     1       3.581   3.568  17.093  0.00  0.00    +0.000 A 
ATOM      7  C   UNL     1       4.558   4.482  16.684  0.00  0.00    +0.000 A 
ATOM      8 CL   UNL     1       5.897   3.859  15.781  0.00  0.00    +0.000 Cl
ENDROOT
BRANCH   1  10
ATOM      9  C   UNL     1       6.522   6.930  17.440  0.00  0.00    +0.000 C 
ATOM     10  O   UNL     1       5.458   6.664  16.530  0.00  0.00    +0.000 OA
ENDBRANCH   1  10
BRANCH   5  11
ATOM     11  C   UNL     1       1.484   3.085  18.271  0.00  0.00    +0.000 C 
ATOM     12  N   UNL     1       0.664   2.342  18.622  0.00  0.00    +0.000 NA
ENDBRANCH   5  11
TORSDOF 2
ENDMDL
MODEL 5
REMARK VINA RESULT:      -5.0      3.074      3.835
REMARK  Name = 
REMARK  3 active torsions:
REMARK  status: ('A' for Active; 'I' for Inactive)
REMARK    1  A    between atoms: C_1  and  O_2
REMARK    2  A    between atoms: O_2  and  C_3
REMARK    3  A    between atoms: C_7  and  C_8
REMARK                            x       y       z     vdW  Elec       q    Type
REMARK                         _______ _______ _______ _____ _____    ______ ____
ROOT
ATOM      1  C   UNL     1       3.861   4.366  19.045  0.00  0.00    +0.000 A 
ATOM      2  C   UNL     1       4.288   4.950  17.841  0.00  0.00    +0.000 A 
ATOM      3 CL   UNL     1       5.290   4.146  16.685  0.00  0.00    +0.000 Cl
ATOM      4  C   UNL     1       3.849   6.230  17.478  0.00  0.00    +0.000 A 
ATOM      5  C   UNL     1       2.946   6.926  18.284  0.00  0.00    +0.000 A 
ATOM      6  C   UNL     1       2.467   6.335  19.452  0.00  0.00    +0.000 A 
ATOM      7  C   UNL     1       2.922   5.065  19.825  0.00  0.00    +0.000 A 
ATOM      8 CL   UNL     1       2.286   4.395  21.289  0.00  0.00    +0.000 Cl
ENDROOT
BRANCH   1  10
ATOM      9  C   UNL     1       3.518   2.024  18.907  0.00  0.00    +0.000 C 
ATOM     10  O   UNL     1       4.222   3.119  19.489  0.00  0.00    +0.000 OA
ENDBRANCH   1  10
BRANCH   5  11
ATOM     11  C   UNL     1       2.507   8.234  17.900  0.00  0.00    +0.000 C 
ATOM     12  N   UNL     1       2.141   9.287  17.577  0.00  0.00    +0.000 NA
ENDBRANCH   5  11
TORSDOF 2
ENDMDL
MODEL 6
REMARK VINA RESULT:      -5.0      3.131      3.956
REMARK  Name = 
REMARK  3 active torsions:
REMARK  status: ('A' for Active; 'I' for Inactive)
REMARK    1  A    between atoms: C_1  and  O_2
REMARK    2  A    between atoms: O_2  and  C_3
REMARK    3  A    between atoms: C_7  and  C_8
REMARK                            x       y       z     vdW  Elec       q    Type
REMARK                         _______ _______ _______ _____ _____    ______ ____
ROOT
ATOM      1  C   UNL     1       3.871   4.434  19.003  0.00  0.00    +0.000 A 
ATOM      2  C   UNL     1       2.901   5.097  19.773  0.00  0.00    +0.000 A 
ATOM      3 CL   UNL     1       2.273   4.485  21.262  0.00  0.00    +0.000 Cl
ATOM      4  C   UNL     1       2.435   6.361  19.391  0.00  0.00    +0.000 A 
ATOM      5  C   UNL     1       2.957   7.001  18.265  0.00  0.00    +0.000 A 
ATOM      6  C   UNL     1       3.963   6.381  17.525  0.00  0.00    +0.000 A 
ATOM      7  C   UNL     1       4.415   5.109  17.895  0.00  0.00    +0.000 A 
ATOM      8 CL   UNL     1       5.663   4.400  16.928  0.00  0.00    +0.000 Cl
ENDROOT
BRANCH   1  10
ATOM      9  C   UNL     1       3.626   2.079  18.881  0.00  0.00    +0.000 C 
ATOM     10  O   UNL     1       4.401   3.202  19.292  0.00  0.00    +0.000 OA
ENDBRANCH   1  10
BRANCH   5  11
ATOM     11  C   UNL     1       2.470   8.293  17.887  0.00  0.00    +0.000 C 
ATOM     12  N   UNL     1       2.078   9.337  17.563  0.00  0.00    +0.000 NA
ENDBRANCH   5  11
TORSDOF 2
ENDMDL
MODEL 7
REMARK VINA RESULT:      -5.0      1.594      1.967
REMARK  Name = 
REMARK  3 active torsions:
REMARK  status: ('A' for Active; 'I' for Inactive)
REMARK    1  A    between atoms: C_1  and  O_2
REMARK    2  A    between atoms: O_2  and  C_3
REMARK    3  A    between atoms: C_7  and  C_8
REMARK                            x       y       z     vdW  Elec       q    Type
REMARK                         _______ _______ _______ _____ _____    ______ ____
ROOT
ATOM      1  C   UNL     1       2.388   4.262  19.401  0.00  0.00    +0.000 A 
ATOM      2  C   UNL     1       3.017   3.526  18.384  0.00  0.00    +0.000 A 
ATOM      3 CL   UNL     1       2.788   1.829  18.144  0.00  0.00    +0.000 Cl
ATOM      4  C   UNL     1       3.833   4.167  17.443  0.00  0.00    +0.000 A 
ATOM      5  C   UNL     1       3.997   5.554  17.473  0.00  0.00    +0.000 A 
ATOM      6  C   UNL     1       3.331   6.305  18.440  0.00  0.00    +0.000 A 
ATOM      7  C   UNL     1       2.533   5.662  19.393  0.00  0.00    +0.000 A 
ATOM      8 CL   UNL     1       1.740   6.659  20.565  0.00  0.00    +0.000 Cl
ENDROOT
BRANCH   1  10
ATOM      9  C   UNL     1       2.216   3.185  21.506  0.00  0.00    +0.000 C 
ATOM     10  O   UNL     1       1.565   3.736  20.363  0.00  0.00    +0.000 OA
ENDBRANCH   1  10
BRANCH   5  11
ATOM     11  C   UNL     1       4.834   6.195  16.505  0.00  0.00    +0.000 C 
ATOM     12  N   UNL     1       5.511   6.730  15.728  0.00  0.00    +0.000 NA
ENDBRANCH   5  11
TORSDOF 2
ENDMDL
MODEL 8
REMARK VINA RESULT:      -5.0      2.093      2.917
REMARK  Name = 
REMARK  3 active torsions:
REMARK  status: ('A' for Active; 'I' for Inactive)
REMARK    1  A    between atoms: C_1  and  O_2
REMARK    2  A    between atoms: O_2  and  C_3
REMARK    3  A    between atoms: C_7  and  C_8
REMARK                            x       y       z     vdW  Elec       q    Type
REMARK                         _______ _______ _______ _____ _____    ______ ____
ROOT
ATOM      1  C   UNL     1       5.181   4.594  18.212  0.00  0.00    +0.000 A 
ATOM      2  C   UNL     1       6.455   5.177  18.115  0.00  0.00    +0.000 A 
ATOM      3 CL   UNL     1       7.400   5.655  19.481  0.00  0.00    +0.000 Cl
ATOM      4  C   UNL     1       7.068   5.340  16.867  0.00  0.00    +0.000 A 
ATOM      5  C   UNL     1       6.443   4.885  15.703  0.00  0.00    +0.000 A 
ATOM      6  C   UNL     1       5.205   4.251  15.790  0.00  0.00    +0.000 A 
ATOM      7  C   UNL     1       4.583   4.107  17.035  0.00  0.00    +0.000 A 
ATOM      8 CL   UNL     1       3.045   3.311  17.066  0.00  0.00    +0.000 Cl
ENDROOT
BRANCH   1  10
ATOM      9  C   UNL     1       3.597   5.413  19.774  0.00  0.00    +0.000 C 
ATOM     10  O   UNL     1       4.498   4.380  19.382  0.00  0.00    +0.000 OA
ENDBRANCH   1  10
BRANCH   5  11
ATOM     11  C   UNL     1       7.082   5.059  14.434  0.00  0.00    +0.000 C 
ATOM     12  N   UNL     1       7.585   5.198  13.397  0.00  0.00    +0.000 NA
ENDBRANCH   5  11
TORSDOF 2
ENDMDL
MODEL 9
REMARK VINA RESULT:      -5.0      1.127      2.882
REMARK  Name = 
REMARK  3 active torsions:
REMARK  status: ('A' for Active; 'I' for Inactive)
REMARK    1  A    between atoms: C_1  and  O_2
REMARK    2  A    between atoms: O_2  and  C_3
REMARK    3  A    between atoms: C_7  and  C_8
REMARK                            x       y       z     vdW  Elec       q    Type
REMARK                         _______ _______ _______ _____ _____    ______ ____
ROOT
ATOM      1  C   UNL     1       2.224   4.641  18.687  0.00  0.00    +0.000 A 
ATOM      2  C   UNL     1       2.739   5.948  18.690  0.00  0.00    +0.000 A 
ATOM      3 CL   UNL     1       2.214   7.185  19.777  0.00  0.00    +0.000 Cl
ATOM      4  C   UNL     1       3.786   6.300  17.829  0.00  0.00    +0.000 A 
ATOM      5  C   UNL     1       4.365   5.348  16.988  0.00  0.00    +0.000 A 
ATOM      6  C   UNL     1       3.904   4.032  17.017  0.00  0.00    +0.000 A 
ATOM      7  C   UNL     1       2.844   3.685  17.861  0.00  0.00    +0.000 A 
ATOM      8 CL   UNL     1       2.324   2.034  17.842  0.00  0.00    +0.000 Cl
ENDROOT
BRANCH   1  10
ATOM      9  C   UNL     1       1.581   3.844  20.826  0.00  0.00    +0.000 C 
ATOM     10  O   UNL     1       1.210   4.191  19.494  0.00  0.00    +0.000 OA
ENDBRANCH   1  10
BRANCH   5  11
ATOM     11  C   UNL     1       5.434   5.723  16.113  0.00  0.00    +0.000 C 
ATOM     12  N   UNL     1       6.303   6.011  15.399  0.00  0.00    +0.000 NA
ENDBRANCH   5  11
TORSDOF 2
ENDMDL
