MODEL 1
REMARK VINA RESULT:      -8.7      0.000      0.000
REMARK  Name = 
REMARK  5 active torsions:
REMARK  status: ('A' for Active; 'I' for Inactive)
REMARK    1  A    between atoms: N_1  and  C_2
REMARK    2  A    between atoms: N_6  and  C_7
REMARK    3  A    between atoms: C_7  and  C_8
REMARK    4  A    between atoms: C_11  and  C_12
REMARK    5  A    between atoms: C_16  and  C_17
REMARK                            x       y       z     vdW  Elec       q    Type
REMARK                         _______ _______ _______ _____ _____    ______ ____
ROOT
ATOM      1  C   UNL     1       2.742   6.132  18.793  0.00  0.00    +0.000 A 
ATOM      2  C   UNL     1       2.219   5.851  20.057  0.00  0.00    +0.000 A 
ATOM      3  C   UNL     1       1.579   6.846  20.812  0.00  0.00    +0.000 A 
ATOM      4  C   UNL     1       1.454   8.160  20.333  0.00  0.00    +0.000 A 
ATOM      5  C   UNL     1       1.999   8.430  19.062  0.00  0.00    +0.000 A 
ATOM      6  C   UNL     1       2.618   7.436  18.297  0.00  0.00    +0.000 A 
ENDROOT
BRANCH   4   7
ATOM      7  C   UNL     1       0.730   9.205  21.097  0.00  0.00    +0.000 A 
ATOM      8  C   UNL     1       0.061   8.966  22.304  0.00  0.00    +0.000 A 
ATOM      9  C   UNL     1      -0.637   9.992  22.964  0.00  0.00    +0.000 A 
ATOM     10  C   UNL     1      -0.680  11.289  22.435  0.00  0.00    +0.000 A 
ATOM     11  C   UNL     1      -0.019  11.564  21.239  0.00  0.00    +0.000 A 
ATOM     12  C   UNL     1       0.668  10.515  20.601  0.00  0.00    +0.000 A 
BRANCH  11  13
ATOM     13  C   UNL     1       0.039  12.868  20.574  0.00  0.00    +0.000 A 
ATOM     14  N   UNL     1       1.127  13.310  19.967  0.00  0.00    +0.000 NA
ATOM     15  C   UNL     1       0.842  14.557  19.508  0.00  0.00    +0.000 A 
ATOM     16  C   UNL     1       1.671  15.444  18.816  0.00  0.00    +0.000 A 
ATOM     17  C   UNL     1       1.161  16.696  18.469  0.00  0.00    +0.000 A 
ATOM     18  C   UNL     1      -0.152  17.042  18.798  0.00  0.00    +0.000 A 
ATOM     19  C   UNL     1      -1.004  16.153  19.476  0.00  0.00    +0.000 A 
ATOM     20  C   UNL     1      -0.464  14.911  19.818  0.00  0.00    +0.000 A 
ATOM     21  N   UNL     1      -0.965  13.807  20.475  0.00  0.00    +0.000 N 
ATOM     22  H   UNL     1      -1.904  13.709  20.828  0.00  0.00    +0.000 HD
ENDBRANCH  11  13
ENDBRANCH   4   7
BRANCH   1  23
ATOM     23  C   UNL     1       3.479   5.081  17.992  0.00  0.00    +0.000 C 
BRANCH  23  28
ATOM     24  C   UNL     1       6.939   4.507  16.489  0.00  0.00    +0.000 C 
ATOM     25  C   UNL     1       7.771   4.581  17.775  0.00  0.00    +0.000 C 
ATOM     26  C   UNL     1       7.163   5.496  18.833  0.00  0.00    +0.000 C 
ATOM     27  C   UNL     1       5.670   5.232  19.047  0.00  0.00    +0.000 C 
ATOM     28  N   UNL     1       4.920   5.339  17.786  0.00  0.00    +0.000 NA
ATOM     29  C   UNL     1       5.432   4.351  16.807  0.00  0.00    +0.000 C 
BRANCH  24  30
ATOM     30  N   UNL     1       7.168   5.679  15.636  0.00  0.00    +0.000 NA
ATOM     31  H   UNL     1       7.767   6.346  16.117  0.00  0.00    +0.000 HD
ATOM     32  H   UNL     1       6.271   6.140  15.474  0.00  0.00    +0.000 HD
ENDBRANCH  24  30
ENDBRANCH  23  28
ENDBRANCH   1  23
TORSDOF 5
ENDMDL
MODEL 2
REMARK VINA RESULT:      -8.7      3.580      5.209
REMARK  Name = 
REMARK  5 active torsions:
REMARK  status: ('A' for Active; 'I' for Inactive)
REMARK    1  A    between atoms: N_1  and  C_2
REMARK    2  A    between atoms: N_6  and  C_7
REMARK    3  A    between atoms: C_7  and  C_8
REMARK    4  A    between atoms: C_11  and  C_12
REMARK    5  A    between atoms: C_16  and  C_17
REMARK                            x       y       z     vdW  Elec       q    Type
REMARK                         _______ _______ _______ _____ _____    ______ ____
ROOT
ATOM      1  C   UNL     1       2.494   7.396  18.794  0.00  0.00    +0.000 A 
ATOM      2  C   UNL     1       2.477   8.303  17.733  0.00  0.00    +0.000 A 
ATOM      3  C   UNL     1       1.833   9.544  17.854  0.00  0.00    +0.000 A 
ATOM      4  C   UNL     1       1.172   9.912  19.036  0.00  0.00    +0.000 A 
ATOM      5  C   UNL     1       1.186   8.980  20.092  0.00  0.00    +0.000 A 
ATOM      6  C   UNL     1       1.845   7.751  19.984  0.00  0.00    +0.000 A 
ENDROOT
BRANCH   4   7
ATOM      7  C   UNL     1       0.537  11.244  19.195  0.00  0.00    +0.000 A 
ATOM      8  C   UNL     1       1.251  12.449  19.227  0.00  0.00    +0.000 A 
ATOM      9  C   UNL     1       0.595  13.677  19.414  0.00  0.00    +0.000 A 
ATOM     10  C   UNL     1      -0.797  13.734  19.571  0.00  0.00    +0.000 A 
ATOM     11  C   UNL     1      -1.539  12.554  19.538  0.00  0.00    +0.000 A 
ATOM     12  C   UNL     1      -0.853  11.340  19.351  0.00  0.00    +0.000 A 
BRANCH  11  13
ATOM     13  C   UNL     1      -2.995  12.455  19.670  0.00  0.00    +0.000 A 
ATOM     14  N   UNL     1      -3.627  12.719  20.800  0.00  0.00    +0.000 NA
ATOM     15  C   UNL     1      -4.947  12.482  20.577  0.00  0.00    +0.000 A 
ATOM     16  C   UNL     1      -6.017  12.599  21.467  0.00  0.00    +0.000 A 
ATOM     17  C   UNL     1      -7.296  12.269  21.014  0.00  0.00    +0.000 A 
ATOM     18  C   UNL     1      -7.494  11.847  19.697  0.00  0.00    +0.000 A 
ATOM     19  C   UNL     1      -6.429  11.745  18.785  0.00  0.00    +0.000 A 
ATOM     20  C   UNL     1      -5.160  12.072  19.269  0.00  0.00    +0.000 A 
ATOM     21  N   UNL     1      -3.904  12.087  18.701  0.00  0.00    +0.000 N 
ATOM     22  H   UNL     1      -3.688  11.861  17.743  0.00  0.00    +0.000 HD
ENDBRANCH  11  13
ENDBRANCH   4   7
BRANCH   1  23
ATOM     23  C   UNL     1       3.139   6.034  18.658  0.00  0.00    +0.000 C 
BRANCH  23  28
ATOM     24  C   UNL     1       2.785   2.837  20.711  0.00  0.00    +0.000 C 
ATOM     25  C   UNL     1       1.817   2.074  19.797  0.00  0.00    +0.000 C 
ATOM     26  C   UNL     1       0.888   2.991  19.007  0.00  0.00    +0.000 C 
ATOM     27  C   UNL     1       1.636   4.144  18.334  0.00  0.00    +0.000 C 
ATOM     28  N   UNL     1       2.414   4.923  19.309  0.00  0.00    +0.000 NA
ATOM     29  C   UNL     1       3.408   4.049  19.977  0.00  0.00    +0.000 C 
BRANCH  24  30
ATOM     30  N   UNL     1       2.124   3.266  21.949  0.00  0.00    +0.000 NA
ATOM     31  H   UNL     1       2.822   3.491  22.654  0.00  0.00    +0.000 HD
ATOM     32  H   UNL     1       1.572   2.485  22.307  0.00  0.00    +0.000 HD
ENDBRANCH  24  30
ENDBRANCH  23  28
ENDBRANCH   1  23
TORSDOF 5
ENDMDL
MODEL 3
REMARK VINA RESULT:      -8.6      3.304      4.134
REMARK  Name = 
REMARK  5 active torsions:
REMARK  status: ('A' for Active; 'I' for Inactive)
REMARK    1  A    between atoms: N_1  and  C_2
REMARK    2  A    between atoms: N_6  and  C_7
REMARK    3  A    between atoms: C_7  and  C_8
REMARK    4  A    between atoms: C_11  and  C_12
REMARK    5  A    between atoms: C_16  and  C_17
REMARK                            x       y       z     vdW  Elec       q    Type
REMARK                         _______ _______ _______ _____ _____    ______ ____
ROOT
ATOM      1  C   UNL     1       2.558   7.373  18.531  0.00  0.00    +0.000 A 
ATOM      2  C   UNL     1       2.316   8.464  17.693  0.00  0.00    +0.000 A 
ATOM      3  C   UNL     1       1.616   9.589  18.155  0.00  0.00    +0.000 A 
ATOM      4  C   UNL     1       1.123   9.654  19.468  0.00  0.00    +0.000 A 
ATOM      5  C   UNL     1       1.363   8.540  20.295  0.00  0.00    +0.000 A 
ATOM      6  C   UNL     1       2.079   7.426  19.846  0.00  0.00    +0.000 A 
ENDROOT
BRANCH   4   7
ATOM      7  C   UNL     1       0.432  10.861  19.984  0.00  0.00    +0.000 A 
ATOM      8  C   UNL     1       1.034  11.803  20.829  0.00  0.00    +0.000 A 
ATOM      9  C   UNL     1       0.316  12.909  21.313  0.00  0.00    +0.000 A 
ATOM     10  C   UNL     1      -1.026  13.107  20.960  0.00  0.00    +0.000 A 
ATOM     11  C   UNL     1      -1.655  12.193  20.116  0.00  0.00    +0.000 A 
ATOM     12  C   UNL     1      -0.909  11.094  19.650  0.00  0.00    +0.000 A 
BRANCH  11  13
ATOM     13  C   UNL     1      -3.041  12.274  19.648  0.00  0.00    +0.000 A 
ATOM     14  N   UNL     1      -4.042  12.616  20.441  0.00  0.00    +0.000 NA
ATOM     15  C   UNL     1      -5.176  12.542  19.696  0.00  0.00    +0.000 A 
ATOM     16  C   UNL     1      -6.494  12.792  20.086  0.00  0.00    +0.000 A 
ATOM     17  C   UNL     1      -7.509  12.621  19.143  0.00  0.00    +0.000 A 
ATOM     18  C   UNL     1      -7.204  12.222  17.839  0.00  0.00    +0.000 A 
ATOM     19  C   UNL     1      -5.881  11.987  17.427  0.00  0.00    +0.000 A 
ATOM     20  C   UNL     1      -4.888  12.157  18.394  0.00  0.00    +0.000 A 
ATOM     21  N   UNL     1      -3.516  12.017  18.380  0.00  0.00    +0.000 N 
ATOM     22  H   UNL     1      -2.959  11.763  17.579  0.00  0.00    +0.000 HD
ENDBRANCH  11  13
ENDBRANCH   4   7
BRANCH   1  23
ATOM     23  C   UNL     1       3.265   6.133  18.029  0.00  0.00    +0.000 C 
BRANCH  23  28
ATOM     24  C   UNL     1       6.841   5.757  16.752  0.00  0.00    +0.000 C 
ATOM     25  C   UNL     1       7.432   4.974  17.931  0.00  0.00    +0.000 C 
ATOM     26  C   UNL     1       6.761   5.294  19.263  0.00  0.00    +0.000 C 
ATOM     27  C   UNL     1       5.233   5.263  19.171  0.00  0.00    +0.000 C 
ATOM     28  N   UNL     1       4.740   6.166  18.120  0.00  0.00    +0.000 NA
ATOM     29  C   UNL     1       5.294   5.763  16.805  0.00  0.00    +0.000 C 
BRANCH  24  30
ATOM     30  N   UNL     1       7.361   7.129  16.707  0.00  0.00    +0.000 NA
ATOM     31  H   UNL     1       8.292   7.133  16.296  0.00  0.00    +0.000 HD
ATOM     32  H   UNL     1       7.453   7.470  17.665  0.00  0.00    +0.000 HD
ENDBRANCH  24  30
ENDBRANCH  23  28
ENDBRANCH   1  23
TORSDOF 5
ENDMDL
MODEL 4
REMARK VINA RESULT:      -8.6      2.819     10.180
REMARK  Name = 
REMARK  5 active torsions:
REMARK  status: ('A' for Active; 'I' for Inactive)
REMARK    1  A    between atoms: N_1  and  C_2
REMARK    2  A    between atoms: N_6  and  C_7
REMARK    3  A    between atoms: C_7  and  C_8
REMARK    4  A    between atoms: C_11  and  C_12
REMARK    5  A    between atoms: C_16  and  C_17
REMARK                            x       y       z     vdW  Elec       q    Type
REMARK                         _______ _______ _______ _____ _____    ______ ____
ROOT
ATOM      1  C   UNL     1       0.942   9.872  19.280  0.00  0.00    +0.000 A 
ATOM      2  C   UNL     1       1.627   9.614  18.091  0.00  0.00    +0.000 A 
ATOM      3  C   UNL     1       2.389   8.446  17.934  0.00  0.00    +0.000 A 
ATOM      4  C   UNL     1       2.503   7.504  18.969  0.00  0.00    +0.000 A 
ATOM      5  C   UNL     1       1.817   7.786  20.167  0.00  0.00    +0.000 A 
ATOM      6  C   UNL     1       1.038   8.938  20.319  0.00  0.00    +0.000 A 
ENDROOT
BRANCH   4   7
ATOM      7  C   UNL     1       3.259   6.240  18.796  0.00  0.00    +0.000 A 
ATOM      8  C   UNL     1       3.345   5.241  19.775  0.00  0.00    +0.000 A 
ATOM      9  C   UNL     1       4.106   4.080  19.563  0.00  0.00    +0.000 A 
ATOM     10  C   UNL     1       4.800   3.881  18.361  0.00  0.00    +0.000 A 
ATOM     11  C   UNL     1       4.731   4.852  17.363  0.00  0.00    +0.000 A 
ATOM     12  C   UNL     1       3.963   6.005  17.606  0.00  0.00    +0.000 A 
BRANCH  11  13
ATOM     13  C   UNL     1       5.385   4.780  16.054  0.00  0.00    +0.000 A 
ATOM     14  N   UNL     1       4.983   3.957  15.100  0.00  0.00    +0.000 NA
ATOM     15  C   UNL     1       5.835   4.122  14.054  0.00  0.00    +0.000 A 
ATOM     16  C   UNL     1       5.838   3.466  12.820  0.00  0.00    +0.000 A 
ATOM     17  C   UNL     1       6.841   3.784  11.903  0.00  0.00    +0.000 A 
ATOM     18  C   UNL     1       7.806   4.746  12.213  0.00  0.00    +0.000 A 
ATOM     19  C   UNL     1       7.802   5.427  13.442  0.00  0.00    +0.000 A 
ATOM     20  C   UNL     1       6.793   5.082  14.344  0.00  0.00    +0.000 A 
ATOM     21  N   UNL     1       6.471   5.507  15.615  0.00  0.00    +0.000 N 
ATOM     22  H   UNL     1       6.953   6.223  16.136  0.00  0.00    +0.000 HD
ENDBRANCH  11  13
ENDBRANCH   4   7
BRANCH   1  23
ATOM     23  C   UNL     1       0.159  11.152  19.479  0.00  0.00    +0.000 C 
BRANCH  23  28
ATOM     24  C   UNL     1      -3.040  10.673  17.455  0.00  0.00    +0.000 C 
ATOM     25  C   UNL     1      -3.867  11.824  18.043  0.00  0.00    +0.000 C 
ATOM     26  C   UNL     1      -3.511  12.139  19.492  0.00  0.00    +0.000 C 
ATOM     27  C   UNL     1      -2.001  12.253  19.714  0.00  0.00    +0.000 C 
ATOM     28  N   UNL     1      -1.299  11.040  19.268  0.00  0.00    +0.000 NA
ATOM     29  C   UNL     1      -1.543  10.815  17.824  0.00  0.00    +0.000 C 
BRANCH  24  30
ATOM     30  N   UNL     1      -3.556   9.369  17.887  0.00  0.00    +0.000 NA
ATOM     31  H   UNL     1      -2.911   8.632  17.612  0.00  0.00    +0.000 HD
ATOM     32  H   UNL     1      -4.438   9.195  17.402  0.00  0.00    +0.000 HD
ENDBRANCH  24  30
ENDBRANCH  23  28
ENDBRANCH   1  23
TORSDOF 5
ENDMDL
MODEL 5
REMARK VINA RESULT:      -8.6      2.077     10.046
REMARK  Name = 
REMARK  5 active torsions:
REMARK  status: ('A' for Active; 'I' for Inactive)
REMARK    1  A    between atoms: N_1  and  C_2
REMARK    2  A    between atoms: N_6  and  C_7
REMARK    3  A    between atoms: C_7  and  C_8
REMARK    4  A    between atoms: C_11  and  C_12
REMARK    5  A    between atoms: C_16  and  C_17
REMARK                            x       y       z     vdW  Elec       q    Type
REMARK                         _______ _______ _______ _____ _____    ______ ____
ROOT
ATOM      1  C   UNL     1       0.917   9.808  19.206  0.00  0.00    +0.000 A 
ATOM      2  C   UNL     1       1.089   8.934  20.281  0.00  0.00    +0.000 A 
ATOM      3  C   UNL     1       1.839   7.756  20.142  0.00  0.00    +0.000 A 
ATOM      4  C   UNL     1       2.430   7.406  18.917  0.00  0.00    +0.000 A 
ATOM      5  C   UNL     1       2.234   8.292  17.839  0.00  0.00    +0.000 A 
ATOM      6  C   UNL     1       1.506   9.478  17.979  0.00  0.00    +0.000 A 
ENDROOT
BRANCH   4   7
ATOM      7  C   UNL     1       3.272   6.194  18.773  0.00  0.00    +0.000 A 
ATOM      8  C   UNL     1       3.452   5.245  19.787  0.00  0.00    +0.000 A 
ATOM      9  C   UNL     1       4.290   4.133  19.601  0.00  0.00    +0.000 A 
ATOM     10  C   UNL     1       4.970   3.937  18.391  0.00  0.00    +0.000 A 
ATOM     11  C   UNL     1       4.808   4.859  17.358  0.00  0.00    +0.000 A 
ATOM     12  C   UNL     1       3.964   5.963  17.576  0.00  0.00    +0.000 A 
BRANCH  11  13
ATOM     13  C   UNL     1       5.436   4.781  16.036  0.00  0.00    +0.000 A 
ATOM     14  N   UNL     1       5.027   3.942  15.101  0.00  0.00    +0.000 NA
ATOM     15  C   UNL     1       5.855   4.107  14.036  0.00  0.00    +0.000 A 
ATOM     16  C   UNL     1       5.842   3.437  12.809  0.00  0.00    +0.000 A 
ATOM     17  C   UNL     1       6.822   3.759  11.868  0.00  0.00    +0.000 A 
ATOM     18  C   UNL     1       7.778   4.739  12.147  0.00  0.00    +0.000 A 
ATOM     19  C   UNL     1       7.789   5.434  13.369  0.00  0.00    +0.000 A 
ATOM     20  C   UNL     1       6.805   5.084  14.295  0.00  0.00    +0.000 A 
ATOM     21  N   UNL     1       6.502   5.520  15.568  0.00  0.00    +0.000 N 
ATOM     22  H   UNL     1       6.983   6.248  16.070  0.00  0.00    +0.000 HD
ENDBRANCH  11  13
ENDBRANCH   4   7
BRANCH   1  23
ATOM     23  C   UNL     1       0.067  11.054  19.330  0.00  0.00    +0.000 C 
BRANCH  23  28
ATOM     24  C   UNL     1       1.262  14.087  21.313  0.00  0.00    +0.000 C 
ATOM     25  C   UNL     1       1.043  15.168  20.247  0.00  0.00    +0.000 C 
ATOM     26  C   UNL     1       1.197  14.647  18.822  0.00  0.00    +0.000 C 
ATOM     27  C   UNL     1       0.426  13.347  18.587  0.00  0.00    +0.000 C 
ATOM     28  N   UNL     1       0.814  12.309  19.554  0.00  0.00    +0.000 NA
ATOM     29  C   UNL     1       0.535  12.774  20.934  0.00  0.00    +0.000 C 
BRANCH  24  30
ATOM     30  N   UNL     1       2.692  13.839  21.536  0.00  0.00    +0.000 NA
ATOM     31  H   UNL     1       2.974  12.984  21.063  0.00  0.00    +0.000 HD
ATOM     32  H   UNL     1       2.841  13.694  22.536  0.00  0.00    +0.000 HD
ENDBRANCH  24  30
ENDBRANCH  23  28
ENDBRANCH   1  23
TORSDOF 5
ENDMDL
MODEL 6
REMARK VINA RESULT:      -8.6      3.619      5.003
REMARK  Name = 
REMARK  5 active torsions:
REMARK  status: ('A' for Active; 'I' for Inactive)
REMARK    1  A    between atoms: N_1  and  C_2
REMARK    2  A    between atoms: N_6  and  C_7
REMARK    3  A    between atoms: C_7  and  C_8
REMARK    4  A    between atoms: C_11  and  C_12
REMARK    5  A    between atoms: C_16  and  C_17
REMARK                            x       y       z     vdW  Elec       q    Type
REMARK                         _______ _______ _______ _____ _____    ______ ____
ROOT
ATOM      1  C   UNL     1       2.293   6.975  19.730  0.00  0.00    +0.000 A 
ATOM      2  C   UNL     1       1.609   7.654  20.740  0.00  0.00    +0.000 A 
ATOM      3  C   UNL     1       1.077   8.934  20.518  0.00  0.00    +0.000 A 
ATOM      4  C   UNL     1       1.225   9.583  19.282  0.00  0.00    +0.000 A 
ATOM      5  C   UNL     1       1.930   8.890  18.279  0.00  0.00    +0.000 A 
ATOM      6  C   UNL     1       2.443   7.605  18.488  0.00  0.00    +0.000 A 
ENDROOT
BRANCH   4   7
ATOM      7  C   UNL     1       0.618  10.910  19.018  0.00  0.00    +0.000 A 
ATOM      8  C   UNL     1       1.357  12.055  18.690  0.00  0.00    +0.000 A 
ATOM      9  C   UNL     1       0.726  13.293  18.485  0.00  0.00    +0.000 A 
ATOM     10  C   UNL     1      -0.665  13.420  18.598  0.00  0.00    +0.000 A 
ATOM     11  C   UNL     1      -1.432  12.301  18.917  0.00  0.00    +0.000 A 
ATOM     12  C   UNL     1      -0.770  11.075  19.119  0.00  0.00    +0.000 A 
BRANCH  11  13
ATOM     13  C   UNL     1      -2.890  12.274  19.054  0.00  0.00    +0.000 A 
ATOM     14  N   UNL     1      -3.505  12.564  20.188  0.00  0.00    +0.000 NA
ATOM     15  C   UNL     1      -4.835  12.393  19.968  0.00  0.00    +0.000 A 
ATOM     16  C   UNL     1      -5.896  12.560  20.863  0.00  0.00    +0.000 A 
ATOM     17  C   UNL     1      -7.191  12.296  20.413  0.00  0.00    +0.000 A 
ATOM     18  C   UNL     1      -7.414  11.889  19.095  0.00  0.00    +0.000 A 
ATOM     19  C   UNL     1      -6.358  11.738  18.179  0.00  0.00    +0.000 A 
ATOM     20  C   UNL     1      -5.073  11.999  18.659  0.00  0.00    +0.000 A 
ATOM     21  N   UNL     1      -3.820  11.955  18.087  0.00  0.00    +0.000 N 
ATOM     22  H   UNL     1      -3.619  11.722  17.128  0.00  0.00    +0.000 HD
ENDBRANCH  11  13
ENDBRANCH   4   7
BRANCH   1  23
ATOM     23  C   UNL     1       2.916   5.618  19.973  0.00  0.00    +0.000 C 
BRANCH  23  28
ATOM     24  C   UNL     1       1.751   2.113  19.013  0.00  0.00    +0.000 C 
ATOM     25  C   UNL     1       2.673   1.879  17.809  0.00  0.00    +0.000 C 
ATOM     26  C   UNL     1       3.039   3.163  17.073  0.00  0.00    +0.000 C 
ATOM     27  C   UNL     1       3.491   4.275  18.024  0.00  0.00    +0.000 C 
ATOM     28  N   UNL     1       2.477   4.547  19.053  0.00  0.00    +0.000 NA
ATOM     29  C   UNL     1       2.226   3.324  19.852  0.00  0.00    +0.000 C 
BRANCH  24  30
ATOM     30  N   UNL     1       0.357   2.292  18.590  0.00  0.00    +0.000 NA
ATOM     31  H   UNL     1      -0.040   1.397  18.316  0.00  0.00    +0.000 HD
ATOM     32  H   UNL     1       0.345   2.894  17.765  0.00  0.00    +0.000 HD
ENDBRANCH  24  30
ENDBRANCH  23  28
ENDBRANCH   1  23
TORSDOF 5
ENDMDL
MODEL 7
REMARK VINA RESULT:      -8.6      1.839      2.579
REMARK  Name = 
REMARK  5 active torsions:
REMARK  status: ('A' for Active; 'I' for Inactive)
REMARK    1  A    between atoms: N_1  and  C_2
REMARK    2  A    between atoms: N_6  and  C_7
REMARK    3  A    between atoms: C_7  and  C_8
REMARK    4  A    between atoms: C_11  and  C_12
REMARK    5  A    between atoms: C_16  and  C_17
REMARK                            x       y       z     vdW  Elec       q    Type
REMARK                         _______ _______ _______ _____ _____    ______ ____
ROOT
ATOM      1  C   UNL     1       2.619   6.928  18.532  0.00  0.00    +0.000 A 
ATOM      2  C   UNL     1       2.211   6.816  19.863  0.00  0.00    +0.000 A 
ATOM      3  C   UNL     1       1.570   7.881  20.514  0.00  0.00    +0.000 A 
ATOM      4  C   UNL     1       1.329   9.099  19.859  0.00  0.00    +0.000 A 
ATOM      5  C   UNL     1       1.759   9.200  18.522  0.00  0.00    +0.000 A 
ATOM      6  C   UNL     1       2.379   8.134  17.862  0.00  0.00    +0.000 A 
ENDROOT
BRANCH   4   7
ATOM      7  C   UNL     1       0.602  10.211  20.519  0.00  0.00    +0.000 A 
ATOM      8  C   UNL     1      -0.163  10.060  21.683  0.00  0.00    +0.000 A 
ATOM      9  C   UNL     1      -0.857  11.146  22.242  0.00  0.00    +0.000 A 
ATOM     10  C   UNL     1      -0.801  12.417  21.653  0.00  0.00    +0.000 A 
ATOM     11  C   UNL     1      -0.045  12.604  20.497  0.00  0.00    +0.000 A 
ATOM     12  C   UNL     1       0.637  11.496  19.961  0.00  0.00    +0.000 A 
BRANCH  11  13
ATOM     13  C   UNL     1       0.122  13.870  19.780  0.00  0.00    +0.000 A 
ATOM     14  N   UNL     1       1.306  14.332  19.414  0.00  0.00    +0.000 NA
ATOM     15  C   UNL     1       1.092  15.535  18.821  0.00  0.00    +0.000 A 
ATOM     16  C   UNL     1       2.029  16.422  18.283  0.00  0.00    +0.000 A 
ATOM     17  C   UNL     1       1.570  17.626  17.746  0.00  0.00    +0.000 A 
ATOM     18  C   UNL     1       0.206  17.924  17.737  0.00  0.00    +0.000 A 
ATOM     19  C   UNL     1      -0.750  17.033  18.256  0.00  0.00    +0.000 A 
ATOM     20  C   UNL     1      -0.262  15.841  18.795  0.00  0.00    +0.000 A 
ATOM     21  N   UNL     1      -0.864  14.752  19.389  0.00  0.00    +0.000 N 
ATOM     22  H   UNL     1      -1.855  14.627  19.521  0.00  0.00    +0.000 HD
ENDBRANCH  11  13
ENDBRANCH   4   7
BRANCH   1  23
ATOM     23  C   UNL     1       3.358   5.806  17.835  0.00  0.00    +0.000 C 
BRANCH  23  28
ATOM     24  C   UNL     1       4.167   2.510  19.579  0.00  0.00    +0.000 C 
ATOM     25  C   UNL     1       3.553   1.544  18.557  0.00  0.00    +0.000 C 
ATOM     26  C   UNL     1       2.363   2.137  17.810  0.00  0.00    +0.000 C 
ATOM     27  C   UNL     1       2.648   3.543  17.276  0.00  0.00    +0.000 C 
ATOM     28  N   UNL     1       3.079   4.449  18.351  0.00  0.00    +0.000 NA
ATOM     29  C   UNL     1       4.315   3.931  18.985  0.00  0.00    +0.000 C 
BRANCH  24  30
ATOM     30  N   UNL     1       3.381   2.547  20.818  0.00  0.00    +0.000 NA
ATOM     31  H   UNL     1       3.710   1.828  21.459  0.00  0.00    +0.000 HD
ATOM     32  H   UNL     1       2.410   2.327  20.591  0.00  0.00    +0.000 HD
ENDBRANCH  24  30
ENDBRANCH  23  28
ENDBRANCH   1  23
TORSDOF 5
ENDMDL
MODEL 8
REMARK VINA RESULT:      -8.5      3.251      4.238
REMARK  Name = 
REMARK  5 active torsions:
REMARK  status: ('A' for Active; 'I' for Inactive)
REMARK    1  A    between atoms: N_1  and  C_2
REMARK    2  A    between atoms: N_6  and  C_7
REMARK    3  A    between atoms: C_7  and  C_8
REMARK    4  A    between atoms: C_11  and  C_12
REMARK    5  A    between atoms: C_16  and  C_17
REMARK                            x       y       z     vdW  Elec       q    Type
REMARK                         _______ _______ _______ _____ _____    ______ ____
ROOT
ATOM      1  C   UNL     1       2.937   7.042  18.561  0.00  0.00    +0.000 A 
ATOM      2  C   UNL     1       3.025   7.971  17.522  0.00  0.00    +0.000 A 
ATOM      3  C   UNL     1       2.361   9.205  17.598  0.00  0.00    +0.000 A 
ATOM      4  C   UNL     1       1.576   9.545  18.711  0.00  0.00    +0.000 A 
ATOM      5  C   UNL     1       1.487   8.592  19.744  0.00  0.00    +0.000 A 
ATOM      6  C   UNL     1       2.164   7.369  19.682  0.00  0.00    +0.000 A 
ENDROOT
BRANCH   4   7
ATOM      7  C   UNL     1       0.917  10.869  18.828  0.00  0.00    +0.000 A 
ATOM      8  C   UNL     1       1.612  12.083  18.893  0.00  0.00    +0.000 A 
ATOM      9  C   UNL     1       0.932  13.304  19.038  0.00  0.00    +0.000 A 
ATOM     10  C   UNL     1      -0.467  13.344  19.117  0.00  0.00    +0.000 A 
ATOM     11  C   UNL     1      -1.192  12.154  19.049  0.00  0.00    +0.000 A 
ATOM     12  C   UNL     1      -0.480  10.948  18.907  0.00  0.00    +0.000 A 
BRANCH  11  13
ATOM     13  C   UNL     1      -2.651  12.037  19.101  0.00  0.00    +0.000 A 
ATOM     14  N   UNL     1      -3.358  11.496  18.124  0.00  0.00    +0.000 NA
ATOM     15  C   UNL     1      -4.665  11.595  18.483  0.00  0.00    +0.000 A 
ATOM     16  C   UNL     1      -5.797  11.182  17.776  0.00  0.00    +0.000 A 
ATOM     17  C   UNL     1      -7.053  11.418  18.340  0.00  0.00    +0.000 A 
ATOM     18  C   UNL     1      -7.165  12.039  19.586  0.00  0.00    +0.000 A 
ATOM     19  C   UNL     1      -6.033  12.441  20.317  0.00  0.00    +0.000 A 
ATOM     20  C   UNL     1      -4.791  12.201  19.725  0.00  0.00    +0.000 A 
ATOM     21  N   UNL     1      -3.492  12.451  20.112  0.00  0.00    +0.000 N 
ATOM     22  H   UNL     1      -3.208  12.871  20.983  0.00  0.00    +0.000 HD
ENDBRANCH  11  13
ENDBRANCH   4   7
BRANCH   1  23
ATOM     23  C   UNL     1       3.605   5.687  18.468  0.00  0.00    +0.000 C 
BRANCH  23  28
ATOM     24  C   UNL     1       6.720   4.598  16.553  0.00  0.00    +0.000 C 
ATOM     25  C   UNL     1       7.698   4.497  17.730  0.00  0.00    +0.000 C 
ATOM     26  C   UNL     1       7.379   5.468  18.862  0.00  0.00    +0.000 C 
ATOM     27  C   UNL     1       5.899   5.446  19.251  0.00  0.00    +0.000 C 
ATOM     28  N   UNL     1       5.034   5.712  18.092  0.00  0.00    +0.000 NA
ATOM     29  C   UNL     1       5.256   4.682  17.049  0.00  0.00    +0.000 C 
BRANCH  24  30
ATOM     30  N   UNL     1       7.039   5.741  15.689  0.00  0.00    +0.000 NA
ATOM     31  H   UNL     1       6.287   6.425  15.727  0.00  0.00    +0.000 HD
ATOM     32  H   UNL     1       7.098   5.410  14.725  0.00  0.00    +0.000 HD
ENDBRANCH  24  30
ENDBRANCH  23  28
ENDBRANCH   1  23
TORSDOF 5
ENDMDL
MODEL 9
REMARK VINA RESULT:      -8.5      2.852     10.147
REMARK  Name = 
REMARK  5 active torsions:
REMARK  status: ('A' for Active; 'I' for Inactive)
REMARK    1  A    between atoms: N_1  and  C_2
REMARK    2  A    between atoms: N_6  and  C_7
REMARK    3  A    between atoms: C_7  and  C_8
REMARK    4  A    between atoms: C_11  and  C_12
REMARK    5  A    between atoms: C_16  and  C_17
REMARK                            x       y       z     vdW  Elec       q    Type
REMARK                         _______ _______ _______ _____ _____    ______ ____
ROOT
ATOM      1  C   UNL     1       0.898   9.741  19.177  0.00  0.00    +0.000 A 
ATOM      2  C   UNL     1       1.487   9.397  17.959  0.00  0.00    +0.000 A 
ATOM      3  C   UNL     1       2.235   8.217  17.826  0.00  0.00    +0.000 A 
ATOM      4  C   UNL     1       2.430   7.349  18.912  0.00  0.00    +0.000 A 
ATOM      5  C   UNL     1       1.841   7.718  20.137  0.00  0.00    +0.000 A 
ATOM      6  C   UNL     1       1.076   8.882  20.269  0.00  0.00    +0.000 A 
ENDROOT
BRANCH   4   7
ATOM      7  C   UNL     1       3.170   6.071  18.769  0.00  0.00    +0.000 A 
ATOM      8  C   UNL     1       3.224   5.086  19.763  0.00  0.00    +0.000 A 
ATOM      9  C   UNL     1       3.971   3.910  19.581  0.00  0.00    +0.000 A 
ATOM     10  C   UNL     1       4.682   3.685  18.394  0.00  0.00    +0.000 A 
ATOM     11  C   UNL     1       4.645   4.642  17.381  0.00  0.00    +0.000 A 
ATOM     12  C   UNL     1       3.890   5.810  17.595  0.00  0.00    +0.000 A 
BRANCH  11  13
ATOM     13  C   UNL     1       5.320   4.542  16.085  0.00  0.00    +0.000 A 
ATOM     14  N   UNL     1       6.357   5.296  15.761  0.00  0.00    +0.000 NA
ATOM     15  C   UNL     1       6.695   4.973  14.485  0.00  0.00    +0.000 A 
ATOM     16  C   UNL     1       7.713   5.506  13.690  0.00  0.00    +0.000 A 
ATOM     17  C   UNL     1       7.853   5.031  12.385  0.00  0.00    +0.000 A 
ATOM     18  C   UNL     1       7.000   4.038  11.897  0.00  0.00    +0.000 A 
ATOM     19  C   UNL     1       5.985   3.479  12.692  0.00  0.00    +0.000 A 
ATOM     20  C   UNL     1       5.862   3.979  13.990  0.00  0.00    +0.000 A 
ATOM     21  N   UNL     1       5.010   3.701  15.038  0.00  0.00    +0.000 N 
ATOM     22  H   UNL     1       4.280   3.006  15.033  0.00  0.00    +0.000 HD
ENDBRANCH  11  13
ENDBRANCH   4   7
BRANCH   1  23
ATOM     23  C   UNL     1       0.134  11.036  19.346  0.00  0.00    +0.000 C 
BRANCH  23  28
ATOM     24  C   UNL     1      -3.077  10.536  17.347  0.00  0.00    +0.000 C 
ATOM     25  C   UNL     1      -3.885  11.719  17.897  0.00  0.00    +0.000 C 
ATOM     26  C   UNL     1      -3.521  12.080  19.333  0.00  0.00    +0.000 C 
ATOM     27  C   UNL     1      -2.009  12.178  19.547  0.00  0.00    +0.000 C 
ATOM     28  N   UNL     1      -1.327  10.940  19.143  0.00  0.00    +0.000 NA
ATOM     29  C   UNL     1      -1.578  10.668  17.708  0.00  0.00    +0.000 C 
BRANCH  24  30
ATOM     30  N   UNL     1      -3.612   9.256  17.826  0.00  0.00    +0.000 NA
ATOM     31  H   UNL     1      -3.038   8.490  17.482  0.00  0.00    +0.000 HD
ATOM     32  H   UNL     1      -4.548   9.131  17.435  0.00  0.00    +0.000 HD
ENDBRANCH  24  30
ENDBRANCH  23  28
ENDBRANCH   1  23
TORSDOF 5
ENDMDL
