MODEL 1
REMARK VINA RESULT:      -6.5      0.000      0.000
REMARK  Name = 
REMARK  12 active torsions:
REMARK  status: ('A' for Active; 'I' for Inactive)
REMARK    1  A    between atoms: C_1  and  C_2
REMARK    2  A    between atoms: C_2  and  C_3
REMARK    3  A    between atoms: C_3  and  C_4
REMARK    4  A    between atoms: C_4  and  C_5
REMARK    5  A    between atoms: C_5  and  C_6
REMARK    6  A    between atoms: C_6  and  C_7
REMARK    7  A    between atoms: C_7  and  C_8
REMARK    8  A    between atoms: C_8  and  C_9
REMARK    9  A    between atoms: C_9  and  N_10
REMARK   10  A    between atoms: C_9  and  C_11
REMARK   11  A    between atoms: C_14  and  C_15
REMARK   12  A    between atoms: N_17  and  C_18
REMARK                            x       y       z     vdW  Elec       q    Type
REMARK                         _______ _______ _______ _____ _____    ______ ____
ROOT
ATOM      1  C   UNL     1       5.254   5.599  16.755  0.00  0.00    +0.000 C 
ATOM      2  C   UNL     1       3.930   4.792  16.831  0.00  0.00    +0.000 C 
ATOM      3  C   UNL     1       3.858   3.938  18.123  0.00  0.00    +0.000 C 
ATOM      4  C   UNL     1       3.982   4.834  19.387  0.00  0.00    +0.000 C 
ATOM      5  C   UNL     1       5.310   5.627  19.300  0.00  0.00    +0.000 C 
ATOM      6  C   UNL     1       5.372   6.475  18.024  0.00  0.00    +0.000 C 
ENDROOT
BRANCH   4   7
ATOM      7  C   UNL     1       2.751   5.733  19.549  0.00  0.00    +0.000 C 
ATOM      8  O   UNL     1       1.656   5.266  19.292  0.00  0.00    +0.000 OA
ATOM      9  N   UNL     1       2.867   7.039  19.946  0.00  0.00    +0.000 N 
ATOM     10  H   UNL     1       3.814   7.415  20.087  0.00  0.00    +0.000 HD
BRANCH   9  11
ATOM     11  C   UNL     1       1.769   7.958  20.090  0.00  0.00    +0.000 A 
ATOM     12  C   UNL     1       0.908   7.978  21.213  0.00  0.00    +0.000 A 
ATOM     13  C   UNL     1      -0.151   8.882  21.267  0.00  0.00    +0.000 A 
ATOM     14  N   UNL     1      -0.361   9.748  20.245  0.00  0.00    +0.000 NA
ATOM     15  C   UNL     1       0.450   9.771  19.157  0.00  0.00    +0.000 A 
ATOM     16  C   UNL     1       1.529   8.885  19.063  0.00  0.00    +0.000 A 
ENDBRANCH   9  11
ENDBRANCH   4   7
BRANCH   1  17
ATOM     17  C   UNL     1       6.525   4.715  16.501  0.00  0.00    +0.000 C 
BRANCH  17  18
ATOM     18  N   UNL     1       7.662   5.588  16.177  0.00  0.00    +0.000 NA
ATOM     19  H   UNL     1       8.337   5.628  16.979  0.00  0.00    +0.000 HD
ATOM     20  H   UNL     1       7.334   6.553  15.950  0.00  0.00    +0.000 HD
ENDBRANCH  17  18
BRANCH  17  21
ATOM     21  C   UNL     1       6.232   3.759  15.326  0.00  0.00    +0.000 C 
BRANCH  21  22
ATOM     22  C   UNL     1       6.422   4.312  13.906  0.00  0.00    +0.000 C 
BRANCH  22  23
ATOM     23  C   UNL     1       5.127   4.139  13.087  0.00  0.00    +0.000 C 
BRANCH  23  24
ATOM     24  C   UNL     1       5.289   3.086  11.975  0.00  0.00    +0.000 C 
BRANCH  24  25
ATOM     25  C   UNL     1       6.718   2.990  11.461  0.00  0.00    +0.000 C 
BRANCH  25  26
ATOM     26  C   UNL     1       7.105   1.511  11.335  0.00  0.00    +0.000 C 
BRANCH  26  28
ATOM     27  C   UNL     1       6.115  -0.793  11.342  0.00  0.00    +0.000 C 
ATOM     28  C   UNL     1       5.901   0.662  10.942  0.00  0.00    +0.000 C 
ENDBRANCH  26  28
ENDBRANCH  25  26
ENDBRANCH  24  25
ENDBRANCH  23  24
ENDBRANCH  22  23
ENDBRANCH  21  22
ENDBRANCH  17  21
ENDBRANCH   1  17
TORSDOF 11
ENDMDL
MODEL 2
REMARK VINA RESULT:      -6.3      1.146      2.013
REMARK  Name = 
REMARK  12 active torsions:
REMARK  status: ('A' for Active; 'I' for Inactive)
REMARK    1  A    between atoms: C_1  and  C_2
REMARK    2  A    between atoms: C_2  and  C_3
REMARK    3  A    between atoms: C_3  and  C_4
REMARK    4  A    between atoms: C_4  and  C_5
REMARK    5  A    between atoms: C_5  and  C_6
REMARK    6  A    between atoms: C_6  and  C_7
REMARK    7  A    between atoms: C_7  and  C_8
REMARK    8  A    between atoms: C_8  and  C_9
REMARK    9  A    between atoms: C_9  and  N_10
REMARK   10  A    between atoms: C_9  and  C_11
REMARK   11  A    between atoms: C_14  and  C_15
REMARK   12  A    between atoms: N_17  and  C_18
REMARK                            x       y       z     vdW  Elec       q    Type
REMARK                         _______ _______ _______ _____ _____    ______ ____
ROOT
ATOM      1  C   UNL     1       4.648   4.877  17.003  0.00  0.00    +0.000 C 
ATOM      2  C   UNL     1       3.248   4.253  17.255  0.00  0.00    +0.000 C 
ATOM      3  C   UNL     1       3.189   3.523  18.621  0.00  0.00    +0.000 C 
ATOM      4  C   UNL     1       3.532   4.495  19.785  0.00  0.00    +0.000 C 
ATOM      5  C   UNL     1       4.932   5.103  19.523  0.00  0.00    +0.000 C 
ATOM      6  C   UNL     1       4.981   5.831  18.173  0.00  0.00    +0.000 C 
ENDROOT
BRANCH   4   7
ATOM      7  C   UNL     1       2.436   5.554  19.959  0.00  0.00    +0.000 C 
ATOM      8  O   UNL     1       1.275   5.187  19.981  0.00  0.00    +0.000 OA
ATOM      9  N   UNL     1       2.740   6.885  20.062  0.00  0.00    +0.000 N 
ATOM     10  H   UNL     1       3.727   7.161  19.971  0.00  0.00    +0.000 HD
BRANCH   9  11
ATOM     11  C   UNL     1       1.773   7.943  20.194  0.00  0.00    +0.000 A 
ATOM     12  C   UNL     1       1.464   8.854  19.155  0.00  0.00    +0.000 A 
ATOM     13  C   UNL     1       0.534   9.869  19.368  0.00  0.00    +0.000 A 
ATOM     14  N   UNL     1      -0.082   9.988  20.570  0.00  0.00    +0.000 NA
ATOM     15  C   UNL     1       0.174   9.127  21.587  0.00  0.00    +0.000 A 
ATOM     16  C   UNL     1       1.097   8.089  21.416  0.00  0.00    +0.000 A 
ENDBRANCH   9  11
ENDBRANCH   4   7
BRANCH   1  17
ATOM     17  C   UNL     1       5.776   3.821  16.732  0.00  0.00    +0.000 C 
BRANCH  17  18
ATOM     18  N   UNL     1       7.085   4.440  16.981  0.00  0.00    +0.000 NA
ATOM     19  H   UNL     1       7.500   4.799  16.087  0.00  0.00    +0.000 HD
ATOM     20  H   UNL     1       7.741   3.755  17.418  0.00  0.00    +0.000 HD
ENDBRANCH  17  18
BRANCH  17  21
ATOM     21  C   UNL     1       5.673   3.357  15.264  0.00  0.00    +0.000 C 
BRANCH  21  22
ATOM     22  C   UNL     1       5.888   4.418  14.176  0.00  0.00    +0.000 C 
BRANCH  22  23
ATOM     23  C   UNL     1       7.024   3.988  13.226  0.00  0.00    +0.000 C 
BRANCH  23  24
ATOM     24  C   UNL     1       6.523   3.795  11.783  0.00  0.00    +0.000 C 
BRANCH  24  25
ATOM     25  C   UNL     1       5.602   2.593  11.636  0.00  0.00    +0.000 C 
BRANCH  25  26
ATOM     26  C   UNL     1       4.150   3.081  11.571  0.00  0.00    +0.000 C 
BRANCH  26  28
ATOM     27  C   UNL     1       2.785   3.646   9.543  0.00  0.00    +0.000 C 
ATOM     28  C   UNL     1       3.955   4.067  10.424  0.00  0.00    +0.000 C 
ENDBRANCH  26  28
ENDBRANCH  25  26
ENDBRANCH  24  25
ENDBRANCH  23  24
ENDBRANCH  22  23
ENDBRANCH  21  22
ENDBRANCH  17  21
ENDBRANCH   1  17
TORSDOF 11
ENDMDL
MODEL 3
REMARK VINA RESULT:      -6.2      1.332      1.980
REMARK  Name = 
REMARK  12 active torsions:
REMARK  status: ('A' for Active; 'I' for Inactive)
REMARK    1  A    between atoms: C_1  and  C_2
REMARK    2  A    between atoms: C_2  and  C_3
REMARK    3  A    between atoms: C_3  and  C_4
REMARK    4  A    between atoms: C_4  and  C_5
REMARK    5  A    between atoms: C_5  and  C_6
REMARK    6  A    between atoms: C_6  and  C_7
REMARK    7  A    between atoms: C_7  and  C_8
REMARK    8  A    between atoms: C_8  and  C_9
REMARK    9  A    between atoms: C_9  and  N_10
REMARK   10  A    between atoms: C_9  and  C_11
REMARK   11  A    between atoms: C_14  and  C_15
REMARK   12  A    between atoms: N_17  and  C_18
REMARK                            x       y       z     vdW  Elec       q    Type
REMARK                         _______ _______ _______ _____ _____    ______ ____
ROOT
ATOM      1  C   UNL     1       6.009   5.624  18.081  0.00  0.00    +0.000 C 
ATOM      2  C   UNL     1       4.784   6.168  17.297  0.00  0.00    +0.000 C 
ATOM      3  C   UNL     1       3.663   5.104  17.183  0.00  0.00    +0.000 C 
ATOM      4  C   UNL     1       3.200   4.635  18.591  0.00  0.00    +0.000 C 
ATOM      5  C   UNL     1       4.430   4.088  19.357  0.00  0.00    +0.000 C 
ATOM      6  C   UNL     1       5.532   5.149  19.473  0.00  0.00    +0.000 C 
ENDROOT
BRANCH   4   7
ATOM      7  C   UNL     1       2.474   5.762  19.336  0.00  0.00    +0.000 C 
ATOM      8  O   UNL     1       1.849   5.481  20.343  0.00  0.00    +0.000 OA
ATOM      9  N   UNL     1       2.500   7.053  18.879  0.00  0.00    +0.000 N 
ATOM     10  H   UNL     1       2.982   7.237  17.989  0.00  0.00    +0.000 HD
BRANCH   9  11
ATOM     11  C   UNL     1       1.821   8.161  19.498  0.00  0.00    +0.000 A 
ATOM     12  C   UNL     1       1.515   8.216  20.879  0.00  0.00    +0.000 A 
ATOM     13  C   UNL     1       0.831   9.312  21.400  0.00  0.00    +0.000 A 
ATOM     14  N   UNL     1       0.457  10.332  20.588  0.00  0.00    +0.000 NA
ATOM     15  C   UNL     1       0.745  10.325  19.262  0.00  0.00    +0.000 A 
ATOM     16  C   UNL     1       1.435   9.247  18.697  0.00  0.00    +0.000 A 
ENDBRANCH   9  11
ENDBRANCH   4   7
BRANCH   1  17
ATOM     17  C   UNL     1       6.826   4.531  17.306  0.00  0.00    +0.000 C 
BRANCH  17  18
ATOM     18  N   UNL     1       8.114   4.324  17.981  0.00  0.00    +0.000 NA
ATOM     19  H   UNL     1       8.699   3.630  17.457  0.00  0.00    +0.000 HD
ATOM     20  H   UNL     1       7.970   3.987  18.960  0.00  0.00    +0.000 HD
ENDBRANCH  17  18
BRANCH  17  21
ATOM     21  C   UNL     1       7.050   5.018  15.860  0.00  0.00    +0.000 C 
BRANCH  21  22
ATOM     22  C   UNL     1       6.893   3.980  14.738  0.00  0.00    +0.000 C 
BRANCH  22  23
ATOM     23  C   UNL     1       5.601   4.247  13.939  0.00  0.00    +0.000 C 
BRANCH  23  24
ATOM     24  C   UNL     1       5.791   3.979  12.435  0.00  0.00    +0.000 C 
BRANCH  24  25
ATOM     25  C   UNL     1       5.317   2.593  12.022  0.00  0.00    +0.000 C 
BRANCH  25  26
ATOM     26  C   UNL     1       4.565   2.699  10.690  0.00  0.00    +0.000 C 
BRANCH  26  28
ATOM     27  C   UNL     1       2.952   4.187   9.475  0.00  0.00    +0.000 C 
ATOM     28  C   UNL     1       3.335   3.591  10.825  0.00  0.00    +0.000 C 
ENDBRANCH  26  28
ENDBRANCH  25  26
ENDBRANCH  24  25
ENDBRANCH  23  24
ENDBRANCH  22  23
ENDBRANCH  21  22
ENDBRANCH  17  21
ENDBRANCH   1  17
TORSDOF 11
ENDMDL
MODEL 4
REMARK VINA RESULT:      -6.2      4.259      7.671
REMARK  Name = 
REMARK  12 active torsions:
REMARK  status: ('A' for Active; 'I' for Inactive)
REMARK    1  A    between atoms: C_1  and  C_2
REMARK    2  A    between atoms: C_2  and  C_3
REMARK    3  A    between atoms: C_3  and  C_4
REMARK    4  A    between atoms: C_4  and  C_5
REMARK    5  A    between atoms: C_5  and  C_6
REMARK    6  A    between atoms: C_6  and  C_7
REMARK    7  A    between atoms: C_7  and  C_8
REMARK    8  A    between atoms: C_8  and  C_9
REMARK    9  A    between atoms: C_9  and  N_10
REMARK   10  A    between atoms: C_9  and  C_11
REMARK   11  A    between atoms: C_14  and  C_15
REMARK   12  A    between atoms: N_17  and  C_18
REMARK                            x       y       z     vdW  Elec       q    Type
REMARK                         _______ _______ _______ _____ _____    ______ ____
ROOT
ATOM      1  C   UNL     1       5.137   5.388  18.725  0.00  0.00    +0.000 C 
ATOM      2  C   UNL     1       6.434   5.691  19.523  0.00  0.00    +0.000 C 
ATOM      3  C   UNL     1       7.698   5.512  18.644  0.00  0.00    +0.000 C 
ATOM      4  C   UNL     1       7.640   6.436  17.396  0.00  0.00    +0.000 C 
ATOM      5  C   UNL     1       6.345   6.117  16.607  0.00  0.00    +0.000 C 
ATOM      6  C   UNL     1       5.098   6.304  17.481  0.00  0.00    +0.000 C 
ENDROOT
BRANCH   4   7
ATOM      7  C   UNL     1       7.756   7.912  17.797  0.00  0.00    +0.000 C 
ATOM      8  O   UNL     1       6.936   8.697  17.356  0.00  0.00    +0.000 OA
ATOM      9  N   UNL     1       8.766   8.353  18.609  0.00  0.00    +0.000 N 
ATOM     10  H   UNL     1       9.478   7.671  18.904  0.00  0.00    +0.000 HD
BRANCH   9  11
ATOM     11  C   UNL     1       8.967   9.723  19.005  0.00  0.00    +0.000 A 
ATOM     12  C   UNL     1       9.031  10.145  20.354  0.00  0.00    +0.000 A 
ATOM     13  C   UNL     1       9.201  11.494  20.658  0.00  0.00    +0.000 A 
ATOM     14  N   UNL     1       9.308  12.409  19.662  0.00  0.00    +0.000 NA
ATOM     15  C   UNL     1       9.267  12.043  18.356  0.00  0.00    +0.000 A 
ATOM     16  C   UNL     1       9.103  10.699  18.005  0.00  0.00    +0.000 A 
ENDBRANCH   9  11
ENDBRANCH   4   7
BRANCH   1  17
ATOM     17  C   UNL     1       4.944   3.870  18.376  0.00  0.00    +0.000 C 
BRANCH  17  18
ATOM     18  N   UNL     1       3.889   3.741  17.362  0.00  0.00    +0.000 NA
ATOM     19  H   UNL     1       3.004   3.377  17.793  0.00  0.00    +0.000 HD
ATOM     20  H   UNL     1       4.189   3.099  16.595  0.00  0.00    +0.000 HD
ENDBRANCH  17  18
BRANCH  17  21
ATOM     21  C   UNL     1       4.548   3.117  19.663  0.00  0.00    +0.000 C 
BRANCH  21  22
ATOM     22  C   UNL     1       3.180   2.417  19.673  0.00  0.00    +0.000 C 
BRANCH  22  23
ATOM     23  C   UNL     1       2.453   2.685  21.007  0.00  0.00    +0.000 C 
BRANCH  23  24
ATOM     24  C   UNL     1       1.181   3.529  20.807  0.00  0.00    +0.000 C 
BRANCH  24  25
ATOM     25  C   UNL     1       1.404   4.717  19.883  0.00  0.00    +0.000 C 
BRANCH  25  26
ATOM     26  C   UNL     1       2.116   5.829  20.663  0.00  0.00    +0.000 C 
BRANCH  26  28
ATOM     27  C   UNL     1       1.436   8.242  20.734  0.00  0.00    +0.000 C 
ATOM     28  C   UNL     1       2.081   7.146  19.894  0.00  0.00    +0.000 C 
ENDBRANCH  26  28
ENDBRANCH  25  26
ENDBRANCH  24  25
ENDBRANCH  23  24
ENDBRANCH  22  23
ENDBRANCH  21  22
ENDBRANCH  17  21
ENDBRANCH   1  17
TORSDOF 11
ENDMDL
MODEL 5
REMARK VINA RESULT:      -6.1      2.853      9.013
REMARK  Name = 
REMARK  12 active torsions:
REMARK  status: ('A' for Active; 'I' for Inactive)
REMARK    1  A    between atoms: C_1  and  C_2
REMARK    2  A    between atoms: C_2  and  C_3
REMARK    3  A    between atoms: C_3  and  C_4
REMARK    4  A    between atoms: C_4  and  C_5
REMARK    5  A    between atoms: C_5  and  C_6
REMARK    6  A    between atoms: C_6  and  C_7
REMARK    7  A    between atoms: C_7  and  C_8
REMARK    8  A    between atoms: C_8  and  C_9
REMARK    9  A    between atoms: C_9  and  N_10
REMARK   10  A    between atoms: C_9  and  C_11
REMARK   11  A    between atoms: C_14  and  C_15
REMARK   12  A    between atoms: N_17  and  C_18
REMARK                            x       y       z     vdW  Elec       q    Type
REMARK                         _______ _______ _______ _____ _____    ______ ____
ROOT
ATOM      1  C   UNL     1       4.164   3.318  18.776  0.00  0.00    +0.000 C 
ATOM      2  C   UNL     1       3.309   3.843  17.591  0.00  0.00    +0.000 C 
ATOM      3  C   UNL     1       3.122   5.380  17.662  0.00  0.00    +0.000 C 
ATOM      4  C   UNL     1       4.496   6.106  17.660  0.00  0.00    +0.000 C 
ATOM      5  C   UNL     1       5.334   5.578  18.851  0.00  0.00    +0.000 C 
ATOM      6  C   UNL     1       5.522   4.057  18.770  0.00  0.00    +0.000 C 
ENDROOT
BRANCH   4   7
ATOM      7  C   UNL     1       5.201   5.948  16.307  0.00  0.00    +0.000 C 
ATOM      8  O   UNL     1       5.584   6.951  15.733  0.00  0.00    +0.000 OA
ATOM      9  N   UNL     1       5.380   4.716  15.735  0.00  0.00    +0.000 N 
ATOM     10  H   UNL     1       4.983   3.900  16.219  0.00  0.00    +0.000 HD
BRANCH   9  11
ATOM     11  C   UNL     1       6.000   4.484  14.457  0.00  0.00    +0.000 A 
ATOM     12  C   UNL     1       7.250   5.032  14.082  0.00  0.00    +0.000 A 
ATOM     13  C   UNL     1       7.772   4.782  12.815  0.00  0.00    +0.000 A 
ATOM     14  N   UNL     1       7.088   4.009  11.936  0.00  0.00    +0.000 NA
ATOM     15  C   UNL     1       5.893   3.452  12.261  0.00  0.00    +0.000 A 
ATOM     16  C   UNL     1       5.334   3.672  13.524  0.00  0.00    +0.000 A 
ENDBRANCH   9  11
ENDBRANCH   4   7
BRANCH   1  17
ATOM     17  C   UNL     1       3.436   3.383  20.165  0.00  0.00    +0.000 C 
BRANCH  17  18
ATOM     18  N   UNL     1       3.974   2.333  21.040  0.00  0.00    +0.000 NA
ATOM     19  H   UNL     1       3.295   2.107  21.806  0.00  0.00    +0.000 HD
ATOM     20  H   UNL     1       4.884   2.630  21.458  0.00  0.00    +0.000 HD
ENDBRANCH  17  18
BRANCH  17  21
ATOM     21  C   UNL     1       1.925   3.172  19.938  0.00  0.00    +0.000 C 
BRANCH  21  22
ATOM     22  C   UNL     1       0.985   4.304  20.376  0.00  0.00    +0.000 C 
BRANCH  22  23
ATOM     23  C   UNL     1       1.797   5.476  20.966  0.00  0.00    +0.000 C 
BRANCH  23  24
ATOM     24  C   UNL     1       1.419   6.819  20.315  0.00  0.00    +0.000 C 
BRANCH  24  25
ATOM     25  C   UNL     1       1.613   8.001  21.254  0.00  0.00    +0.000 C 
BRANCH  25  26
ATOM     26  C   UNL     1       0.239   8.554  21.651  0.00  0.00    +0.000 C 
BRANCH  26  28
ATOM     27  C   UNL     1      -0.955  10.225  23.091  0.00  0.00    +0.000 C 
ATOM     28  C   UNL     1       0.347   9.465  22.870  0.00  0.00    +0.000 C 
ENDBRANCH  26  28
ENDBRANCH  25  26
ENDBRANCH  24  25
ENDBRANCH  23  24
ENDBRANCH  22  23
ENDBRANCH  21  22
ENDBRANCH  17  21
ENDBRANCH   1  17
TORSDOF 11
ENDMDL
MODEL 6
REMARK VINA RESULT:      -6.1      3.190      4.151
REMARK  Name = 
REMARK  12 active torsions:
REMARK  status: ('A' for Active; 'I' for Inactive)
REMARK    1  A    between atoms: C_1  and  C_2
REMARK    2  A    between atoms: C_2  and  C_3
REMARK    3  A    between atoms: C_3  and  C_4
REMARK    4  A    between atoms: C_4  and  C_5
REMARK    5  A    between atoms: C_5  and  C_6
REMARK    6  A    between atoms: C_6  and  C_7
REMARK    7  A    between atoms: C_7  and  C_8
REMARK    8  A    between atoms: C_8  and  C_9
REMARK    9  A    between atoms: C_9  and  N_10
REMARK   10  A    between atoms: C_9  and  C_11
REMARK   11  A    between atoms: C_14  and  C_15
REMARK   12  A    between atoms: N_17  and  C_18
REMARK                            x       y       z     vdW  Elec       q    Type
REMARK                         _______ _______ _______ _____ _____    ______ ____
ROOT
ATOM      1  C   UNL     1       5.803   4.635  15.150  0.00  0.00    +0.000 C 
ATOM      2  C   UNL     1       5.949   3.658  16.348  0.00  0.00    +0.000 C 
ATOM      3  C   UNL     1       6.718   4.311  17.525  0.00  0.00    +0.000 C 
ATOM      4  C   UNL     1       6.002   5.603  18.006  0.00  0.00    +0.000 C 
ATOM      5  C   UNL     1       5.870   6.570  16.803  0.00  0.00    +0.000 C 
ATOM      6  C   UNL     1       5.101   5.920  15.645  0.00  0.00    +0.000 C 
ENDROOT
BRANCH   4   7
ATOM      7  C   UNL     1       4.657   5.274  18.667  0.00  0.00    +0.000 C 
ATOM      8  O   UNL     1       3.915   6.195  18.958  0.00  0.00    +0.000 OA
ATOM      9  N   UNL     1       4.299   3.984  18.953  0.00  0.00    +0.000 N 
ATOM     10  H   UNL     1       4.982   3.241  18.754  0.00  0.00    +0.000 HD
BRANCH   9  11
ATOM     11  C   UNL     1       3.075   3.592  19.601  0.00  0.00    +0.000 A 
ATOM     12  C   UNL     1       1.823   3.543  18.942  0.00  0.00    +0.000 A 
ATOM     13  C   UNL     1       0.676   3.179  19.644  0.00  0.00    +0.000 A 
ATOM     14  N   UNL     1       0.754   2.868  20.962  0.00  0.00    +0.000 NA
ATOM     15  C   UNL     1       1.937   2.888  21.627  0.00  0.00    +0.000 A 
ATOM     16  C   UNL     1       3.114   3.242  20.960  0.00  0.00    +0.000 A 
ENDBRANCH   9  11
ENDBRANCH   4   7
BRANCH   1  17
ATOM     17  C   UNL     1       7.149   4.922  14.396  0.00  0.00    +0.000 C 
BRANCH  17  18
ATOM     18  N   UNL     1       7.778   6.118  14.972  0.00  0.00    +0.000 NA
ATOM     19  H   UNL     1       8.821   6.013  14.993  0.00  0.00    +0.000 HD
ATOM     20  H   UNL     1       7.427   6.291  15.941  0.00  0.00    +0.000 HD
ENDBRANCH  17  18
BRANCH  17  21
ATOM     21  C   UNL     1       6.836   5.147  12.902  0.00  0.00    +0.000 C 
BRANCH  21  22
ATOM     22  C   UNL     1       7.240   4.033  11.925  0.00  0.00    +0.000 C 
BRANCH  22  23
ATOM     23  C   UNL     1       6.232   2.868  11.996  0.00  0.00    +0.000 C 
BRANCH  23  24
ATOM     24  C   UNL     1       4.778   3.371  12.063  0.00  0.00    +0.000 C 
BRANCH  24  25
ATOM     25  C   UNL     1       3.961   2.968  10.845  0.00  0.00    +0.000 C 
BRANCH  25  26
ATOM     26  C   UNL     1       3.064   4.143  10.435  0.00  0.00    +0.000 C 
BRANCH  26  28
ATOM     27  C   UNL     1       2.027   5.385   8.518  0.00  0.00    +0.000 C 
ATOM     28  C   UNL     1       2.946   4.237   8.917  0.00  0.00    +0.000 C 
ENDBRANCH  26  28
ENDBRANCH  25  26
ENDBRANCH  24  25
ENDBRANCH  23  24
ENDBRANCH  22  23
ENDBRANCH  21  22
ENDBRANCH  17  21
ENDBRANCH   1  17
TORSDOF 11
ENDMDL
MODEL 7
REMARK VINA RESULT:      -6.0      3.049      4.698
REMARK  Name = 
REMARK  12 active torsions:
REMARK  status: ('A' for Active; 'I' for Inactive)
REMARK    1  A    between atoms: C_1  and  C_2
REMARK    2  A    between atoms: C_2  and  C_3
REMARK    3  A    between atoms: C_3  and  C_4
REMARK    4  A    between atoms: C_4  and  C_5
REMARK    5  A    between atoms: C_5  and  C_6
REMARK    6  A    between atoms: C_6  and  C_7
REMARK    7  A    between atoms: C_7  and  C_8
REMARK    8  A    between atoms: C_8  and  C_9
REMARK    9  A    between atoms: C_9  and  N_10
REMARK   10  A    between atoms: C_9  and  C_11
REMARK   11  A    between atoms: C_14  and  C_15
REMARK   12  A    between atoms: N_17  and  C_18
REMARK                            x       y       z     vdW  Elec       q    Type
REMARK                         _______ _______ _______ _____ _____    ______ ____
ROOT
ATOM      1  C   UNL     1       1.353   4.212  18.920  0.00  0.00    +0.000 C 
ATOM      2  C   UNL     1       1.590   4.965  20.258  0.00  0.00    +0.000 C 
ATOM      3  C   UNL     1       2.949   5.711  20.257  0.00  0.00    +0.000 C 
ATOM      4  C   UNL     1       3.024   6.724  19.081  0.00  0.00    +0.000 C 
ATOM      5  C   UNL     1       2.793   5.957  17.755  0.00  0.00    +0.000 C 
ATOM      6  C   UNL     1       1.443   5.228  17.759  0.00  0.00    +0.000 C 
ENDROOT
BRANCH   4   7
ATOM      7  C   UNL     1       2.042   7.883  19.289  0.00  0.00    +0.000 C 
ATOM      8  O   UNL     1       1.545   8.030  20.391  0.00  0.00    +0.000 OA
ATOM      9  N   UNL     1       1.702   8.724  18.262  0.00  0.00    +0.000 N 
ATOM     10  H   UNL     1       2.091   8.525  17.330  0.00  0.00    +0.000 HD
BRANCH   9  11
ATOM     11  C   UNL     1       0.766   9.812  18.363  0.00  0.00    +0.000 A 
ATOM     12  C   UNL     1      -0.581   9.727  17.935  0.00  0.00    +0.000 A 
ATOM     13  C   UNL     1      -1.420  10.833  18.042  0.00  0.00    +0.000 A 
ATOM     14  N   UNL     1      -0.953  11.997  18.560  0.00  0.00    +0.000 NA
ATOM     15  C   UNL     1       0.327  12.115  18.996  0.00  0.00    +0.000 A 
ATOM     16  C   UNL     1       1.203  11.027  18.913  0.00  0.00    +0.000 A 
ENDBRANCH   9  11
ENDBRANCH   4   7
BRANCH   1  17
ATOM     17  C   UNL     1       2.283   2.964  18.718  0.00  0.00    +0.000 C 
BRANCH  17  18
ATOM     18  N   UNL     1       1.452   1.763  18.569  0.00  0.00    +0.000 NA
ATOM     19  H   UNL     1       0.441   1.990  18.735  0.00  0.00    +0.000 HD
ATOM     20  H   UNL     1       1.754   1.018  19.235  0.00  0.00    +0.000 HD
ENDBRANCH  17  18
BRANCH  17  21
ATOM     21  C   UNL     1       3.202   2.832  19.950  0.00  0.00    +0.000 C 
BRANCH  21  22
ATOM     22  C   UNL     1       4.711   2.710  19.690  0.00  0.00    +0.000 C 
BRANCH  22  23
ATOM     23  C   UNL     1       5.098   3.484  18.413  0.00  0.00    +0.000 C 
BRANCH  23  24
ATOM     24  C   UNL     1       6.041   4.661  18.720  0.00  0.00    +0.000 C 
BRANCH  24  25
ATOM     25  C   UNL     1       7.262   4.688  17.813  0.00  0.00    +0.000 C 
BRANCH  25  26
ATOM     26  C   UNL     1       6.929   5.495  16.552  0.00  0.00    +0.000 C 
BRANCH  26  28
ATOM     27  C   UNL     1       5.489   4.495  14.758  0.00  0.00    +0.000 C 
ATOM     28  C   UNL     1       6.903   4.598  15.319  0.00  0.00    +0.000 C 
ENDBRANCH  26  28
ENDBRANCH  25  26
ENDBRANCH  24  25
ENDBRANCH  23  24
ENDBRANCH  22  23
ENDBRANCH  21  22
ENDBRANCH  17  21
ENDBRANCH   1  17
TORSDOF 11
ENDMDL
MODEL 8
REMARK VINA RESULT:      -6.0      1.309      1.550
REMARK  Name = 
REMARK  12 active torsions:
REMARK  status: ('A' for Active; 'I' for Inactive)
REMARK    1  A    between atoms: C_1  and  C_2
REMARK    2  A    between atoms: C_2  and  C_3
REMARK    3  A    between atoms: C_3  and  C_4
REMARK    4  A    between atoms: C_4  and  C_5
REMARK    5  A    between atoms: C_5  and  C_6
REMARK    6  A    between atoms: C_6  and  C_7
REMARK    7  A    between atoms: C_7  and  C_8
REMARK    8  A    between atoms: C_8  and  C_9
REMARK    9  A    between atoms: C_9  and  N_10
REMARK   10  A    between atoms: C_9  and  C_11
REMARK   11  A    between atoms: C_14  and  C_15
REMARK   12  A    between atoms: N_17  and  C_18
REMARK                            x       y       z     vdW  Elec       q    Type
REMARK                         _______ _______ _______ _____ _____    ______ ____
ROOT
ATOM      1  C   UNL     1       3.632   4.872  17.040  0.00  0.00    +0.000 C 
ATOM      2  C   UNL     1       2.322   4.302  17.648  0.00  0.00    +0.000 C 
ATOM      3  C   UNL     1       2.562   3.703  19.058  0.00  0.00    +0.000 C 
ATOM      4  C   UNL     1       3.149   4.771  20.021  0.00  0.00    +0.000 C 
ATOM      5  C   UNL     1       4.458   5.325  19.405  0.00  0.00    +0.000 C 
ATOM      6  C   UNL     1       4.211   5.923  18.014  0.00  0.00    +0.000 C 
ENDROOT
BRANCH   4   7
ATOM      7  C   UNL     1       2.116   5.863  20.328  0.00  0.00    +0.000 C 
ATOM      8  O   UNL     1       0.992   5.523  20.649  0.00  0.00    +0.000 OA
ATOM      9  N   UNL     1       2.430   7.192  20.222  0.00  0.00    +0.000 N 
ATOM     10  H   UNL     1       3.369   7.438  19.883  0.00  0.00    +0.000 HD
BRANCH   9  11
ATOM     11  C   UNL     1       1.513   8.277  20.459  0.00  0.00    +0.000 A 
ATOM     12  C   UNL     1       0.904   8.526  21.712  0.00  0.00    +0.000 A 
ATOM     13  C   UNL     1       0.006   9.582  21.855  0.00  0.00    +0.000 A 
ATOM     14  N   UNL     1      -0.287  10.376  20.796  0.00  0.00    +0.000 NA
ATOM     15  C   UNL     1       0.287  10.180  19.582  0.00  0.00    +0.000 A 
ATOM     16  C   UNL     1       1.199   9.136  19.394  0.00  0.00    +0.000 A 
ENDBRANCH   9  11
ENDBRANCH   4   7
BRANCH   1  17
ATOM     17  C   UNL     1       4.675   3.773  16.632  0.00  0.00    +0.000 C 
BRANCH  17  18
ATOM     18  N   UNL     1       4.566   2.638  17.559  0.00  0.00    +0.000 NA
ATOM     19  H   UNL     1       4.594   1.730  17.035  0.00  0.00    +0.000 HD
ATOM     20  H   UNL     1       3.680   2.694  18.109  0.00  0.00    +0.000 HD
ENDBRANCH  17  18
BRANCH  17  21
ATOM     21  C   UNL     1       6.089   4.387  16.700  0.00  0.00    +0.000 C 
BRANCH  21  22
ATOM     22  C   UNL     1       6.837   4.574  15.372  0.00  0.00    +0.000 C 
BRANCH  22  23
ATOM     23  C   UNL     1       6.013   3.987  14.207  0.00  0.00    +0.000 C 
BRANCH  23  24
ATOM     24  C   UNL     1       6.816   3.963  12.893  0.00  0.00    +0.000 C 
BRANCH  24  25
ATOM     25  C   UNL     1       5.959   3.605  11.689  0.00  0.00    +0.000 C 
BRANCH  25  26
ATOM     26  C   UNL     1       5.529   2.137  11.800  0.00  0.00    +0.000 C 
BRANCH  26  28
ATOM     27  C   UNL     1       6.117  -0.241  11.260  0.00  0.00    +0.000 C 
ATOM     28  C   UNL     1       6.549   1.216  11.139  0.00  0.00    +0.000 C 
ENDBRANCH  26  28
ENDBRANCH  25  26
ENDBRANCH  24  25
ENDBRANCH  23  24
ENDBRANCH  22  23
ENDBRANCH  21  22
ENDBRANCH  17  21
ENDBRANCH   1  17
TORSDOF 11
ENDMDL
MODEL 9
REMARK VINA RESULT:      -6.0      4.007      7.592
REMARK  Name = 
REMARK  12 active torsions:
REMARK  status: ('A' for Active; 'I' for Inactive)
REMARK    1  A    between atoms: C_1  and  C_2
REMARK    2  A    between atoms: C_2  and  C_3
REMARK    3  A    between atoms: C_3  and  C_4
REMARK    4  A    between atoms: C_4  and  C_5
REMARK    5  A    between atoms: C_5  and  C_6
REMARK    6  A    between atoms: C_6  and  C_7
REMARK    7  A    between atoms: C_7  and  C_8
REMARK    8  A    between atoms: C_8  and  C_9
REMARK    9  A    between atoms: C_9  and  N_10
REMARK   10  A    between atoms: C_9  and  C_11
REMARK   11  A    between atoms: C_14  and  C_15
REMARK   12  A    between atoms: N_17  and  C_18
REMARK                            x       y       z     vdW  Elec       q    Type
REMARK                         _______ _______ _______ _____ _____    ______ ____
ROOT
ATOM      1  C   UNL     1       4.269   5.655  18.041  0.00  0.00    +0.000 C 
ATOM      2  C   UNL     1       5.473   5.261  18.939  0.00  0.00    +0.000 C 
ATOM      3  C   UNL     1       6.678   4.774  18.094  0.00  0.00    +0.000 C 
ATOM      4  C   UNL     1       7.129   5.869  17.088  0.00  0.00    +0.000 C 
ATOM      5  C   UNL     1       5.920   6.247  16.196  0.00  0.00    +0.000 C 
ATOM      6  C   UNL     1       4.735   6.736  17.038  0.00  0.00    +0.000 C 
ENDROOT
BRANCH   4   7
ATOM      7  C   UNL     1       7.738   7.072  17.820  0.00  0.00    +0.000 C 
ATOM      8  O   UNL     1       8.208   6.896  18.930  0.00  0.00    +0.000 OA
ATOM      9  N   UNL     1       7.738   8.322  17.262  0.00  0.00    +0.000 N 
ATOM     10  H   UNL     1       7.272   8.442  16.353  0.00  0.00    +0.000 HD
BRANCH   9  11
ATOM     11  C   UNL     1       8.258   9.507  17.893  0.00  0.00    +0.000 A 
ATOM     12  C   UNL     1       8.073  10.812  17.379  0.00  0.00    +0.000 A 
ATOM     13  C   UNL     1       8.630  11.908  18.034  0.00  0.00    +0.000 A 
ATOM     14  N   UNL     1       9.350  11.730  19.170  0.00  0.00    +0.000 NA
ATOM     15  C   UNL     1       9.538  10.497  19.704  0.00  0.00    +0.000 A 
ATOM     16  C   UNL     1       8.992   9.369  19.082  0.00  0.00    +0.000 A 
ENDBRANCH   9  11
ENDBRANCH   4   7
BRANCH   1  17
ATOM     17  C   UNL     1       3.566   4.436  17.347  0.00  0.00    +0.000 C 
BRANCH  17  18
ATOM     18  N   UNL     1       2.111   4.575  17.490  0.00  0.00    +0.000 NA
ATOM     19  H   UNL     1       1.825   5.580  17.402  0.00  0.00    +0.000 HD
ATOM     20  H   UNL     1       1.792   4.203  18.412  0.00  0.00    +0.000 HD
ENDBRANCH  17  18
BRANCH  17  21
ATOM     21  C   UNL     1       4.051   3.138  18.026  0.00  0.00    +0.000 C 
BRANCH  21  22
ATOM     22  C   UNL     1       3.035   2.376  18.889  0.00  0.00    +0.000 C 
BRANCH  22  23
ATOM     23  C   UNL     1       3.394   2.513  20.383  0.00  0.00    +0.000 C 
BRANCH  23  24
ATOM     24  C   UNL     1       2.149   2.776  21.250  0.00  0.00    +0.000 C 
BRANCH  24  25
ATOM     25  C   UNL     1       1.313   3.941  20.740  0.00  0.00    +0.000 C 
BRANCH  25  26
ATOM     26  C   UNL     1       2.021   5.254  21.093  0.00  0.00    +0.000 C 
BRANCH  26  28
ATOM     27  C   UNL     1       1.370   7.676  21.025  0.00  0.00    +0.000 C 
ATOM     28  C   UNL     1       1.525   6.396  20.211  0.00  0.00    +0.000 C 
ENDBRANCH  26  28
ENDBRANCH  25  26
ENDBRANCH  24  25
ENDBRANCH  23  24
ENDBRANCH  22  23
ENDBRANCH  21  22
ENDBRANCH  17  21
ENDBRANCH   1  17
TORSDOF 11
ENDMDL
