MODEL 1
REMARK VINA RESULT:      -7.1      0.000      0.000
REMARK  Name = 
REMARK  4 active torsions:
REMARK  status: ('A' for Active; 'I' for Inactive)
REMARK    1  A    between atoms: O_1  and  C_2
REMARK    2  A    between atoms: C_7  and  O_8
REMARK    3  A    between atoms: C_14  and  O_15
REMARK    4  A    between atoms: C_16  and  O_17
REMARK                            x       y       z     vdW  Elec       q    Type
REMARK                         _______ _______ _______ _____ _____    ______ ____
ROOT
ATOM      1  C   UNL     1       6.995   4.995  14.660  0.00  0.00    +0.000 A 
ATOM      2  C   UNL     1       7.214   5.412  15.965  0.00  0.00    +0.000 A 
ATOM      3  C   UNL     1       6.320   5.047  17.000  0.00  0.00    +0.000 A 
ATOM      4  C   UNL     1       5.185   4.246  16.739  0.00  0.00    +0.000 A 
ATOM      5  C   UNL     1       5.005   3.849  15.397  0.00  0.00    +0.000 A 
ATOM      6  C   UNL     1       5.889   4.215  14.376  0.00  0.00    +0.000 A 
ATOM      7  C   UNL     1       4.253   3.863  17.846  0.00  0.00    +0.000 A 
ATOM      8  C   UNL     1       4.516   4.315  19.164  0.00  0.00    +0.000 A 
ATOM      9  C   UNL     1       3.667   3.978  20.248  0.00  0.00    +0.000 A 
ATOM     10  C   UNL     1       2.539   3.197  20.054  0.00  0.00    +0.000 A 
ATOM     11 BR   UNL     1       1.419   2.778  21.518  0.00  0.00    +0.000 Br
ATOM     12  C   UNL     1       2.254   2.744  18.779  0.00  0.00    +0.000 A 
ATOM     13  C   UNL     1       3.093   3.066  17.699  0.00  0.00    +0.000 A 
ATOM     14  C   UNL     1       5.695   5.189  19.501  0.00  0.00    +0.000 C 
ATOM     15  C   UNL     1       6.645   5.562  18.373  0.00  0.00    +0.000 C 
ENDROOT
BRANCH   1  16
ATOM     16  O   UNL     1       7.852   5.347  13.658  0.00  0.00    +0.000 OA
ATOM     17  H   UNL     1       7.339   5.631  12.888  0.00  0.00    +0.000 HD
ENDBRANCH   1  16
BRANCH   6  18
ATOM     18  O   UNL     1       5.663   3.805  13.091  0.00  0.00    +0.000 OA
ATOM     19  H   UNL     1       4.771   4.080  12.829  0.00  0.00    +0.000 HD
ENDBRANCH   6  18
BRANCH  12  20
ATOM     20  O   UNL     1       1.154   1.968  18.499  0.00  0.00    +0.000 OA
ATOM     21  H   UNL     1       0.569   2.502  17.929  0.00  0.00    +0.000 HD
ENDBRANCH  12  20
BRANCH  13  22
ATOM     22  O   UNL     1       2.692   2.550  16.489  0.00  0.00    +0.000 OA
ATOM     23  H   UNL     1       3.323   2.913  15.836  0.00  0.00    +0.000 HD
ENDBRANCH  13  22
TORSDOF 4
ENDMDL
MODEL 2
REMARK VINA RESULT:      -6.8      5.705      7.645
REMARK  Name = 
REMARK  4 active torsions:
REMARK  status: ('A' for Active; 'I' for Inactive)
REMARK    1  A    between atoms: O_1  and  C_2
REMARK    2  A    between atoms: C_7  and  O_8
REMARK    3  A    between atoms: C_14  and  O_15
REMARK    4  A    between atoms: C_16  and  O_17
REMARK                            x       y       z     vdW  Elec       q    Type
REMARK                         _______ _______ _______ _____ _____    ______ ____
ROOT
ATOM      1  C   UNL     1      -0.249  10.366  21.545  0.00  0.00    +0.000 A 
ATOM      2  C   UNL     1       0.246  10.598  20.271  0.00  0.00    +0.000 A 
ATOM      3  C   UNL     1       1.037   9.624  19.615  0.00  0.00    +0.000 A 
ATOM      4  C   UNL     1       1.341   8.390  20.232  0.00  0.00    +0.000 A 
ATOM      5  C   UNL     1       0.815   8.202  21.529  0.00  0.00    +0.000 A 
ATOM      6  C   UNL     1       0.038   9.169  22.175  0.00  0.00    +0.000 A 
ATOM      7  C   UNL     1       2.172   7.367  19.522  0.00  0.00    +0.000 A 
ATOM      8  C   UNL     1       2.659   7.649  18.222  0.00  0.00    +0.000 A 
ATOM      9  C   UNL     1       3.448   6.715  17.505  0.00  0.00    +0.000 A 
ATOM     10  C   UNL     1       3.779   5.488  18.058  0.00  0.00    +0.000 A 
ATOM     11 BR   UNL     1       4.845   4.270  17.082  0.00  0.00    +0.000 Br
ATOM     12  C   UNL     1       3.321   5.186  19.328  0.00  0.00    +0.000 A 
ATOM     13  C   UNL     1       2.533   6.102  20.043  0.00  0.00    +0.000 A 
ATOM     14  C   UNL     1       2.391   8.954  17.520  0.00  0.00    +0.000 C 
ATOM     15  C   UNL     1       1.533   9.982  18.243  0.00  0.00    +0.000 C 
ENDROOT
BRANCH   1  16
ATOM     16  O   UNL     1      -1.009  11.303  22.184  0.00  0.00    +0.000 OA
ATOM     17  H   UNL     1      -1.901  10.950  22.316  0.00  0.00    +0.000 HD
ENDBRANCH   1  16
BRANCH   6  18
ATOM     18  O   UNL     1      -0.443   8.935  23.435  0.00  0.00    +0.000 OA
ATOM     19  H   UNL     1      -1.168   9.555  23.610  0.00  0.00    +0.000 HD
ENDBRANCH   6  18
BRANCH  12  20
ATOM     20  O   UNL     1       3.606   3.994  19.952  0.00  0.00    +0.000 OA
ATOM     21  H   UNL     1       3.007   3.927  20.719  0.00  0.00    +0.000 HD
ENDBRANCH  12  20
BRANCH  13  22
ATOM     22  O   UNL     1       2.147   5.672  21.291  0.00  0.00    +0.000 OA
ATOM     23  H   UNL     1       2.862   5.075  21.588  0.00  0.00    +0.000 HD
ENDBRANCH  13  22
TORSDOF 4
ENDMDL
MODEL 3
REMARK VINA RESULT:      -6.8      4.000      4.632
REMARK  Name = 
REMARK  4 active torsions:
REMARK  status: ('A' for Active; 'I' for Inactive)
REMARK    1  A    between atoms: O_1  and  C_2
REMARK    2  A    between atoms: C_7  and  O_8
REMARK    3  A    between atoms: C_14  and  O_15
REMARK    4  A    between atoms: C_16  and  O_17
REMARK                            x       y       z     vdW  Elec       q    Type
REMARK                         _______ _______ _______ _____ _____    ______ ____
ROOT
ATOM      1  C   UNL     1       5.146   4.293  16.744  0.00  0.00    +0.000 A 
ATOM      2  C   UNL     1       4.552   3.800  17.897  0.00  0.00    +0.000 A 
ATOM      3  C   UNL     1       3.717   4.624  18.688  0.00  0.00    +0.000 A 
ATOM      4  C   UNL     1       3.457   5.966  18.327  0.00  0.00    +0.000 A 
ATOM      5  C   UNL     1       4.085   6.420  17.148  0.00  0.00    +0.000 A 
ATOM      6  C   UNL     1       4.914   5.604  16.371  0.00  0.00    +0.000 A 
ATOM      7  C   UNL     1       2.564   6.822  19.170  0.00  0.00    +0.000 A 
ATOM      8  C   UNL     1       1.982   6.276  20.341  0.00  0.00    +0.000 A 
ATOM      9  C   UNL     1       1.128   7.043  21.173  0.00  0.00    +0.000 A 
ATOM     10  C   UNL     1       0.837   8.364  20.871  0.00  0.00    +0.000 A 
ATOM     11 BR   UNL     1      -0.294   9.364  22.009  0.00  0.00    +0.000 Br
ATOM     12  C   UNL     1       1.393   8.926  19.737  0.00  0.00    +0.000 A 
ATOM     13  C   UNL     1       2.236   8.172  18.903  0.00  0.00    +0.000 A 
ATOM     14  C   UNL     1       2.238   4.862  20.792  0.00  0.00    +0.000 C 
ATOM     15  C   UNL     1       3.135   3.995  19.921  0.00  0.00    +0.000 C 
ENDROOT
BRANCH   1  16
ATOM     16  O   UNL     1       5.956   3.503  15.980  0.00  0.00    +0.000 OA
ATOM     17  H   UNL     1       5.725   2.574  16.130  0.00  0.00    +0.000 HD
ENDBRANCH   1  16
BRANCH   6  18
ATOM     18  O   UNL     1       5.500   6.099  15.238  0.00  0.00    +0.000 OA
ATOM     19  H   UNL     1       4.806   6.441  14.653  0.00  0.00    +0.000 HD
ENDBRANCH   6  18
BRANCH  12  20
ATOM     20  O   UNL     1       1.160  10.230  19.367  0.00  0.00    +0.000 OA
ATOM     21  H   UNL     1       1.598  10.794  20.032  0.00  0.00    +0.000 HD
ENDBRANCH  12  20
BRANCH  13  22
ATOM     22  O   UNL     1       2.718   8.854  17.810  0.00  0.00    +0.000 OA
ATOM     23  H   UNL     1       2.521   8.280  17.044  0.00  0.00    +0.000 HD
ENDBRANCH  13  22
TORSDOF 4
ENDMDL
MODEL 4
REMARK VINA RESULT:      -6.7      4.315      5.878
REMARK  Name = 
REMARK  4 active torsions:
REMARK  status: ('A' for Active; 'I' for Inactive)
REMARK    1  A    between atoms: O_1  and  C_2
REMARK    2  A    between atoms: C_7  and  O_8
REMARK    3  A    between atoms: C_14  and  O_15
REMARK    4  A    between atoms: C_16  and  O_17
REMARK                            x       y       z     vdW  Elec       q    Type
REMARK                         _______ _______ _______ _____ _____    ______ ____
ROOT
ATOM      1  C   UNL     1       4.311   2.841  19.556  0.00  0.00    +0.000 A 
ATOM      2  C   UNL     1       4.592   3.649  18.465  0.00  0.00    +0.000 A 
ATOM      3  C   UNL     1       4.029   4.943  18.360  0.00  0.00    +0.000 A 
ATOM      4  C   UNL     1       3.173   5.453  19.362  0.00  0.00    +0.000 A 
ATOM      5  C   UNL     1       2.916   4.593  20.452  0.00  0.00    +0.000 A 
ATOM      6  C   UNL     1       3.471   3.313  20.549  0.00  0.00    +0.000 A 
ATOM      7  C   UNL     1       2.591   6.828  19.241  0.00  0.00    +0.000 A 
ATOM      8  C   UNL     1       2.904   7.616  18.105  0.00  0.00    +0.000 A 
ATOM      9  C   UNL     1       2.383   8.924  17.943  0.00  0.00    +0.000 A 
ATOM     10  C   UNL     1       1.538   9.478  18.892  0.00  0.00    +0.000 A 
ATOM     11 BR   UNL     1       0.848  11.219  18.638  0.00  0.00    +0.000 Br
ATOM     12  C   UNL     1       1.211   8.731  20.009  0.00  0.00    +0.000 A 
ATOM     13  C   UNL     1       1.728   7.436  20.182  0.00  0.00    +0.000 A 
ATOM     14  C   UNL     1       3.791   7.121  16.993  0.00  0.00    +0.000 C 
ATOM     15  C   UNL     1       4.389   5.730  17.132  0.00  0.00    +0.000 C 
ENDROOT
BRANCH   1  16
ATOM     16  O   UNL     1       4.848   1.590  19.660  0.00  0.00    +0.000 OA
ATOM     17  H   UNL     1       5.729   1.590  19.257  0.00  0.00    +0.000 HD
ENDBRANCH   1  16
BRANCH   6  18
ATOM     18  O   UNL     1       3.185   2.519  21.626  0.00  0.00    +0.000 OA
ATOM     19  H   UNL     1       2.303   2.750  21.956  0.00  0.00    +0.000 HD
ENDBRANCH   6  18
BRANCH  12  20
ATOM     20  O   UNL     1       0.377   9.202  20.995  0.00  0.00    +0.000 OA
ATOM     21  H   UNL     1      -0.534   8.976  20.726  0.00  0.00    +0.000 HD
ENDBRANCH  12  20
BRANCH  13  22
ATOM     22  O   UNL     1       1.322   6.808  21.336  0.00  0.00    +0.000 OA
ATOM     23  H   UNL     1       0.485   6.361  21.103  0.00  0.00    +0.000 HD
ENDBRANCH  13  22
TORSDOF 4
ENDMDL
MODEL 5
REMARK VINA RESULT:      -6.5      4.989      6.673
REMARK  Name = 
REMARK  4 active torsions:
REMARK  status: ('A' for Active; 'I' for Inactive)
REMARK    1  A    between atoms: O_1  and  C_2
REMARK    2  A    between atoms: C_7  and  O_8
REMARK    3  A    between atoms: C_14  and  O_15
REMARK    4  A    between atoms: C_16  and  O_17
REMARK                            x       y       z     vdW  Elec       q    Type
REMARK                         _______ _______ _______ _____ _____    ______ ____
ROOT
ATOM      1  C   UNL     1       3.329   3.542  20.010  0.00  0.00    +0.000 A 
ATOM      2  C   UNL     1       3.702   4.285  18.899  0.00  0.00    +0.000 A 
ATOM      3  C   UNL     1       3.258   5.619  18.740  0.00  0.00    +0.000 A 
ATOM      4  C   UNL     1       2.431   6.237  19.705  0.00  0.00    +0.000 A 
ATOM      5  C   UNL     1       2.078   5.441  20.816  0.00  0.00    +0.000 A 
ATOM      6  C   UNL     1       2.515   4.120  20.968  0.00  0.00    +0.000 A 
ATOM      7  C   UNL     1       1.977   7.652  19.526  0.00  0.00    +0.000 A 
ATOM      8  C   UNL     1       2.381   8.370  18.373  0.00  0.00    +0.000 A 
ATOM      9  C   UNL     1       1.981   9.712  18.156  0.00  0.00    +0.000 A 
ATOM     10  C   UNL     1       1.170  10.371  19.067  0.00  0.00    +0.000 A 
ATOM     11 BR   UNL     1       0.642  12.157  18.741  0.00  0.00    +0.000 Br
ATOM     12  C   UNL     1       0.756   9.695  20.200  0.00  0.00    +0.000 A 
ATOM     13  C   UNL     1       1.153   8.366  20.427  0.00  0.00    +0.000 A 
ATOM     14  C   UNL     1       3.241   7.761  17.298  0.00  0.00    +0.000 C 
ATOM     15  C   UNL     1       3.711   6.327  17.495  0.00  0.00    +0.000 C 
ENDROOT
BRANCH   1  16
ATOM     16  O   UNL     1       3.751   2.254  20.167  0.00  0.00    +0.000 OA
ATOM     17  H   UNL     1       4.409   2.051  19.485  0.00  0.00    +0.000 HD
ENDBRANCH   1  16
BRANCH   6  18
ATOM     18  O   UNL     1       2.139   3.393  22.063  0.00  0.00    +0.000 OA
ATOM     19  H   UNL     1       2.297   3.925  22.858  0.00  0.00    +0.000 HD
ENDBRANCH   6  18
BRANCH  12  20
ATOM     20  O   UNL     1      -0.052  10.271  21.151  0.00  0.00    +0.000 OA
ATOM     21  H   UNL     1       0.222  11.205  21.226  0.00  0.00    +0.000 HD
ENDBRANCH  12  20
BRANCH  13  22
ATOM     22  O   UNL     1       0.671   7.817  21.592  0.00  0.00    +0.000 OA
ATOM     23  H   UNL     1       1.425   7.324  21.973  0.00  0.00    +0.000 HD
ENDBRANCH  13  22
TORSDOF 4
ENDMDL
MODEL 6
REMARK VINA RESULT:      -6.4      4.475      5.565
REMARK  Name = 
REMARK  4 active torsions:
REMARK  status: ('A' for Active; 'I' for Inactive)
REMARK    1  A    between atoms: O_1  and  C_2
REMARK    2  A    between atoms: C_7  and  O_8
REMARK    3  A    between atoms: C_14  and  O_15
REMARK    4  A    between atoms: C_16  and  O_17
REMARK                            x       y       z     vdW  Elec       q    Type
REMARK                         _______ _______ _______ _____ _____    ______ ____
ROOT
ATOM      1  C   UNL     1       3.883   3.272  18.135  0.00  0.00    +0.000 A 
ATOM      2  C   UNL     1       3.181   3.549  19.298  0.00  0.00    +0.000 A 
ATOM      3  C   UNL     1       2.674   4.847  19.544  0.00  0.00    +0.000 A 
ATOM      4  C   UNL     1       2.859   5.895  18.614  0.00  0.00    +0.000 A 
ATOM      5  C   UNL     1       3.580   5.564  17.447  0.00  0.00    +0.000 A 
ATOM      6  C   UNL     1       4.084   4.280  17.209  0.00  0.00    +0.000 A 
ATOM      7  C   UNL     1       2.310   7.261  18.885  0.00  0.00    +0.000 A 
ATOM      8  C   UNL     1       1.602   7.498  20.090  0.00  0.00    +0.000 A 
ATOM      9  C   UNL     1       1.059   8.771  20.395  0.00  0.00    +0.000 A 
ATOM     10  C   UNL     1       1.209   9.837  19.522  0.00  0.00    +0.000 A 
ATOM     11 BR   UNL     1       0.485  11.527  19.964  0.00  0.00    +0.000 Br
ATOM     12  C   UNL     1       1.898   9.638  18.340  0.00  0.00    +0.000 A 
ATOM     13  C   UNL     1       2.434   8.378  18.026  0.00  0.00    +0.000 A 
ATOM     14  C   UNL     1       1.391   6.430  21.131  0.00  0.00    +0.000 C 
ATOM     15  C   UNL     1       1.941   5.041  20.841  0.00  0.00    +0.000 C 
ENDROOT
BRANCH   1  16
ATOM     16  O   UNL     1       4.378   2.023  17.894  0.00  0.00    +0.000 OA
ATOM     17  H   UNL     1       4.867   1.720  18.674  0.00  0.00    +0.000 HD
ENDBRANCH   1  16
BRANCH   6  18
ATOM     18  O   UNL     1       4.780   4.016  16.062  0.00  0.00    +0.000 OA
ATOM     19  H   UNL     1       5.013   3.075  16.049  0.00  0.00    +0.000 HD
ENDBRANCH   6  18
BRANCH  12  20
ATOM     20  O   UNL     1       2.096  10.641  17.421  0.00  0.00    +0.000 OA
ATOM     21  H   UNL     1       3.056  10.818  17.398  0.00  0.00    +0.000 HD
ENDBRANCH  12  20
BRANCH  13  22
ATOM     22  O   UNL     1       3.093   8.320  16.820  0.00  0.00    +0.000 OA
ATOM     23  H   UNL     1       2.414   8.049  16.171  0.00  0.00    +0.000 HD
ENDBRANCH  13  22
TORSDOF 4
ENDMDL
MODEL 7
REMARK VINA RESULT:      -6.4      5.804      6.474
REMARK  Name = 
REMARK  4 active torsions:
REMARK  status: ('A' for Active; 'I' for Inactive)
REMARK    1  A    between atoms: O_1  and  C_2
REMARK    2  A    between atoms: C_7  and  O_8
REMARK    3  A    between atoms: C_14  and  O_15
REMARK    4  A    between atoms: C_16  and  O_17
REMARK                            x       y       z     vdW  Elec       q    Type
REMARK                         _______ _______ _______ _____ _____    ______ ____
ROOT
ATOM      1  C   UNL     1       4.230   5.550  17.931  0.00  0.00    +0.000 A 
ATOM      2  C   UNL     1       3.473   5.466  19.090  0.00  0.00    +0.000 A 
ATOM      3  C   UNL     1       2.627   6.532  19.479  0.00  0.00    +0.000 A 
ATOM      4  C   UNL     1       2.522   7.706  18.700  0.00  0.00    +0.000 A 
ATOM      5  C   UNL     1       3.312   7.744  17.531  0.00  0.00    +0.000 A 
ATOM      6  C   UNL     1       4.151   6.690  17.152  0.00  0.00    +0.000 A 
ATOM      7  C   UNL     1       1.616   8.822  19.121  0.00  0.00    +0.000 A 
ATOM      8  C   UNL     1       0.865   8.692  20.316  0.00  0.00    +0.000 A 
ATOM      9  C   UNL     1      -0.009   9.717  20.758  0.00  0.00    +0.000 A 
ATOM     10  C   UNL     1      -0.153  10.892  20.037  0.00  0.00    +0.000 A 
ATOM     11 BR   UNL     1      -1.316  12.245  20.661  0.00  0.00    +0.000 Br
ATOM     12  C   UNL     1       0.570  11.048  18.869  0.00  0.00    +0.000 A 
ATOM     13  C   UNL     1       1.434  10.036  18.418  0.00  0.00    +0.000 A 
ATOM     14  C   UNL     1       0.950   7.477  21.201  0.00  0.00    +0.000 C 
ATOM     15  C   UNL     1       1.862   6.342  20.758  0.00  0.00    +0.000 C 
ENDROOT
BRANCH   1  16
ATOM     16  O   UNL     1       5.050   4.526  17.553  0.00  0.00    +0.000 OA
ATOM     17  H   UNL     1       5.252   4.614  16.610  0.00  0.00    +0.000 HD
ENDBRANCH   1  16
BRANCH   6  18
ATOM     18  O   UNL     1       4.898   6.783  16.010  0.00  0.00    +0.000 OA
ATOM     19  H   UNL     1       5.433   5.978  15.923  0.00  0.00    +0.000 HD
ENDBRANCH   6  18
BRANCH  12  20
ATOM     20  O   UNL     1       0.490  12.183  18.095  0.00  0.00    +0.000 OA
ATOM     21  H   UNL     1      -0.168  12.767  18.519  0.00  0.00    +0.000 HD
ENDBRANCH  12  20
BRANCH  13  22
ATOM     22  O   UNL     1       2.089  10.323  17.244  0.00  0.00    +0.000 OA
ATOM     23  H   UNL     1       1.577  11.050  16.837  0.00  0.00    +0.000 HD
ENDBRANCH  13  22
TORSDOF 4
ENDMDL
MODEL 8
REMARK VINA RESULT:      -6.3     10.150     10.805
REMARK  Name = 
REMARK  4 active torsions:
REMARK  status: ('A' for Active; 'I' for Inactive)
REMARK    1  A    between atoms: O_1  and  C_2
REMARK    2  A    between atoms: C_7  and  O_8
REMARK    3  A    between atoms: C_14  and  O_15
REMARK    4  A    between atoms: C_16  and  O_17
REMARK                            x       y       z     vdW  Elec       q    Type
REMARK                         _______ _______ _______ _____ _____    ______ ____
ROOT
ATOM      1  C   UNL     1      11.320  13.277  17.051  0.00  0.00    +0.000 A 
ATOM      2  C   UNL     1      10.447  14.311  17.355  0.00  0.00    +0.000 A 
ATOM      3  C   UNL     1       9.651  14.265  18.524  0.00  0.00    +0.000 A 
ATOM      4  C   UNL     1       9.725  13.172  19.418  0.00  0.00    +0.000 A 
ATOM      5  C   UNL     1      10.627  12.145  19.065  0.00  0.00    +0.000 A 
ATOM      6  C   UNL     1      11.408  12.193  17.905  0.00  0.00    +0.000 A 
ATOM      7  C   UNL     1       8.883  13.142  20.655  0.00  0.00    +0.000 A 
ATOM      8  C   UNL     1       8.002  14.220  20.923  0.00  0.00    +0.000 A 
ATOM      9  C   UNL     1       7.185  14.242  22.080  0.00  0.00    +0.000 A 
ATOM     10  C   UNL     1       7.214  13.199  22.993  0.00  0.00    +0.000 A 
ATOM     11 BR   UNL     1       6.100  13.251  24.520  0.00  0.00    +0.000 Br
ATOM     12  C   UNL     1       8.060  12.131  22.757  0.00  0.00    +0.000 A 
ATOM     13  C   UNL     1       8.879  12.103  21.616  0.00  0.00    +0.000 A 
ATOM     14  C   UNL     1       7.861  15.400  19.998  0.00  0.00    +0.000 C 
ATOM     15  C   UNL     1       8.731  15.430  18.751  0.00  0.00    +0.000 C 
ENDROOT
BRANCH   1  16
ATOM     16  O   UNL     1      12.087  13.315  15.922  0.00  0.00    +0.000 OA
ATOM     17  H   UNL     1      11.733  12.685  15.277  0.00  0.00    +0.000 HD
ENDBRANCH   1  16
BRANCH   6  18
ATOM     18  O   UNL     1      12.263  11.167  17.609  0.00  0.00    +0.000 OA
ATOM     19  H   UNL     1      12.232  10.519  18.330  0.00  0.00    +0.000 HD
ENDBRANCH   6  18
BRANCH  12  20
ATOM     20  O   UNL     1       8.147  11.054  23.608  0.00  0.00    +0.000 OA
ATOM     21  H   UNL     1       9.073  10.747  23.580  0.00  0.00    +0.000 HD
ENDBRANCH  12  20
BRANCH  13  22
ATOM     22  O   UNL     1       9.670  10.984  21.507  0.00  0.00    +0.000 OA
ATOM     23  H   UNL     1       9.271  10.459  20.785  0.00  0.00    +0.000 HD
ENDBRANCH  13  22
TORSDOF 4
ENDMDL
MODEL 9
REMARK VINA RESULT:      -6.2      7.878      9.067
REMARK  Name = 
REMARK  4 active torsions:
REMARK  status: ('A' for Active; 'I' for Inactive)
REMARK    1  A    between atoms: O_1  and  C_2
REMARK    2  A    between atoms: C_7  and  O_8
REMARK    3  A    between atoms: C_14  and  O_15
REMARK    4  A    between atoms: C_16  and  O_17
REMARK                            x       y       z     vdW  Elec       q    Type
REMARK                         _______ _______ _______ _____ _____    ______ ____
ROOT
ATOM      1  C   UNL     1      -1.384  13.285  20.106  0.00  0.00    +0.000 A 
ATOM      2  C   UNL     1      -1.329  12.380  21.156  0.00  0.00    +0.000 A 
ATOM      3  C   UNL     1      -0.594  11.176  21.034  0.00  0.00    +0.000 A 
ATOM      4  C   UNL     1       0.110  10.864  19.849  0.00  0.00    +0.000 A 
ATOM      5  C   UNL     1       0.023  11.816  18.810  0.00  0.00    +0.000 A 
ATOM      6  C   UNL     1      -0.709  13.002  18.933  0.00  0.00    +0.000 A 
ATOM      7  C   UNL     1       0.889   9.591  19.739  0.00  0.00    +0.000 A 
ATOM      8  C   UNL     1       0.913   8.694  20.836  0.00  0.00    +0.000 A 
ATOM      9  C   UNL     1       1.637   7.477  20.785  0.00  0.00    +0.000 A 
ATOM     10  C   UNL     1       2.346   7.116  19.650  0.00  0.00    +0.000 A 
ATOM     11 BR   UNL     1       3.290   5.478  19.609  0.00  0.00    +0.000 Br
ATOM     12  C   UNL     1       2.339   7.969  18.562  0.00  0.00    +0.000 A 
ATOM     13  C   UNL     1       1.629   9.180  18.605  0.00  0.00    +0.000 A 
ATOM     14  C   UNL     1       0.165   8.958  22.116  0.00  0.00    +0.000 C 
ATOM     15  C   UNL     1      -0.612  10.261  22.225  0.00  0.00    +0.000 C 
ENDROOT
BRANCH   1  16
ATOM     16  O   UNL     1      -2.094  14.445  20.217  0.00  0.00    +0.000 OA
ATOM     17  H   UNL     1      -1.486  15.196  20.152  0.00  0.00    +0.000 HD
ENDBRANCH   1  16
BRANCH   6  18
ATOM     18  O   UNL     1      -0.762  13.888  17.892  0.00  0.00    +0.000 OA
ATOM     19  H   UNL     1       0.117  14.279  17.771  0.00  0.00    +0.000 HD
ENDBRANCH   6  18
BRANCH  12  20
ATOM     20  O   UNL     1       3.011   7.686  17.396  0.00  0.00    +0.000 OA
ATOM     21  H   UNL     1       2.898   8.459  16.810  0.00  0.00    +0.000 HD
ENDBRANCH  12  20
BRANCH  13  22
ATOM     22  O   UNL     1       1.708   9.931  17.455  0.00  0.00    +0.000 OA
ATOM     23  H   UNL     1       2.451  10.549  17.605  0.00  0.00    +0.000 HD
ENDBRANCH  13  22
TORSDOF 4
ENDMDL
