MODEL 1
REMARK VINA RESULT:      -8.1      0.000      0.000
REMARK  Name = 
REMARK  4 active torsions:
REMARK  status: ('A' for Active; 'I' for Inactive)
REMARK    1  A    between atoms: C_1  and  C_2
REMARK    2  A    between atoms: C_8  and  C_9
REMARK    3  A    between atoms: C_12  and  N_13
REMARK    4  A    between atoms: C_20  and  C_21
REMARK                            x       y       z     vdW  Elec       q    Type
REMARK                         _______ _______ _______ _____ _____    ______ ____
ROOT
ATOM      1  C   UNL     1      -0.405  15.439  22.250  0.00  0.00    +0.000 C 
ATOM      2  C   UNL     1      -0.018  14.048  21.889  0.00  0.00    +0.000 A 
ATOM      3  N   UNL     1      -0.616  13.061  22.563  0.00  0.00    +0.000 NA
ATOM      4  N   UNL     1      -0.161  11.933  21.985  0.00  0.00    +0.000 N 
ATOM      5  C   UNL     1      -0.571  10.657  22.413  0.00  0.00    +0.000 A 
ATOM      6  O   UNL     1      -1.347  10.491  23.343  0.00  0.00    +0.000 OA
ATOM      7  C   UNL     1       0.019   9.530  21.651  0.00  0.00    +0.000 A 
ATOM      8  C   UNL     1       0.822   9.809  20.612  0.00  0.00    +0.000 A 
ATOM      9  N   UNL     1       1.120  11.102  20.219  0.00  0.00    +0.000 N 
ATOM     10  C   UNL     1       0.700  12.187  20.926  0.00  0.00    +0.000 A 
ATOM     11  C   UNL     1       0.895  13.566  20.877  0.00  0.00    +0.000 A 
ATOM     12  H   UNL     1       1.653  11.194  19.355  0.00  0.00    +0.000 HD
ENDROOT
BRANCH  11  13
ATOM     13  C   UNL     1       1.715  14.338  19.905  0.00  0.00    +0.000 A 
ATOM     14  C   UNL     1       3.114  14.145  19.935  0.00  0.00    +0.000 A 
ATOM     15  C   UNL     1       3.988  14.843  19.108  0.00  0.00    +0.000 A 
ATOM     16  C   UNL     1       3.505  15.889  18.351  0.00  0.00    +0.000 A 
ATOM     17  C   UNL     1       2.146  16.204  18.384  0.00  0.00    +0.000 A 
ATOM     18  C   UNL     1       1.724  17.423  17.843  0.00  0.00    +0.000 A 
ATOM     19  C   UNL     1       0.379  17.768  17.840  0.00  0.00    +0.000 A 
ATOM     20  C   UNL     1      -0.563  16.808  18.176  0.00  0.00    +0.000 A 
ATOM     21  C   UNL     1      -0.148  15.588  18.712  0.00  0.00    +0.000 A 
ATOM     22  C   UNL     1       1.212  15.338  19.015  0.00  0.00    +0.000 A 
ENDBRANCH  11  13
BRANCH   8  23
ATOM     23  C   UNL     1       1.438   8.700  19.868  0.00  0.00    +0.000 A 
ATOM     24  C   UNL     1       1.791   7.514  20.523  0.00  0.00    +0.000 A 
ATOM     25  C   UNL     1       2.381   6.463  19.814  0.00  0.00    +0.000 A 
ATOM     26  C   UNL     1       2.632   6.606  18.444  0.00  0.00    +0.000 A 
ATOM     27  C   UNL     1       2.289   7.788  17.775  0.00  0.00    +0.000 A 
ATOM     28  C   UNL     1       1.691   8.827  18.495  0.00  0.00    +0.000 A 
BRANCH  26  29
ATOM     29  N   UNL     1       3.228   5.491  17.699  0.00  0.00    +0.000 N 
ATOM     30  O   UNL     1       2.616   4.414  17.688  0.00  0.00    +0.000 OA
ATOM     31  O   UNL     1       4.306   5.694  17.120  0.00  0.00    +0.000 OA
ENDBRANCH  26  29
ENDBRANCH   8  23
TORSDOF 3
ENDMDL
MODEL 2
REMARK VINA RESULT:      -8.1      0.131      1.058
REMARK  Name = 
REMARK  4 active torsions:
REMARK  status: ('A' for Active; 'I' for Inactive)
REMARK    1  A    between atoms: C_1  and  C_2
REMARK    2  A    between atoms: C_8  and  C_9
REMARK    3  A    between atoms: C_12  and  N_13
REMARK    4  A    between atoms: C_20  and  C_21
REMARK                            x       y       z     vdW  Elec       q    Type
REMARK                         _______ _______ _______ _____ _____    ______ ____
ROOT
ATOM      1  C   UNL     1      -0.415  15.549  22.121  0.00  0.00    +0.000 C 
ATOM      2  C   UNL     1      -0.023  14.154  21.780  0.00  0.00    +0.000 A 
ATOM      3  N   UNL     1      -0.614  13.175  22.471  0.00  0.00    +0.000 NA
ATOM      4  N   UNL     1      -0.156  12.041  21.909  0.00  0.00    +0.000 N 
ATOM      5  C   UNL     1      -0.559  10.769  22.359  0.00  0.00    +0.000 A 
ATOM      6  O   UNL     1      -1.331  10.615  23.293  0.00  0.00    +0.000 OA
ATOM      7  C   UNL     1       0.033   9.633  21.612  0.00  0.00    +0.000 A 
ATOM      8  C   UNL     1       0.832   9.900  20.567  0.00  0.00    +0.000 A 
ATOM      9  N   UNL     1       1.123  11.187  20.152  0.00  0.00    +0.000 N 
ATOM     10  C   UNL     1       0.701  12.282  20.844  0.00  0.00    +0.000 A 
ATOM     11  C   UNL     1       0.889  13.660  20.773  0.00  0.00    +0.000 A 
ATOM     12  H   UNL     1       1.653  11.269  19.285  0.00  0.00    +0.000 HD
ENDROOT
BRANCH  11  13
ATOM     13  C   UNL     1       1.703  14.421  19.787  0.00  0.00    +0.000 A 
ATOM     14  C   UNL     1       3.100  14.213  19.796  0.00  0.00    +0.000 A 
ATOM     15  C   UNL     1       3.969  14.899  18.954  0.00  0.00    +0.000 A 
ATOM     16  C   UNL     1       3.485  15.949  18.201  0.00  0.00    +0.000 A 
ATOM     17  C   UNL     1       2.130  16.278  18.254  0.00  0.00    +0.000 A 
ATOM     18  C   UNL     1       1.713  17.500  17.715  0.00  0.00    +0.000 A 
ATOM     19  C   UNL     1       0.372  17.859  17.732  0.00  0.00    +0.000 A 
ATOM     20  C   UNL     1      -0.575  16.911  18.085  0.00  0.00    +0.000 A 
ATOM     21  C   UNL     1      -0.164  15.687  18.618  0.00  0.00    +0.000 A 
ATOM     22  C   UNL     1       1.197  15.424  18.901  0.00  0.00    +0.000 A 
ENDBRANCH  11  13
BRANCH   8  23
ATOM     23  C   UNL     1       1.451   8.782  19.838  0.00  0.00    +0.000 A 
ATOM     24  C   UNL     1       1.808   8.922  18.492  0.00  0.00    +0.000 A 
ATOM     25  C   UNL     1       2.392   7.856  17.800  0.00  0.00    +0.000 A 
ATOM     26  C   UNL     1       2.606   6.638  18.457  0.00  0.00    +0.000 A 
ATOM     27  C   UNL     1       2.249   6.480  19.802  0.00  0.00    +0.000 A 
ATOM     28  C   UNL     1       1.675   7.558  20.484  0.00  0.00    +0.000 A 
BRANCH  26  29
ATOM     29  N   UNL     1       3.242   5.530  17.735  0.00  0.00    +0.000 N 
ATOM     30  O   UNL     1       4.316   5.759  17.161  0.00  0.00    +0.000 OA
ATOM     31  O   UNL     1       2.669   4.430  17.745  0.00  0.00    +0.000 OA
ENDBRANCH  26  29
ENDBRANCH   8  23
TORSDOF 3
ENDMDL
MODEL 3
REMARK VINA RESULT:      -8.0      3.573      5.420
REMARK  Name = 
REMARK  4 active torsions:
REMARK  status: ('A' for Active; 'I' for Inactive)
REMARK    1  A    between atoms: C_1  and  C_2
REMARK    2  A    between atoms: C_8  and  C_9
REMARK    3  A    between atoms: C_12  and  N_13
REMARK    4  A    between atoms: C_20  and  C_21
REMARK                            x       y       z     vdW  Elec       q    Type
REMARK                         _______ _______ _______ _____ _____    ______ ____
ROOT
ATOM      1  C   UNL     1      -0.454   9.048  22.101  0.00  0.00    +0.000 C 
ATOM      2  C   UNL     1       0.544   8.348  21.247  0.00  0.00    +0.000 A 
ATOM      3  N   UNL     1       0.897   7.114  21.620  0.00  0.00    +0.000 NA
ATOM      4  N   UNL     1       1.721   6.689  20.644  0.00  0.00    +0.000 N 
ATOM      5  C   UNL     1       2.308   5.410  20.665  0.00  0.00    +0.000 A 
ATOM      6  O   UNL     1       2.123   4.616  21.575  0.00  0.00    +0.000 OA
ATOM      7  C   UNL     1       3.174   5.107  19.501  0.00  0.00    +0.000 A 
ATOM      8  C   UNL     1       3.278   6.022  18.524  0.00  0.00    +0.000 A 
ATOM      9  N   UNL     1       2.610   7.233  18.554  0.00  0.00    +0.000 N 
ATOM     10  C   UNL     1       1.877   7.627  19.632  0.00  0.00    +0.000 A 
ATOM     11  C   UNL     1       1.189   8.773  20.025  0.00  0.00    +0.000 A 
ATOM     12  H   UNL     1       2.679   7.802  17.711  0.00  0.00    +0.000 HD
ENDROOT
BRANCH  11  13
ATOM     13  C   UNL     1       1.035  10.048  19.274  0.00  0.00    +0.000 A 
ATOM     14  C   UNL     1       2.087  10.987  19.361  0.00  0.00    +0.000 A 
ATOM     15  C   UNL     1       2.038  12.231  18.741  0.00  0.00    +0.000 A 
ATOM     16  C   UNL     1       0.857  12.649  18.165  0.00  0.00    +0.000 A 
ATOM     17  C   UNL     1      -0.256  11.805  18.166  0.00  0.00    +0.000 A 
ATOM     18  C   UNL     1      -1.506  12.340  17.838  0.00  0.00    +0.000 A 
ATOM     19  C   UNL     1      -2.635  11.533  17.810  0.00  0.00    +0.000 A 
ATOM     20  C   UNL     1      -2.482  10.158  17.895  0.00  0.00    +0.000 A 
ATOM     21  C   UNL     1      -1.235   9.618  18.217  0.00  0.00    +0.000 A 
ATOM     22  C   UNL     1      -0.138  10.445  18.558  0.00  0.00    +0.000 A 
ENDBRANCH  11  13
BRANCH   8  23
ATOM     23  C   UNL     1       4.159   5.746  17.379  0.00  0.00    +0.000 A 
ATOM     24  C   UNL     1       4.693   6.796  16.623  0.00  0.00    +0.000 A 
ATOM     25  C   UNL     1       5.527   6.531  15.532  0.00  0.00    +0.000 A 
ATOM     26  C   UNL     1       5.814   5.204  15.187  0.00  0.00    +0.000 A 
ATOM     27  C   UNL     1       5.284   4.142  15.929  0.00  0.00    +0.000 A 
ATOM     28  C   UNL     1       4.460   4.423  17.024  0.00  0.00    +0.000 A 
BRANCH  26  29
ATOM     29  N   UNL     1       6.709   4.931  14.056  0.00  0.00    +0.000 N 
ATOM     30  O   UNL     1       7.761   5.582  13.985  0.00  0.00    +0.000 OA
ATOM     31  O   UNL     1       6.362   4.062  13.242  0.00  0.00    +0.000 OA
ENDBRANCH  26  29
ENDBRANCH   8  23
TORSDOF 3
ENDMDL
MODEL 4
REMARK VINA RESULT:      -8.0      3.624      5.401
REMARK  Name = 
REMARK  4 active torsions:
REMARK  status: ('A' for Active; 'I' for Inactive)
REMARK    1  A    between atoms: C_1  and  C_2
REMARK    2  A    between atoms: C_8  and  C_9
REMARK    3  A    between atoms: C_12  and  N_13
REMARK    4  A    between atoms: C_20  and  C_21
REMARK                            x       y       z     vdW  Elec       q    Type
REMARK                         _______ _______ _______ _____ _____    ______ ____
ROOT
ATOM      1  C   UNL     1      -0.421   8.981  22.050  0.00  0.00    +0.000 C 
ATOM      2  C   UNL     1       0.574   8.279  21.194  0.00  0.00    +0.000 A 
ATOM      3  N   UNL     1       0.920   7.042  21.563  0.00  0.00    +0.000 NA
ATOM      4  N   UNL     1       1.743   6.617  20.586  0.00  0.00    +0.000 N 
ATOM      5  C   UNL     1       2.323   5.335  20.603  0.00  0.00    +0.000 A 
ATOM      6  O   UNL     1       2.133   4.538  21.510  0.00  0.00    +0.000 OA
ATOM      7  C   UNL     1       3.189   5.032  19.438  0.00  0.00    +0.000 A 
ATOM      8  C   UNL     1       3.299   5.950  18.465  0.00  0.00    +0.000 A 
ATOM      9  N   UNL     1       2.637   7.164  18.499  0.00  0.00    +0.000 N 
ATOM     10  C   UNL     1       1.905   7.558  19.578  0.00  0.00    +0.000 A 
ATOM     11  C   UNL     1       1.223   8.706  19.975  0.00  0.00    +0.000 A 
ATOM     12  H   UNL     1       2.710   7.736  17.659  0.00  0.00    +0.000 HD
ENDROOT
BRANCH  11  13
ATOM     13  C   UNL     1       1.076   9.984  19.229  0.00  0.00    +0.000 A 
ATOM     14  C   UNL     1       2.156  10.893  19.274  0.00  0.00    +0.000 A 
ATOM     15  C   UNL     1       2.119  12.138  18.656  0.00  0.00    +0.000 A 
ATOM     16  C   UNL     1       0.929  12.589  18.124  0.00  0.00    +0.000 A 
ATOM     17  C   UNL     1      -0.206  11.778  18.169  0.00  0.00    +0.000 A 
ATOM     18  C   UNL     1      -1.452  12.347  17.888  0.00  0.00    +0.000 A 
ATOM     19  C   UNL     1      -2.604  11.572  17.905  0.00  0.00    +0.000 A 
ATOM     20  C   UNL     1      -2.487  10.194  17.985  0.00  0.00    +0.000 A 
ATOM     21  C   UNL     1      -1.244   9.619  18.260  0.00  0.00    +0.000 A 
ATOM     22  C   UNL     1      -0.112  10.414  18.558  0.00  0.00    +0.000 A 
ENDBRANCH  11  13
BRANCH   8  23
ATOM     23  C   UNL     1       4.179   5.673  17.319  0.00  0.00    +0.000 A 
ATOM     24  C   UNL     1       4.487   4.356  16.961  0.00  0.00    +0.000 A 
ATOM     25  C   UNL     1       5.328   4.096  15.874  0.00  0.00    +0.000 A 
ATOM     26  C   UNL     1       5.875   5.163  15.151  0.00  0.00    +0.000 A 
ATOM     27  C   UNL     1       5.580   6.487  15.500  0.00  0.00    +0.000 A 
ATOM     28  C   UNL     1       4.730   6.732  16.583  0.00  0.00    +0.000 A 
BRANCH  26  29
ATOM     29  N   UNL     1       6.737   4.886  13.996  0.00  0.00    +0.000 N 
ATOM     30  O   UNL     1       6.362   4.020  13.193  0.00  0.00    +0.000 OA
ATOM     31  O   UNL     1       7.787   5.537  13.890  0.00  0.00    +0.000 OA
ENDBRANCH  26  29
ENDBRANCH   8  23
TORSDOF 3
ENDMDL
MODEL 5
REMARK VINA RESULT:      -7.9      4.098      9.506
REMARK  Name = 
REMARK  4 active torsions:
REMARK  status: ('A' for Active; 'I' for Inactive)
REMARK    1  A    between atoms: C_1  and  C_2
REMARK    2  A    between atoms: C_8  and  C_9
REMARK    3  A    between atoms: C_12  and  N_13
REMARK    4  A    between atoms: C_20  and  C_21
REMARK                            x       y       z     vdW  Elec       q    Type
REMARK                         _______ _______ _______ _____ _____    ______ ____
ROOT
ATOM      1  C   UNL     1       4.874   1.416  19.184  0.00  0.00    +0.000 C 
ATOM      2  C   UNL     1       4.085   2.663  19.383  0.00  0.00    +0.000 A 
ATOM      3  N   UNL     1       2.885   2.533  19.957  0.00  0.00    +0.000 NA
ATOM      4  N   UNL     1       2.440   3.796  20.096  0.00  0.00    +0.000 N 
ATOM      5  C   UNL     1       1.192   4.088  20.679  0.00  0.00    +0.000 A 
ATOM      6  O   UNL     1       0.431   3.218  21.076  0.00  0.00    +0.000 OA
ATOM      7  C   UNL     1       0.873   5.533  20.766  0.00  0.00    +0.000 A 
ATOM      8  C   UNL     1       1.792   6.419  20.350  0.00  0.00    +0.000 A 
ATOM      9  N   UNL     1       3.026   6.043  19.849  0.00  0.00    +0.000 N 
ATOM     10  C   UNL     1       3.355   4.737  19.644  0.00  0.00    +0.000 A 
ATOM     11  C   UNL     1       4.421   4.037  19.084  0.00  0.00    +0.000 A 
ATOM     12  H   UNL     1       3.683   6.800  19.664  0.00  0.00    +0.000 HD
ENDROOT
BRANCH  11  13
ATOM     13  C   UNL     1       5.664   4.593  18.484  0.00  0.00    +0.000 A 
ATOM     14  C   UNL     1       6.492   5.381  19.313  0.00  0.00    +0.000 A 
ATOM     15  C   UNL     1       7.655   5.992  18.854  0.00  0.00    +0.000 A 
ATOM     16  C   UNL     1       7.929   5.983  17.503  0.00  0.00    +0.000 A 
ATOM     17  C   UNL     1       7.069   5.325  16.621  0.00  0.00    +0.000 A 
ATOM     18  C   UNL     1       7.203   5.561  15.249  0.00  0.00    +0.000 A 
ATOM     19  C   UNL     1       6.380   4.914  14.337  0.00  0.00    +0.000 A 
ATOM     20  C   UNL     1       5.577   3.873  14.775  0.00  0.00    +0.000 A 
ATOM     21  C   UNL     1       5.444   3.629  16.143  0.00  0.00    +0.000 A 
ATOM     22  C   UNL     1       6.033   4.483  17.107  0.00  0.00    +0.000 A 
ENDBRANCH  11  13
BRANCH   8  23
ATOM     23  C   UNL     1       1.475   7.854  20.402  0.00  0.00    +0.000 A 
ATOM     24  C   UNL     1       1.537   8.638  19.244  0.00  0.00    +0.000 A 
ATOM     25  C   UNL     1       1.239  10.004  19.297  0.00  0.00    +0.000 A 
ATOM     26  C   UNL     1       0.891  10.590  20.520  0.00  0.00    +0.000 A 
ATOM     27  C   UNL     1       0.829   9.820  21.688  0.00  0.00    +0.000 A 
ATOM     28  C   UNL     1       1.120   8.454  21.619  0.00  0.00    +0.000 A 
BRANCH  26  29
ATOM     29  N   UNL     1       0.555  12.018  20.566  0.00  0.00    +0.000 N 
ATOM     30  O   UNL     1       0.644  12.594  21.660  0.00  0.00    +0.000 OA
ATOM     31  O   UNL     1       0.205  12.563  19.509  0.00  0.00    +0.000 OA
ENDBRANCH  26  29
ENDBRANCH   8  23
TORSDOF 3
ENDMDL
MODEL 6
REMARK VINA RESULT:      -7.4      2.040      3.214
REMARK  Name = 
REMARK  4 active torsions:
REMARK  status: ('A' for Active; 'I' for Inactive)
REMARK    1  A    between atoms: C_1  and  C_2
REMARK    2  A    between atoms: C_8  and  C_9
REMARK    3  A    between atoms: C_12  and  N_13
REMARK    4  A    between atoms: C_20  and  C_21
REMARK                            x       y       z     vdW  Elec       q    Type
REMARK                         _______ _______ _______ _____ _____    ______ ____
ROOT
ATOM      1  C   UNL     1       0.152  16.429  18.946  0.00  0.00    +0.000 C 
ATOM      2  C   UNL     1       0.334  14.954  19.030  0.00  0.00    +0.000 A 
ATOM      3  N   UNL     1      -0.774  14.207  19.004  0.00  0.00    +0.000 NA
ATOM      4  N   UNL     1      -0.325  12.938  19.000  0.00  0.00    +0.000 N 
ATOM      5  C   UNL     1      -1.200  11.836  18.967  0.00  0.00    +0.000 A 
ATOM      6  O   UNL     1      -2.415  11.960  18.957  0.00  0.00    +0.000 OA
ATOM      7  C   UNL     1      -0.529  10.514  18.951  0.00  0.00    +0.000 A 
ATOM      8  C   UNL     1       0.812  10.475  18.912  0.00  0.00    +0.000 A 
ATOM      9  N   UNL     1       1.596  11.615  18.881  0.00  0.00    +0.000 N 
ATOM     10  C   UNL     1       1.061  12.862  18.993  0.00  0.00    +0.000 A 
ATOM     11  C   UNL     1       1.544  14.165  19.099  0.00  0.00    +0.000 A 
ATOM     12  H   UNL     1       2.595  11.466  18.744  0.00  0.00    +0.000 HD
ENDROOT
BRANCH  11  13
ATOM     13  C   UNL     1       2.961  14.616  19.111  0.00  0.00    +0.000 A 
ATOM     14  C   UNL     1       3.652  14.627  17.879  0.00  0.00    +0.000 A 
ATOM     15  C   UNL     1       4.992  14.983  17.771  0.00  0.00    +0.000 A 
ATOM     16  C   UNL     1       5.734  15.166  18.919  0.00  0.00    +0.000 A 
ATOM     17  C   UNL     1       5.126  15.039  20.169  0.00  0.00    +0.000 A 
ATOM     18  C   UNL     1       5.936  14.947  21.305  0.00  0.00    +0.000 A 
ATOM     19  C   UNL     1       5.371  14.837  22.569  0.00  0.00    +0.000 A 
ATOM     20  C   UNL     1       4.008  15.039  22.718  0.00  0.00    +0.000 A 
ATOM     21  C   UNL     1       3.195  15.137  21.587  0.00  0.00    +0.000 A 
ATOM     22  C   UNL     1       3.713  14.937  20.285  0.00  0.00    +0.000 A 
ENDBRANCH  11  13
BRANCH   8  23
ATOM     23  C   UNL     1       1.489   9.170  18.927  0.00  0.00    +0.000 A 
ATOM     24  C   UNL     1       1.476   8.376  20.081  0.00  0.00    +0.000 A 
ATOM     25  C   UNL     1       2.125   7.137  20.094  0.00  0.00    +0.000 A 
ATOM     26  C   UNL     1       2.803   6.697  18.951  0.00  0.00    +0.000 A 
ATOM     27  C   UNL     1       2.830   7.482  17.791  0.00  0.00    +0.000 A 
ATOM     28  C   UNL     1       2.168   8.714  17.788  0.00  0.00    +0.000 A 
BRANCH  26  29
ATOM     29  N   UNL     1       3.462   5.386  18.961  0.00  0.00    +0.000 N 
ATOM     30  O   UNL     1       2.933   4.472  18.313  0.00  0.00    +0.000 OA
ATOM     31  O   UNL     1       4.509   5.271  19.615  0.00  0.00    +0.000 OA
ENDBRANCH  26  29
ENDBRANCH   8  23
TORSDOF 3
ENDMDL
MODEL 7
REMARK VINA RESULT:      -7.4      3.989      5.482
REMARK  Name = 
REMARK  4 active torsions:
REMARK  status: ('A' for Active; 'I' for Inactive)
REMARK    1  A    between atoms: C_1  and  C_2
REMARK    2  A    between atoms: C_8  and  C_9
REMARK    3  A    between atoms: C_12  and  N_13
REMARK    4  A    between atoms: C_20  and  C_21
REMARK                            x       y       z     vdW  Elec       q    Type
REMARK                         _______ _______ _______ _____ _____    ______ ____
ROOT
ATOM      1  C   UNL     1      -3.540  15.126  21.016  0.00  0.00    +0.000 C 
ATOM      2  C   UNL     1      -2.506  14.103  20.697  0.00  0.00    +0.000 A 
ATOM      3  N   UNL     1      -1.268  14.337  21.141  0.00  0.00    +0.000 NA
ATOM      4  N   UNL     1      -0.573  13.236  20.801  0.00  0.00    +0.000 N 
ATOM      5  C   UNL     1       0.793  13.090  21.108  0.00  0.00    +0.000 A 
ATOM      6  O   UNL     1       1.435  13.956  21.683  0.00  0.00    +0.000 OA
ATOM      7  C   UNL     1       1.391  11.805  20.671  0.00  0.00    +0.000 A 
ATOM      8  C   UNL     1       0.596  10.892  20.090  0.00  0.00    +0.000 A 
ATOM      9  N   UNL     1      -0.757  11.095  19.886  0.00  0.00    +0.000 N 
ATOM     10  C   UNL     1      -1.360  12.284  20.167  0.00  0.00    +0.000 A 
ATOM     11  C   UNL     1      -2.625  12.843  19.997  0.00  0.00    +0.000 A 
ATOM     12  H   UNL     1      -1.281  10.294  19.535  0.00  0.00    +0.000 HD
ENDROOT
BRANCH  11  13
ATOM     13  C   UNL     1      -3.828  12.213  19.391  0.00  0.00    +0.000 A 
ATOM     14  C   UNL     1      -3.725  11.761  18.057  0.00  0.00    +0.000 A 
ATOM     15  C   UNL     1      -4.794  11.198  17.368  0.00  0.00    +0.000 A 
ATOM     16  C   UNL     1      -6.051  11.235  17.934  0.00  0.00    +0.000 A 
ATOM     17  C   UNL     1      -6.229  11.789  19.202  0.00  0.00    +0.000 A 
ATOM     18  C   UNL     1      -7.528  12.073  19.636  0.00  0.00    +0.000 A 
ATOM     19  C   UNL     1      -7.751  12.609  20.898  0.00  0.00    +0.000 A 
ATOM     20  C   UNL     1      -6.703  12.657  21.804  0.00  0.00    +0.000 A 
ATOM     21  C   UNL     1      -5.405  12.369  21.377  0.00  0.00    +0.000 A 
ATOM     22  C   UNL     1      -5.112  12.123  20.015  0.00  0.00    +0.000 A 
ENDBRANCH  11  13
BRANCH   8  23
ATOM     23  C   UNL     1       1.184   9.628  19.624  0.00  0.00    +0.000 A 
ATOM     24  C   UNL     1       1.527   9.456  18.278  0.00  0.00    +0.000 A 
ATOM     25  C   UNL     1       2.082   8.251  17.836  0.00  0.00    +0.000 A 
ATOM     26  C   UNL     1       2.281   7.206  18.747  0.00  0.00    +0.000 A 
ATOM     27  C   UNL     1       1.940   7.359  20.096  0.00  0.00    +0.000 A 
ATOM     28  C   UNL     1       1.395   8.574  20.525  0.00  0.00    +0.000 A 
BRANCH  26  29
ATOM     29  N   UNL     1       2.887   5.951  18.284  0.00  0.00    +0.000 N 
ATOM     30  O   UNL     1       3.869   6.030  17.532  0.00  0.00    +0.000 OA
ATOM     31  O   UNL     1       2.383   4.888  18.677  0.00  0.00    +0.000 OA
ENDBRANCH  26  29
ENDBRANCH   8  23
TORSDOF 3
ENDMDL
MODEL 8
REMARK VINA RESULT:      -7.4      3.863      7.256
REMARK  Name = 
REMARK  4 active torsions:
REMARK  status: ('A' for Active; 'I' for Inactive)
REMARK    1  A    between atoms: C_1  and  C_2
REMARK    2  A    between atoms: C_8  and  C_9
REMARK    3  A    between atoms: C_12  and  N_13
REMARK    4  A    between atoms: C_20  and  C_21
REMARK                            x       y       z     vdW  Elec       q    Type
REMARK                         _______ _______ _______ _____ _____    ______ ____
ROOT
ATOM      1  C   UNL     1      -2.731  12.442  20.225  0.00  0.00    +0.000 C 
ATOM      2  C   UNL     1      -1.370  12.951  19.903  0.00  0.00    +0.000 A 
ATOM      3  N   UNL     1      -1.286  14.207  19.455  0.00  0.00    +0.000 NA
ATOM      4  N   UNL     1       0.035  14.435  19.333  0.00  0.00    +0.000 N 
ATOM      5  C   UNL     1       0.543  15.670  18.889  0.00  0.00    +0.000 A 
ATOM      6  O   UNL     1      -0.179  16.602  18.569  0.00  0.00    +0.000 OA
ATOM      7  C   UNL     1       2.023  15.746  18.832  0.00  0.00    +0.000 A 
ATOM      8  C   UNL     1       2.736  14.689  19.251  0.00  0.00    +0.000 A 
ATOM      9  N   UNL     1       2.151  13.533  19.737  0.00  0.00    +0.000 N 
ATOM     10  C   UNL     1       0.802  13.347  19.727  0.00  0.00    +0.000 A 
ATOM     11  C   UNL     1      -0.080  12.311  20.031  0.00  0.00    +0.000 A 
ATOM     12  H   UNL     1       2.789  12.838  20.125  0.00  0.00    +0.000 HD
ENDROOT
BRANCH  11  13
ATOM     13  C   UNL     1       0.249  10.947  20.522  0.00  0.00    +0.000 A 
ATOM     14  C   UNL     1       0.190  10.724  21.915  0.00  0.00    +0.000 A 
ATOM     15  C   UNL     1       0.520   9.504  22.498  0.00  0.00    +0.000 A 
ATOM     16  C   UNL     1       1.094   8.522  21.719  0.00  0.00    +0.000 A 
ATOM     17  C   UNL     1       1.293   8.741  20.355  0.00  0.00    +0.000 A 
ATOM     18  C   UNL     1       2.120   7.864  19.646  0.00  0.00    +0.000 A 
ATOM     19  C   UNL     1       2.331   8.036  18.284  0.00  0.00    +0.000 A 
ATOM     20  C   UNL     1       1.548   8.945  17.591  0.00  0.00    +0.000 A 
ATOM     21  C   UNL     1       0.716   9.820  18.293  0.00  0.00    +0.000 A 
ATOM     22  C   UNL     1       0.723   9.870  19.708  0.00  0.00    +0.000 A 
ENDBRANCH  11  13
BRANCH   8  23
ATOM     23  C   UNL     1       4.203  14.740  19.170  0.00  0.00    +0.000 A 
ATOM     24  C   UNL     1       4.855  14.549  17.946  0.00  0.00    +0.000 A 
ATOM     25  C   UNL     1       6.251  14.594  17.873  0.00  0.00    +0.000 A 
ATOM     26  C   UNL     1       6.999  14.818  19.036  0.00  0.00    +0.000 A 
ATOM     27  C   UNL     1       6.362  15.006  20.269  0.00  0.00    +0.000 A 
ATOM     28  C   UNL     1       4.965  14.968  20.325  0.00  0.00    +0.000 A 
BRANCH  26  29
ATOM     29  N   UNL     1       8.463  14.889  18.951  0.00  0.00    +0.000 N 
ATOM     30  O   UNL     1       9.114  13.969  19.465  0.00  0.00    +0.000 OA
ATOM     31  O   UNL     1       8.960  15.863  18.366  0.00  0.00    +0.000 OA
ENDBRANCH  26  29
ENDBRANCH   8  23
TORSDOF 3
ENDMDL
MODEL 9
REMARK VINA RESULT:      -7.4      1.967      3.269
REMARK  Name = 
REMARK  4 active torsions:
REMARK  status: ('A' for Active; 'I' for Inactive)
REMARK    1  A    between atoms: C_1  and  C_2
REMARK    2  A    between atoms: C_8  and  C_9
REMARK    3  A    between atoms: C_12  and  N_13
REMARK    4  A    between atoms: C_20  and  C_21
REMARK                            x       y       z     vdW  Elec       q    Type
REMARK                         _______ _______ _______ _____ _____    ______ ____
ROOT
ATOM      1  C   UNL     1       0.034  16.517  19.186  0.00  0.00    +0.000 C 
ATOM      2  C   UNL     1       0.237  15.043  19.241  0.00  0.00    +0.000 A 
ATOM      3  N   UNL     1      -0.862  14.284  19.288  0.00  0.00    +0.000 NA
ATOM      4  N   UNL     1      -0.401  13.020  19.239  0.00  0.00    +0.000 N 
ATOM      5  C   UNL     1      -1.265  11.909  19.257  0.00  0.00    +0.000 A 
ATOM      6  O   UNL     1      -2.479  12.020  19.337  0.00  0.00    +0.000 OA
ATOM      7  C   UNL     1      -0.583  10.594  19.179  0.00  0.00    +0.000 A 
ATOM      8  C   UNL     1       0.752  10.571  19.043  0.00  0.00    +0.000 A 
ATOM      9  N   UNL     1       1.519  11.720  18.967  0.00  0.00    +0.000 N 
ATOM     10  C   UNL     1       0.981  12.961  19.131  0.00  0.00    +0.000 A 
ATOM     11  C   UNL     1       1.456  14.268  19.215  0.00  0.00    +0.000 A 
ATOM     12  H   UNL     1       2.507  11.584  18.757  0.00  0.00    +0.000 HD
ENDROOT
BRANCH  11  13
ATOM     13  C   UNL     1       2.866  14.734  19.129  0.00  0.00    +0.000 A 
ATOM     14  C   UNL     1       3.435  14.855  17.842  0.00  0.00    +0.000 A 
ATOM     15  C   UNL     1       4.757  15.236  17.636  0.00  0.00    +0.000 A 
ATOM     16  C   UNL     1       5.605  15.333  18.719  0.00  0.00    +0.000 A 
ATOM     17  C   UNL     1       5.120  15.096  20.007  0.00  0.00    +0.000 A 
ATOM     18  C   UNL     1       6.036  14.922  21.049  0.00  0.00    +0.000 A 
ATOM     19  C   UNL     1       5.597  14.702  22.347  0.00  0.00    +0.000 A 
ATOM     20  C   UNL     1       4.254  14.873  22.642  0.00  0.00    +0.000 A 
ATOM     21  C   UNL     1       3.335  15.053  21.606  0.00  0.00    +0.000 A 
ATOM     22  C   UNL     1       3.726  14.967  20.248  0.00  0.00    +0.000 A 
ENDBRANCH  11  13
BRANCH   8  23
ATOM     23  C   UNL     1       1.442   9.274  18.996  0.00  0.00    +0.000 A 
ATOM     24  C   UNL     1       2.110   8.865  17.835  0.00  0.00    +0.000 A 
ATOM     25  C   UNL     1       2.762   7.629  17.792  0.00  0.00    +0.000 A 
ATOM     26  C   UNL     1       2.731   6.790  18.913  0.00  0.00    +0.000 A 
ATOM     27  C   UNL     1       2.063   7.182  20.080  0.00  0.00    +0.000 A 
ATOM     28  C   UNL     1       1.424   8.425  20.112  0.00  0.00    +0.000 A 
BRANCH  26  29
ATOM     29  N   UNL     1       3.438   5.504  18.872  0.00  0.00    +0.000 N 
ATOM     30  O   UNL     1       3.616   4.911  19.946  0.00  0.00    +0.000 OA
ATOM     31  O   UNL     1       3.810   5.085  17.766  0.00  0.00    +0.000 OA
ENDBRANCH  26  29
ENDBRANCH   8  23
TORSDOF 3
ENDMDL
