MODEL 1
REMARK VINA RESULT:      -8.1      0.000      0.000
REMARK  Name = 
REMARK  4 active torsions:
REMARK  status: ('A' for Active; 'I' for Inactive)
REMARK    1  A    between atoms: C_1  and  C_2
REMARK    2  A    between atoms: C_2  and  C_3
REMARK    3  A    between atoms: C_5  and  C_6
REMARK    4  A    between atoms: C_7  and  C_8
REMARK                            x       y       z     vdW  Elec       q    Type
REMARK                         _______ _______ _______ _____ _____    ______ ____
ROOT
ATOM      1  C   UNL     1       8.233   8.802  17.829  0.00  0.00    +0.000 C 
ATOM      2  C   UNL     1       8.866   9.243  18.929  0.00  0.00    +0.000 C 
ENDROOT
BRANCH   1   7
ATOM      3  C   UNL     1       4.847   5.916  16.784  0.00  0.00    +0.000 C 
ATOM      4  C   UNL     1       6.365   5.912  16.685  0.00  0.00    +0.000 C 
ATOM      5  C   UNL     1       6.872   5.110  15.495  0.00  0.00    +0.000 C 
ATOM      6  O   UNL     1       6.836   7.273  16.578  0.00  0.00    +0.000 OA
ATOM      7  C   UNL     1       7.628   7.498  17.702  0.00  0.00    +0.000 C 
ATOM      8  C   UNL     1       7.784   6.503  18.570  0.00  0.00    +0.000 C 
ATOM      9  C   UNL     1       6.994   5.439  17.973  0.00  0.00    +0.000 C 
ATOM     10  O   UNL     1       6.884   4.332  18.478  0.00  0.00    +0.000 OA
ENDBRANCH   1   7
BRANCH   2  11
ATOM     11  C   UNL     1       9.468  10.576  19.080  0.00  0.00    +0.000 A 
ATOM     12  C   UNL     1       9.793  11.120  20.334  0.00  0.00    +0.000 A 
ATOM     13  C   UNL     1      10.407  12.373  20.433  0.00  0.00    +0.000 A 
ATOM     14  C   UNL     1      10.710  13.081  19.277  0.00  0.00    +0.000 A 
ATOM     15  F   UNL     1      11.307  14.276  19.375  0.00  0.00    +0.000 F 
ATOM     16  C   UNL     1      10.406  12.548  18.031  0.00  0.00    +0.000 A 
ATOM     17  F   UNL     1      10.710  13.227  16.916  0.00  0.00    +0.000 F 
ATOM     18  C   UNL     1       9.792  11.302  17.925  0.00  0.00    +0.000 A 
ENDBRANCH   2  11
TORSDOF 2
ENDMDL
MODEL 2
REMARK VINA RESULT:      -8.0      0.728      1.627
REMARK  Name = 
REMARK  4 active torsions:
REMARK  status: ('A' for Active; 'I' for Inactive)
REMARK    1  A    between atoms: C_1  and  C_2
REMARK    2  A    between atoms: C_2  and  C_3
REMARK    3  A    between atoms: C_5  and  C_6
REMARK    4  A    between atoms: C_7  and  C_8
REMARK                            x       y       z     vdW  Elec       q    Type
REMARK                         _______ _______ _______ _____ _____    ______ ____
ROOT
ATOM      1  C   UNL     1       8.204   8.805  17.819  0.00  0.00    +0.000 C 
ATOM      2  C   UNL     1       8.861   9.238  18.908  0.00  0.00    +0.000 C 
ENDROOT
BRANCH   1   7
ATOM      3  C   UNL     1       4.856   5.878  16.764  0.00  0.00    +0.000 C 
ATOM      4  C   UNL     1       6.375   5.894  16.667  0.00  0.00    +0.000 C 
ATOM      5  C   UNL     1       6.892   5.101  15.476  0.00  0.00    +0.000 C 
ATOM      6  O   UNL     1       6.828   7.261  16.563  0.00  0.00    +0.000 OA
ATOM      7  C   UNL     1       7.616   7.494  17.688  0.00  0.00    +0.000 C 
ATOM      8  C   UNL     1       7.784   6.499  18.555  0.00  0.00    +0.000 C 
ATOM      9  C   UNL     1       7.008   5.426  17.954  0.00  0.00    +0.000 C 
ATOM     10  O   UNL     1       6.911   4.316  18.457  0.00  0.00    +0.000 OA
ENDBRANCH   1   7
BRANCH   2  11
ATOM     11  C   UNL     1       9.446  10.579  19.064  0.00  0.00    +0.000 A 
ATOM     12  C   UNL     1       9.854  11.356  17.968  0.00  0.00    +0.000 A 
ATOM     13  C   UNL     1      10.363  12.646  18.155  0.00  0.00    +0.000 A 
ATOM     14  C   UNL     1      10.453  13.167  19.440  0.00  0.00    +0.000 A 
ATOM     15  F   UNL     1      10.932  14.406  19.615  0.00  0.00    +0.000 F 
ATOM     16  C   UNL     1      10.040  12.413  20.530  0.00  0.00    +0.000 A 
ATOM     17  F   UNL     1      10.117  12.921  21.768  0.00  0.00    +0.000 F 
ATOM     18  C   UNL     1       9.535  11.128  20.351  0.00  0.00    +0.000 A 
ENDBRANCH   2  11
TORSDOF 2
ENDMDL
MODEL 3
REMARK VINA RESULT:      -7.5      4.053      7.434
REMARK  Name = 
REMARK  4 active torsions:
REMARK  status: ('A' for Active; 'I' for Inactive)
REMARK    1  A    between atoms: C_1  and  C_2
REMARK    2  A    between atoms: C_2  and  C_3
REMARK    3  A    between atoms: C_5  and  C_6
REMARK    4  A    between atoms: C_7  and  C_8
REMARK                            x       y       z     vdW  Elec       q    Type
REMARK                         _______ _______ _______ _____ _____    ______ ____
ROOT
ATOM      1  C   UNL     1       8.346   9.265  18.065  0.00  0.00    +0.000 C 
ATOM      2  C   UNL     1       8.319   8.010  18.545  0.00  0.00    +0.000 C 
ENDROOT
BRANCH   1   7
ATOM      3  C   UNL     1      11.836  12.215  18.125  0.00  0.00    +0.000 C 
ATOM      4  C   UNL     1      10.372  12.234  18.537  0.00  0.00    +0.000 C 
ATOM      5  C   UNL     1       9.740  13.610  18.383  0.00  0.00    +0.000 C 
ATOM      6  O   UNL     1       9.641  11.281  17.735  0.00  0.00    +0.000 OA
ATOM      7  C   UNL     1       9.134  10.336  18.624  0.00  0.00    +0.000 C 
ATOM      8  C   UNL     1       9.395  10.488  19.919  0.00  0.00    +0.000 C 
ATOM      9  C   UNL     1      10.193  11.703  19.938  0.00  0.00    +0.000 C 
ATOM     10  O   UNL     1      10.636  12.189  20.968  0.00  0.00    +0.000 OA
ENDBRANCH   1   7
BRANCH   2  11
ATOM     11  C   UNL     1       7.539   6.903  17.972  0.00  0.00    +0.000 A 
ATOM     12  C   UNL     1       7.676   5.576  18.412  0.00  0.00    +0.000 A 
ATOM     13  C   UNL     1       6.883   4.558  17.873  0.00  0.00    +0.000 A 
ATOM     14  C   UNL     1       5.938   4.866  16.903  0.00  0.00    +0.000 A 
ATOM     15  F   UNL     1       5.172   3.891  16.397  0.00  0.00    +0.000 F 
ATOM     16  C   UNL     1       5.783   6.177  16.470  0.00  0.00    +0.000 A 
ATOM     17  F   UNL     1       4.863   6.475  15.542  0.00  0.00    +0.000 F 
ATOM     18  C   UNL     1       6.572   7.195  17.000  0.00  0.00    +0.000 A 
ENDBRANCH   2  11
TORSDOF 2
ENDMDL
MODEL 4
REMARK VINA RESULT:      -7.4      1.094      1.244
REMARK  Name = 
REMARK  4 active torsions:
REMARK  status: ('A' for Active; 'I' for Inactive)
REMARK    1  A    between atoms: C_1  and  C_2
REMARK    2  A    between atoms: C_2  and  C_3
REMARK    3  A    between atoms: C_5  and  C_6
REMARK    4  A    between atoms: C_7  and  C_8
REMARK                            x       y       z     vdW  Elec       q    Type
REMARK                         _______ _______ _______ _____ _____    ______ ____
ROOT
ATOM      1  C   UNL     1       8.266   8.860  17.508  0.00  0.00    +0.000 C 
ATOM      2  C   UNL     1       8.695   9.616  18.532  0.00  0.00    +0.000 C 
ENDROOT
BRANCH   1   7
ATOM      3  C   UNL     1       4.532   6.228  17.630  0.00  0.00    +0.000 C 
ATOM      4  C   UNL     1       5.965   6.082  17.141  0.00  0.00    +0.000 C 
ATOM      5  C   UNL     1       6.081   5.161  15.935  0.00  0.00    +0.000 C 
ATOM      6  O   UNL     1       6.485   7.385  16.798  0.00  0.00    +0.000 OA
ATOM      7  C   UNL     1       7.560   7.610  17.655  0.00  0.00    +0.000 C 
ATOM      8  C   UNL     1       7.871   6.664  18.536  0.00  0.00    +0.000 C 
ATOM      9  C   UNL     1       6.879   5.638  18.258  0.00  0.00    +0.000 C 
ATOM     10  O   UNL     1       6.830   4.581  18.868  0.00  0.00    +0.000 OA
ENDBRANCH   1   7
BRANCH   2  11
ATOM     11  C   UNL     1       9.396  10.902  18.398  0.00  0.00    +0.000 A 
ATOM     12  C   UNL     1      10.792  11.015  18.498  0.00  0.00    +0.000 A 
ATOM     13  C   UNL     1      11.425  12.249  18.318  0.00  0.00    +0.000 A 
ATOM     14  C   UNL     1      10.664  13.374  18.023  0.00  0.00    +0.000 A 
ATOM     15  F   UNL     1      11.274  14.552  17.841  0.00  0.00    +0.000 F 
ATOM     16  C   UNL     1       9.284  13.272  17.907  0.00  0.00    +0.000 A 
ATOM     17  F   UNL     1       8.551  14.355  17.611  0.00  0.00    +0.000 F 
ATOM     18  C   UNL     1       8.646  12.047  18.088  0.00  0.00    +0.000 A 
ENDBRANCH   2  11
TORSDOF 2
ENDMDL
MODEL 5
REMARK VINA RESULT:      -7.3      4.193      7.572
REMARK  Name = 
REMARK  4 active torsions:
REMARK  status: ('A' for Active; 'I' for Inactive)
REMARK    1  A    between atoms: C_1  and  C_2
REMARK    2  A    between atoms: C_2  and  C_3
REMARK    3  A    between atoms: C_5  and  C_6
REMARK    4  A    between atoms: C_7  and  C_8
REMARK                            x       y       z     vdW  Elec       q    Type
REMARK                         _______ _______ _______ _____ _____    ______ ____
ROOT
ATOM      1  C   UNL     1       8.819   9.378  18.940  0.00  0.00    +0.000 C 
ATOM      2  C   UNL     1       8.246   8.833  17.854  0.00  0.00    +0.000 C 
ENDROOT
BRANCH   1   7
ATOM      3  C   UNL     1      10.279  13.223  20.934  0.00  0.00    +0.000 C 
ATOM      4  C   UNL     1      10.783  12.289  19.844  0.00  0.00    +0.000 C 
ATOM      5  C   UNL     1      12.303  12.219  19.791  0.00  0.00    +0.000 C 
ATOM      6  O   UNL     1      10.253  10.965  20.071  0.00  0.00    +0.000 OA
ATOM      7  C   UNL     1       9.465  10.668  18.961  0.00  0.00    +0.000 C 
ATOM      8  C   UNL     1       9.371  11.578  17.996  0.00  0.00    +0.000 C 
ATOM      9  C   UNL     1      10.205  12.658  18.500  0.00  0.00    +0.000 C 
ATOM     10  O   UNL     1      10.383  13.699  17.887  0.00  0.00    +0.000 OA
ENDBRANCH   1   7
BRANCH   2  11
ATOM     11  C   UNL     1       7.565   7.530  17.823  0.00  0.00    +0.000 A 
ATOM     12  C   UNL     1       7.927   6.468  18.668  0.00  0.00    +0.000 A 
ATOM     13  C   UNL     1       7.224   5.259  18.641  0.00  0.00    +0.000 A 
ATOM     14  C   UNL     1       6.146   5.113  17.776  0.00  0.00    +0.000 A 
ATOM     15  F   UNL     1       5.469   3.957  17.759  0.00  0.00    +0.000 F 
ATOM     16  C   UNL     1       5.770   6.160  16.945  0.00  0.00    +0.000 A 
ATOM     17  F   UNL     1       4.723   6.022  16.119  0.00  0.00    +0.000 F 
ATOM     18  C   UNL     1       6.467   7.365  16.966  0.00  0.00    +0.000 A 
ENDBRANCH   2  11
TORSDOF 2
ENDMDL
MODEL 6
REMARK VINA RESULT:      -7.3      6.949      8.409
REMARK  Name = 
REMARK  4 active torsions:
REMARK  status: ('A' for Active; 'I' for Inactive)
REMARK    1  A    between atoms: C_1  and  C_2
REMARK    2  A    between atoms: C_2  and  C_3
REMARK    3  A    between atoms: C_5  and  C_6
REMARK    4  A    between atoms: C_7  and  C_8
REMARK                            x       y       z     vdW  Elec       q    Type
REMARK                         _______ _______ _______ _____ _____    ______ ____
ROOT
ATOM      1  C   UNL     1       4.448   3.301  17.327  0.00  0.00    +0.000 C 
ATOM      2  C   UNL     1       4.894   4.418  16.728  0.00  0.00    +0.000 C 
ENDROOT
BRANCH   1   7
ATOM      3  C   UNL     1       1.983   5.149  20.702  0.00  0.00    +0.000 C 
ATOM      4  C   UNL     1       2.040   3.805  19.991  0.00  0.00    +0.000 C 
ATOM      5  C   UNL     1       0.682   3.123  19.919  0.00  0.00    +0.000 C 
ATOM      6  O   UNL     1       2.549   3.999  18.653  0.00  0.00    +0.000 OA
ATOM      7  C   UNL     1       3.738   3.276  18.583  0.00  0.00    +0.000 C 
ATOM      8  C   UNL     1       4.131   2.606  19.662  0.00  0.00    +0.000 C 
ATOM      9  C   UNL     1       3.074   2.902  20.616  0.00  0.00    +0.000 C 
ATOM     10  O   UNL     1       3.067   2.458  21.755  0.00  0.00    +0.000 OA
ENDBRANCH   1   7
BRANCH   2  11
ATOM     11  C   UNL     1       5.599   4.460  15.438  0.00  0.00    +0.000 A 
ATOM     12  C   UNL     1       6.835   5.108  15.274  0.00  0.00    +0.000 A 
ATOM     13  C   UNL     1       7.496   5.087  14.042  0.00  0.00    +0.000 A 
ATOM     14  C   UNL     1       6.930   4.405  12.972  0.00  0.00    +0.000 A 
ATOM     15  F   UNL     1       7.571   4.378  11.796  0.00  0.00    +0.000 F 
ATOM     16  C   UNL     1       5.716   3.748  13.126  0.00  0.00    +0.000 A 
ATOM     17  F   UNL     1       5.177   3.081  12.096  0.00  0.00    +0.000 F 
ATOM     18  C   UNL     1       5.051   3.768  14.348  0.00  0.00    +0.000 A 
ENDBRANCH   2  11
TORSDOF 2
ENDMDL
MODEL 7
REMARK VINA RESULT:      -7.3      4.121      7.424
REMARK  Name = 
REMARK  4 active torsions:
REMARK  status: ('A' for Active; 'I' for Inactive)
REMARK    1  A    between atoms: C_1  and  C_2
REMARK    2  A    between atoms: C_2  and  C_3
REMARK    3  A    between atoms: C_5  and  C_6
REMARK    4  A    between atoms: C_7  and  C_8
REMARK                            x       y       z     vdW  Elec       q    Type
REMARK                         _______ _______ _______ _____ _____    ______ ____
ROOT
ATOM      1  C   UNL     1       9.012   9.558  18.900  0.00  0.00    +0.000 C 
ATOM      2  C   UNL     1       8.262   9.050  17.907  0.00  0.00    +0.000 C 
ENDROOT
BRANCH   1   7
ATOM      3  C   UNL     1      11.019  13.192  16.990  0.00  0.00    +0.000 C 
ATOM      4  C   UNL     1       9.953  12.954  18.049  0.00  0.00    +0.000 C 
ATOM      5  C   UNL     1       8.906  14.058  18.083  0.00  0.00    +0.000 C 
ATOM      6  O   UNL     1       9.305  11.689  17.794  0.00  0.00    +0.000 OA
ATOM      7  C   UNL     1       9.566  10.890  18.905  0.00  0.00    +0.000 C 
ATOM      8  C   UNL     1      10.290  11.405  19.894  0.00  0.00    +0.000 C 
ATOM      9  C   UNL     1      10.574  12.746  19.409  0.00  0.00    +0.000 C 
ATOM     10  O   UNL     1      11.229  13.557  20.047  0.00  0.00    +0.000 OA
ENDBRANCH   1   7
BRANCH   2  11
ATOM     11  C   UNL     1       7.673   7.703  17.898  0.00  0.00    +0.000 A 
ATOM     12  C   UNL     1       8.132   6.672  18.734  0.00  0.00    +0.000 A 
ATOM     13  C   UNL     1       7.515   5.417  18.728  0.00  0.00    +0.000 A 
ATOM     14  C   UNL     1       6.427   5.192  17.894  0.00  0.00    +0.000 A 
ATOM     15  F   UNL     1       5.832   3.992  17.898  0.00  0.00    +0.000 F 
ATOM     16  C   UNL     1       5.955   6.207  17.073  0.00  0.00    +0.000 A 
ATOM     17  F   UNL     1       4.898   5.993  16.277  0.00  0.00    +0.000 F 
ATOM     18  C   UNL     1       6.566   7.459  17.071  0.00  0.00    +0.000 A 
ENDBRANCH   2  11
TORSDOF 2
ENDMDL
MODEL 8
REMARK VINA RESULT:      -7.1      6.738      8.191
REMARK  Name = 
REMARK  4 active torsions:
REMARK  status: ('A' for Active; 'I' for Inactive)
REMARK    1  A    between atoms: C_1  and  C_2
REMARK    2  A    between atoms: C_2  and  C_3
REMARK    3  A    between atoms: C_5  and  C_6
REMARK    4  A    between atoms: C_7  and  C_8
REMARK                            x       y       z     vdW  Elec       q    Type
REMARK                         _______ _______ _______ _____ _____    ______ ____
ROOT
ATOM      1  C   UNL     1       4.151   3.598  16.749  0.00  0.00    +0.000 C 
ATOM      2  C   UNL     1       5.391   4.011  16.438  0.00  0.00    +0.000 C 
ENDROOT
BRANCH   1   7
ATOM      3  C   UNL     1       2.142   5.288  20.489  0.00  0.00    +0.000 C 
ATOM      4  C   UNL     1       2.135   3.964  19.740  0.00  0.00    +0.000 C 
ATOM      5  C   UNL     1       0.800   3.241  19.843  0.00  0.00    +0.000 C 
ATOM      6  O   UNL     1       2.442   4.205  18.350  0.00  0.00    +0.000 OA
ATOM      7  C   UNL     1       3.628   3.522  18.091  0.00  0.00    +0.000 C 
ATOM      8  C   UNL     1       4.191   2.840  19.085  0.00  0.00    +0.000 C 
ATOM      9  C   UNL     1       3.273   3.080  20.188  0.00  0.00    +0.000 C 
ATOM     10  O   UNL     1       3.441   2.609  21.303  0.00  0.00    +0.000 OA
ENDBRANCH   1   7
BRANCH   2  11
ATOM     11  C   UNL     1       5.930   4.115  15.074  0.00  0.00    +0.000 A 
ATOM     12  C   UNL     1       5.298   3.528  13.965  0.00  0.00    +0.000 A 
ATOM     13  C   UNL     1       5.817   3.689  12.677  0.00  0.00    +0.000 A 
ATOM     14  C   UNL     1       6.965   4.450  12.490  0.00  0.00    +0.000 A 
ATOM     15  F   UNL     1       7.454   4.611  11.254  0.00  0.00    +0.000 F 
ATOM     16  C   UNL     1       7.591   5.047  13.577  0.00  0.00    +0.000 A 
ATOM     17  F   UNL     1       8.691   5.791  13.395  0.00  0.00    +0.000 F 
ATOM     18  C   UNL     1       7.081   4.889  14.863  0.00  0.00    +0.000 A 
ENDBRANCH   2  11
TORSDOF 2
ENDMDL
MODEL 9
REMARK VINA RESULT:      -7.1      4.419      7.662
REMARK  Name = 
REMARK  4 active torsions:
REMARK  status: ('A' for Active; 'I' for Inactive)
REMARK    1  A    between atoms: C_1  and  C_2
REMARK    2  A    between atoms: C_2  and  C_3
REMARK    3  A    between atoms: C_5  and  C_6
REMARK    4  A    between atoms: C_7  and  C_8
REMARK                            x       y       z     vdW  Elec       q    Type
REMARK                         _______ _______ _______ _____ _____    ______ ____
ROOT
ATOM      1  C   UNL     1       8.131   9.024  18.046  0.00  0.00    +0.000 C 
ATOM      2  C   UNL     1       8.210   7.737  18.424  0.00  0.00    +0.000 C 
ENDROOT
BRANCH   1   7
ATOM      3  C   UNL     1      11.700  11.876  17.925  0.00  0.00    +0.000 C 
ATOM      4  C   UNL     1      10.256  11.941  18.398  0.00  0.00    +0.000 C 
ATOM      5  C   UNL     1       9.656  13.332  18.256  0.00  0.00    +0.000 C 
ATOM      6  O   UNL     1       9.465  11.000  17.639  0.00  0.00    +0.000 OA
ATOM      7  C   UNL     1       8.971  10.079  18.560  0.00  0.00    +0.000 C 
ATOM      8  C   UNL     1       9.291  10.236  19.840  0.00  0.00    +0.000 C 
ATOM      9  C   UNL     1      10.123  11.429  19.812  0.00  0.00    +0.000 C 
ATOM     10  O   UNL     1      10.622  11.912  20.816  0.00  0.00    +0.000 OA
ENDBRANCH   1   7
BRANCH   2  11
ATOM     11  C   UNL     1       7.377   6.648  17.894  0.00  0.00    +0.000 A 
ATOM     12  C   UNL     1       7.201   6.433  16.517  0.00  0.00    +0.000 A 
ATOM     13  C   UNL     1       6.437   5.358  16.052  0.00  0.00    +0.000 A 
ATOM     14  C   UNL     1       5.857   4.484  16.963  0.00  0.00    +0.000 A 
ATOM     15  F   UNL     1       5.135   3.449  16.514  0.00  0.00    +0.000 F 
ATOM     16  C   UNL     1       6.035   4.677  18.327  0.00  0.00    +0.000 A 
ATOM     17  F   UNL     1       5.485   3.827  19.205  0.00  0.00    +0.000 F 
ATOM     18  C   UNL     1       6.792   5.748  18.797  0.00  0.00    +0.000 A 
ENDBRANCH   2  11
TORSDOF 2
ENDMDL
