MODEL 1
REMARK VINA RESULT:      -6.4      0.000      0.000
REMARK  Name = 
REMARK  8 active torsions:
REMARK  status: ('A' for Active; 'I' for Inactive)
REMARK    1  A    between atoms: C_1  and  C_2
REMARK    2  A    between atoms: C_2  and  C_3
REMARK    3  A    between atoms: C_3  and  C_4
REMARK    4  A    between atoms: C_4  and  C_5
REMARK    5  A    between atoms: C_6  and  C_7
REMARK    6  A    between atoms: C_8  and  O_9
REMARK    7  A    between atoms: O_9  and  C_10
REMARK    8  A    between atoms: C_15  and  C_16
REMARK                            x       y       z     vdW  Elec       q    Type
REMARK                         _______ _______ _______ _____ _____    ______ ____
ROOT
ATOM      1  C   UNL     1       4.005   3.913  18.832  0.00  0.00    +0.000 A 
ATOM      2  C   UNL     1       2.935   4.618  18.102  0.00  0.00    +0.000 A 
ATOM      3  C   UNL     1       1.717   4.063  17.989  0.00  0.00    +0.000 A 
ATOM      4  C   UNL     1       1.410   2.772  18.587  0.00  0.00    +0.000 A 
ATOM      5  O   UNL     1       0.294   2.280  18.446  0.00  0.00    +0.000 OA
ATOM      6  O   UNL     1       2.389   2.167  19.300  0.00  0.00    +0.000 OA
ATOM      7  C   UNL     1       3.679   2.735  19.415  0.00  0.00    +0.000 A 
ATOM      8  C   UNL     1       4.579   1.872  20.259  0.00  0.00    +0.000 C 
ENDROOT
BRANCH   1  10
ATOM      9  C   UNL     1       6.251   4.475  17.946  0.00  0.00    +0.000 C 
ATOM     10  C   UNL     1       5.371   4.436  18.962  0.00  0.00    +0.000 C 
BRANCH   9  11
ATOM     11  C   UNL     1       7.658   4.990  18.037  0.00  0.00    +0.000 C 
BRANCH  11  12
ATOM     12  C   UNL     1       7.727   6.409  18.614  0.00  0.00    +0.000 C 
BRANCH  12  14
ATOM     13  C   UNL     1       8.157   8.788  17.869  0.00  0.00    +0.000 C 
ATOM     14  C   UNL     1       7.515   7.456  17.515  0.00  0.00    +0.000 C 
ENDBRANCH  12  14
ENDBRANCH  11  12
ENDBRANCH   9  11
ENDBRANCH   1  10
BRANCH   2  15
ATOM     15  O   UNL     1       3.288   5.843  17.556  0.00  0.00    +0.000 OA
ATOM     16  C   UNL     1       2.767   7.013  18.195  0.00  0.00    +0.000 C 
ENDBRANCH   2  15
TORSDOF 5
ENDMDL
MODEL 2
REMARK VINA RESULT:      -6.3      2.379      3.133
REMARK  Name = 
REMARK  8 active torsions:
REMARK  status: ('A' for Active; 'I' for Inactive)
REMARK    1  A    between atoms: C_1  and  C_2
REMARK    2  A    between atoms: C_2  and  C_3
REMARK    3  A    between atoms: C_3  and  C_4
REMARK    4  A    between atoms: C_4  and  C_5
REMARK    5  A    between atoms: C_6  and  C_7
REMARK    6  A    between atoms: C_8  and  O_9
REMARK    7  A    between atoms: O_9  and  C_10
REMARK    8  A    between atoms: C_15  and  C_16
REMARK                            x       y       z     vdW  Elec       q    Type
REMARK                         _______ _______ _______ _____ _____    ______ ____
ROOT
ATOM      1  C   UNL     1       2.859   4.239  18.708  0.00  0.00    +0.000 A 
ATOM      2  C   UNL     1       2.272   5.106  19.746  0.00  0.00    +0.000 A 
ATOM      3  C   UNL     1       1.783   4.570  20.876  0.00  0.00    +0.000 A 
ATOM      4  C   UNL     1       1.828   3.135  21.120  0.00  0.00    +0.000 A 
ATOM      5  O   UNL     1       1.350   2.673  22.152  0.00  0.00    +0.000 OA
ATOM      6  O   UNL     1       2.421   2.363  20.180  0.00  0.00    +0.000 OA
ATOM      7  C   UNL     1       2.928   2.914  18.980  0.00  0.00    +0.000 A 
ATOM      8  C   UNL     1       3.538   1.849  18.108  0.00  0.00    +0.000 C 
ENDROOT
BRANCH   1  10
ATOM      9  C   UNL     1       4.571   5.348  17.300  0.00  0.00    +0.000 C 
ATOM     10  C   UNL     1       3.375   4.747  17.431  0.00  0.00    +0.000 C 
BRANCH   9  11
ATOM     11  C   UNL     1       5.133   5.891  16.018  0.00  0.00    +0.000 C 
BRANCH  11  12
ATOM     12  C   UNL     1       6.440   5.201  15.611  0.00  0.00    +0.000 C 
BRANCH  12  14
ATOM     13  C   UNL     1       5.948   3.852  13.528  0.00  0.00    +0.000 C 
ATOM     14  C   UNL     1       6.164   3.809  15.033  0.00  0.00    +0.000 C 
ENDBRANCH  12  14
ENDBRANCH  11  12
ENDBRANCH   9  11
ENDBRANCH   1  10
BRANCH   2  15
ATOM     15  O   UNL     1       2.259   6.463  19.457  0.00  0.00    +0.000 OA
ATOM     16  C   UNL     1       1.803   7.342  20.489  0.00  0.00    +0.000 C 
ENDBRANCH   2  15
TORSDOF 5
ENDMDL
MODEL 3
REMARK VINA RESULT:      -6.1      2.887      5.888
REMARK  Name = 
REMARK  8 active torsions:
REMARK  status: ('A' for Active; 'I' for Inactive)
REMARK    1  A    between atoms: C_1  and  C_2
REMARK    2  A    between atoms: C_2  and  C_3
REMARK    3  A    between atoms: C_3  and  C_4
REMARK    4  A    between atoms: C_4  and  C_5
REMARK    5  A    between atoms: C_6  and  C_7
REMARK    6  A    between atoms: C_8  and  O_9
REMARK    7  A    between atoms: O_9  and  C_10
REMARK    8  A    between atoms: C_15  and  C_16
REMARK                            x       y       z     vdW  Elec       q    Type
REMARK                         _______ _______ _______ _____ _____    ______ ____
ROOT
ATOM      1  C   UNL     1       5.236   4.305  17.318  0.00  0.00    +0.000 A 
ATOM      2  C   UNL     1       6.091   4.505  16.133  0.00  0.00    +0.000 A 
ATOM      3  C   UNL     1       6.873   5.593  16.042  0.00  0.00    +0.000 A 
ATOM      4  C   UNL     1       6.915   6.592  17.101  0.00  0.00    +0.000 A 
ATOM      5  O   UNL     1       7.622   7.588  16.977  0.00  0.00    +0.000 OA
ATOM      6  O   UNL     1       6.166   6.361  18.204  0.00  0.00    +0.000 OA
ATOM      7  C   UNL     1       5.329   5.226  18.306  0.00  0.00    +0.000 A 
ATOM      8  C   UNL     1       4.608   5.200  19.628  0.00  0.00    +0.000 C 
ENDROOT
BRANCH   1  10
ATOM      9  C   UNL     1       2.992   3.288  17.588  0.00  0.00    +0.000 C 
ATOM     10  C   UNL     1       4.325   3.163  17.471  0.00  0.00    +0.000 C 
BRANCH   9  11
ATOM     11  C   UNL     1       2.026   2.151  17.757  0.00  0.00    +0.000 C 
BRANCH  11  12
ATOM     12  C   UNL     1       0.947   2.449  18.805  0.00  0.00    +0.000 C 
BRANCH  12  14
ATOM     13  C   UNL     1       1.516   3.425  21.069  0.00  0.00    +0.000 C 
ATOM     14  C   UNL     1       1.289   3.718  19.593  0.00  0.00    +0.000 C 
ENDBRANCH  12  14
ENDBRANCH  11  12
ENDBRANCH   9  11
ENDBRANCH   1  10
BRANCH   2  15
ATOM     15  O   UNL     1       6.008   3.520  15.160  0.00  0.00    +0.000 OA
ATOM     16  C   UNL     1       6.271   3.917  13.811  0.00  0.00    +0.000 C 
ENDBRANCH   2  15
TORSDOF 5
ENDMDL
MODEL 4
REMARK VINA RESULT:      -6.1      2.391      5.731
REMARK  Name = 
REMARK  8 active torsions:
REMARK  status: ('A' for Active; 'I' for Inactive)
REMARK    1  A    between atoms: C_1  and  C_2
REMARK    2  A    between atoms: C_2  and  C_3
REMARK    3  A    between atoms: C_3  and  C_4
REMARK    4  A    between atoms: C_4  and  C_5
REMARK    5  A    between atoms: C_6  and  C_7
REMARK    6  A    between atoms: C_8  and  O_9
REMARK    7  A    between atoms: O_9  and  C_10
REMARK    8  A    between atoms: C_15  and  C_16
REMARK                            x       y       z     vdW  Elec       q    Type
REMARK                         _______ _______ _______ _____ _____    ______ ____
ROOT
ATOM      1  C   UNL     1       4.735   5.021  16.938  0.00  0.00    +0.000 A 
ATOM      2  C   UNL     1       4.700   6.224  17.791  0.00  0.00    +0.000 A 
ATOM      3  C   UNL     1       5.718   7.100  17.764  0.00  0.00    +0.000 A 
ATOM      4  C   UNL     1       6.870   6.903  16.894  0.00  0.00    +0.000 A 
ATOM      5  O   UNL     1       7.795   7.709  16.910  0.00  0.00    +0.000 OA
ATOM      6  O   UNL     1       6.856   5.822  16.079  0.00  0.00    +0.000 OA
ATOM      7  C   UNL     1       5.796   4.887  16.108  0.00  0.00    +0.000 A 
ATOM      8  C   UNL     1       6.018   3.784  15.106  0.00  0.00    +0.000 C 
ENDROOT
BRANCH   1  10
ATOM      9  C   UNL     1       3.563   3.059  17.897  0.00  0.00    +0.000 C 
ATOM     10  C   UNL     1       3.681   4.000  16.944  0.00  0.00    +0.000 C 
BRANCH   9  11
ATOM     11  C   UNL     1       2.509   1.990  17.936  0.00  0.00    +0.000 C 
BRANCH  11  12
ATOM     12  C   UNL     1       1.201   2.479  18.571  0.00  0.00    +0.000 C 
BRANCH  12  14
ATOM     13  C   UNL     1       1.086   4.196  20.426  0.00  0.00    +0.000 C 
ATOM     14  C   UNL     1       1.391   2.750  20.067  0.00  0.00    +0.000 C 
ENDBRANCH  12  14
ENDBRANCH  11  12
ENDBRANCH   9  11
ENDBRANCH   1  10
BRANCH   2  15
ATOM     15  O   UNL     1       3.579   6.357  18.596  0.00  0.00    +0.000 OA
ATOM     16  C   UNL     1       2.644   7.382  18.244  0.00  0.00    +0.000 C 
ENDBRANCH   2  15
TORSDOF 5
ENDMDL
MODEL 5
REMARK VINA RESULT:      -6.0      4.921      6.728
REMARK  Name = 
REMARK  8 active torsions:
REMARK  status: ('A' for Active; 'I' for Inactive)
REMARK    1  A    between atoms: C_1  and  C_2
REMARK    2  A    between atoms: C_2  and  C_3
REMARK    3  A    between atoms: C_3  and  C_4
REMARK    4  A    between atoms: C_4  and  C_5
REMARK    5  A    between atoms: C_6  and  C_7
REMARK    6  A    between atoms: C_8  and  O_9
REMARK    7  A    between atoms: O_9  and  C_10
REMARK    8  A    between atoms: C_15  and  C_16
REMARK                            x       y       z     vdW  Elec       q    Type
REMARK                         _______ _______ _______ _____ _____    ______ ____
ROOT
ATOM      1  C   UNL     1       5.789   4.281  14.936  0.00  0.00    +0.000 A 
ATOM      2  C   UNL     1       5.158   4.021  16.243  0.00  0.00    +0.000 A 
ATOM      3  C   UNL     1       5.839   4.249  17.379  0.00  0.00    +0.000 A 
ATOM      4  C   UNL     1       7.199   4.769  17.360  0.00  0.00    +0.000 A 
ATOM      5  O   UNL     1       7.803   4.944  18.414  0.00  0.00    +0.000 OA
ATOM      6  O   UNL     1       7.740   5.054  16.152  0.00  0.00    +0.000 OA
ATOM      7  C   UNL     1       7.038   4.806  14.950  0.00  0.00    +0.000 A 
ATOM      8  C   UNL     1       7.853   5.212  13.751  0.00  0.00    +0.000 C 
ENDROOT
BRANCH   1  10
ATOM      9  C   UNL     1       5.627   3.202  12.711  0.00  0.00    +0.000 C 
ATOM     10  C   UNL     1       5.124   4.018  13.654  0.00  0.00    +0.000 C 
BRANCH   9  11
ATOM     11  C   UNL     1       4.988   2.913  11.384  0.00  0.00    +0.000 C 
BRANCH  11  12
ATOM     12  C   UNL     1       3.596   3.544  11.254  0.00  0.00    +0.000 C 
BRANCH  12  14
ATOM     13  C   UNL     1       2.553   4.692   9.255  0.00  0.00    +0.000 C 
ATOM     14  C   UNL     1       3.052   3.376   9.831  0.00  0.00    +0.000 C 
ENDBRANCH  12  14
ENDBRANCH  11  12
ENDBRANCH   9  11
ENDBRANCH   1  10
BRANCH   2  15
ATOM     15  O   UNL     1       3.863   3.528  16.196  0.00  0.00    +0.000 OA
ATOM     16  C   UNL     1       3.073   3.665  17.381  0.00  0.00    +0.000 C 
ENDBRANCH   2  15
TORSDOF 5
ENDMDL
MODEL 6
REMARK VINA RESULT:      -6.0      3.618      5.057
REMARK  Name = 
REMARK  8 active torsions:
REMARK  status: ('A' for Active; 'I' for Inactive)
REMARK    1  A    between atoms: C_1  and  C_2
REMARK    2  A    between atoms: C_2  and  C_3
REMARK    3  A    between atoms: C_3  and  C_4
REMARK    4  A    between atoms: C_4  and  C_5
REMARK    5  A    between atoms: C_6  and  C_7
REMARK    6  A    between atoms: C_8  and  O_9
REMARK    7  A    between atoms: O_9  and  C_10
REMARK    8  A    between atoms: C_15  and  C_16
REMARK                            x       y       z     vdW  Elec       q    Type
REMARK                         _______ _______ _______ _____ _____    ______ ____
ROOT
ATOM      1  C   UNL     1       4.544   5.126  16.684  0.00  0.00    +0.000 A 
ATOM      2  C   UNL     1       4.899   6.519  17.014  0.00  0.00    +0.000 A 
ATOM      3  C   UNL     1       4.094   7.253  17.799  0.00  0.00    +0.000 A 
ATOM      4  C   UNL     1       2.867   6.702  18.358  0.00  0.00    +0.000 A 
ATOM      5  O   UNL     1       2.140   7.406  19.053  0.00  0.00    +0.000 OA
ATOM      6  O   UNL     1       2.588   5.405  18.090  0.00  0.00    +0.000 OA
ATOM      7  C   UNL     1       3.421   4.627  17.254  0.00  0.00    +0.000 A 
ATOM      8  C   UNL     1       2.895   3.222  17.118  0.00  0.00    +0.000 C 
ENDROOT
BRANCH   1  10
ATOM      9  C   UNL     1       5.428   4.451  14.470  0.00  0.00    +0.000 C 
ATOM     10  C   UNL     1       5.352   4.276  15.800  0.00  0.00    +0.000 C 
BRANCH   9  11
ATOM     11  C   UNL     1       6.231   3.600  13.528  0.00  0.00    +0.000 C 
BRANCH  11  12
ATOM     12  C   UNL     1       5.604   3.521  12.130  0.00  0.00    +0.000 C 
BRANCH  12  14
ATOM     13  C   UNL     1       7.110   1.760  11.114  0.00  0.00    +0.000 C 
ATOM     14  C   UNL     1       5.699   2.098  11.570  0.00  0.00    +0.000 C 
ENDBRANCH  12  14
ENDBRANCH  11  12
ENDBRANCH   9  11
ENDBRANCH   1  10
BRANCH   2  15
ATOM     15  O   UNL     1       6.079   6.986  16.453  0.00  0.00    +0.000 OA
ATOM     16  C   UNL     1       7.162   7.254  17.349  0.00  0.00    +0.000 C 
ENDBRANCH   2  15
TORSDOF 5
ENDMDL
MODEL 7
REMARK VINA RESULT:      -6.0      1.942      2.338
REMARK  Name = 
REMARK  8 active torsions:
REMARK  status: ('A' for Active; 'I' for Inactive)
REMARK    1  A    between atoms: C_1  and  C_2
REMARK    2  A    between atoms: C_2  and  C_3
REMARK    3  A    between atoms: C_3  and  C_4
REMARK    4  A    between atoms: C_4  and  C_5
REMARK    5  A    between atoms: C_6  and  C_7
REMARK    6  A    between atoms: C_8  and  O_9
REMARK    7  A    between atoms: O_9  and  C_10
REMARK    8  A    between atoms: C_15  and  C_16
REMARK                            x       y       z     vdW  Elec       q    Type
REMARK                         _______ _______ _______ _____ _____    ______ ____
ROOT
ATOM      1  C   UNL     1       2.860   3.767  18.594  0.00  0.00    +0.000 A 
ATOM      2  C   UNL     1       2.253   4.790  19.466  0.00  0.00    +0.000 A 
ATOM      3  C   UNL     1       1.766   4.448  20.670  0.00  0.00    +0.000 A 
ATOM      4  C   UNL     1       1.832   3.076  21.156  0.00  0.00    +0.000 A 
ATOM      5  O   UNL     1       1.355   2.790  22.251  0.00  0.00    +0.000 OA
ATOM      6  O   UNL     1       2.443   2.164  20.364  0.00  0.00    +0.000 OA
ATOM      7  C   UNL     1       2.948   2.510  19.090  0.00  0.00    +0.000 A 
ATOM      8  C   UNL     1       3.581   1.322  18.415  0.00  0.00    +0.000 C 
ENDROOT
BRANCH   1  10
ATOM      9  C   UNL     1       4.666   4.339  16.996  0.00  0.00    +0.000 C 
ATOM     10  C   UNL     1       3.376   4.058  17.251  0.00  0.00    +0.000 C 
BRANCH   9  11
ATOM     11  C   UNL     1       5.234   4.653  15.642  0.00  0.00    +0.000 C 
BRANCH  11  12
ATOM     12  C   UNL     1       6.084   5.929  15.644  0.00  0.00    +0.000 C 
BRANCH  12  14
ATOM     13  C   UNL     1       7.361   7.113  17.479  0.00  0.00    +0.000 C 
ATOM     14  C   UNL     1       5.998   6.639  16.999  0.00  0.00    +0.000 C 
ENDBRANCH  12  14
ENDBRANCH  11  12
ENDBRANCH   9  11
ENDBRANCH   1  10
BRANCH   2  15
ATOM     15  O   UNL     1       2.220   6.077  18.949  0.00  0.00    +0.000 OA
ATOM     16  C   UNL     1       2.202   7.154  19.890  0.00  0.00    +0.000 C 
ENDBRANCH   2  15
TORSDOF 5
ENDMDL
MODEL 8
REMARK VINA RESULT:      -6.0      2.738      5.732
REMARK  Name = 
REMARK  8 active torsions:
REMARK  status: ('A' for Active; 'I' for Inactive)
REMARK    1  A    between atoms: C_1  and  C_2
REMARK    2  A    between atoms: C_2  and  C_3
REMARK    3  A    between atoms: C_3  and  C_4
REMARK    4  A    between atoms: C_4  and  C_5
REMARK    5  A    between atoms: C_6  and  C_7
REMARK    6  A    between atoms: C_8  and  O_9
REMARK    7  A    between atoms: O_9  and  C_10
REMARK    8  A    between atoms: C_15  and  C_16
REMARK                            x       y       z     vdW  Elec       q    Type
REMARK                         _______ _______ _______ _____ _____    ______ ____
ROOT
ATOM      1  C   UNL     1       5.107   4.329  18.289  0.00  0.00    +0.000 A 
ATOM      2  C   UNL     1       6.485   4.839  18.423  0.00  0.00    +0.000 A 
ATOM      3  C   UNL     1       7.270   4.954  17.340  0.00  0.00    +0.000 A 
ATOM      4  C   UNL     1       6.791   4.601  16.010  0.00  0.00    +0.000 A 
ATOM      5  O   UNL     1       7.541   4.695  15.043  0.00  0.00    +0.000 OA
ATOM      6  O   UNL     1       5.506   4.189  15.901  0.00  0.00    +0.000 OA
ATOM      7  C   UNL     1       4.675   4.051  17.036  0.00  0.00    +0.000 A 
ATOM      8  C   UNL     1       3.297   3.583  16.646  0.00  0.00    +0.000 C 
ENDROOT
BRANCH   1  10
ATOM      9  C   UNL     1       3.314   5.058  19.836  0.00  0.00    +0.000 C 
ATOM     10  C   UNL     1       4.205   4.136  19.430  0.00  0.00    +0.000 C 
BRANCH   9  11
ATOM     11  C   UNL     1       2.381   4.907  21.003  0.00  0.00    +0.000 C 
BRANCH  11  12
ATOM     12  C   UNL     1       2.162   3.440  21.393  0.00  0.00    +0.000 C 
BRANCH  12  14
ATOM     13  C   UNL     1       0.949   2.534  19.365  0.00  0.00    +0.000 C 
ATOM     14  C   UNL     1       0.834   2.920  20.832  0.00  0.00    +0.000 C 
ENDBRANCH  12  14
ENDBRANCH  11  12
ENDBRANCH   9  11
ENDBRANCH   1  10
BRANCH   2  15
ATOM     15  O   UNL     1       6.882   5.159  19.712  0.00  0.00    +0.000 OA
ATOM     16  C   UNL     1       8.140   5.827  19.857  0.00  0.00    +0.000 C 
ENDBRANCH   2  15
TORSDOF 5
ENDMDL
MODEL 9
REMARK VINA RESULT:      -5.9      2.988      4.486
REMARK  Name = 
REMARK  8 active torsions:
REMARK  status: ('A' for Active; 'I' for Inactive)
REMARK    1  A    between atoms: C_1  and  C_2
REMARK    2  A    between atoms: C_2  and  C_3
REMARK    3  A    between atoms: C_3  and  C_4
REMARK    4  A    between atoms: C_4  and  C_5
REMARK    5  A    between atoms: C_6  and  C_7
REMARK    6  A    between atoms: C_8  and  O_9
REMARK    7  A    between atoms: O_9  and  C_10
REMARK    8  A    between atoms: C_15  and  C_16
REMARK                            x       y       z     vdW  Elec       q    Type
REMARK                         _______ _______ _______ _____ _____    ______ ____
ROOT
ATOM      1  C   UNL     1       3.618   4.766  17.497  0.00  0.00    +0.000 A 
ATOM      2  C   UNL     1       2.927   3.687  18.227  0.00  0.00    +0.000 A 
ATOM      3  C   UNL     1       2.259   3.960  19.360  0.00  0.00    +0.000 A 
ATOM      4  C   UNL     1       2.182   5.314  19.892  0.00  0.00    +0.000 A 
ATOM      5  O   UNL     1       1.584   5.527  20.942  0.00  0.00    +0.000 OA
ATOM      6  O   UNL     1       2.776   6.298  19.176  0.00  0.00    +0.000 OA
ATOM      7  C   UNL     1       3.493   6.021  17.990  0.00  0.00    +0.000 A 
ATOM      8  C   UNL     1       4.051   7.282  17.385  0.00  0.00    +0.000 C 
ENDROOT
BRANCH   1  10
ATOM      9  C   UNL     1       5.634   4.000  16.274  0.00  0.00    +0.000 C 
ATOM     10  C   UNL     1       4.402   4.538  16.276  0.00  0.00    +0.000 C 
BRANCH   9  11
ATOM     11  C   UNL     1       6.474   3.760  15.053  0.00  0.00    +0.000 C 
BRANCH  11  12
ATOM     12  C   UNL     1       5.834   4.329  13.781  0.00  0.00    +0.000 C 
BRANCH  12  14
ATOM     13  C   UNL     1       4.818   3.242  11.735  0.00  0.00    +0.000 C 
ATOM     14  C   UNL     1       6.067   3.394  12.589  0.00  0.00    +0.000 C 
ENDBRANCH  12  14
ENDBRANCH  11  12
ENDBRANCH   9  11
ENDBRANCH   1  10
BRANCH   2  15
ATOM     15  O   UNL     1       3.036   2.421  17.671  0.00  0.00    +0.000 OA
ATOM     16  C   UNL     1       3.558   1.387  18.510  0.00  0.00    +0.000 C 
ENDBRANCH   2  15
TORSDOF 5
ENDMDL
