MODEL 1
REMARK VINA RESULT:      -8.1      0.000      0.000
REMARK  Name = 
REMARK  6 active torsions:
REMARK  status: ('A' for Active; 'I' for Inactive)
REMARK    1  A    between atoms: C_1  and  O_2
REMARK    2  A    between atoms: O_2  and  C_3
REMARK    3  A    between atoms: C_8  and  S_9
REMARK    4  A    between atoms: S_9  and  C_10
REMARK    5  A    between atoms: C_13  and  C_14
REMARK    6  A    between atoms: C_15  and  C_16
REMARK                            x       y       z     vdW  Elec       q    Type
REMARK                         _______ _______ _______ _____ _____    ______ ____
ROOT
ATOM      1  C   UNL     1       3.053   4.587  18.921  0.00  0.00    +0.000 A 
ATOM      2  C   UNL     1       3.184   5.963  18.688  0.00  0.00    +0.000 A 
ATOM      3  C   UNL     1       2.541   6.900  19.508  0.00  0.00    +0.000 A 
ATOM      4  C   UNL     1       1.733   6.485  20.574  0.00  0.00    +0.000 A 
ATOM      5  C   UNL     1       1.660   5.116  20.854  0.00  0.00    +0.000 A 
ATOM      6  C   UNL     1       2.300   4.174  20.031  0.00  0.00    +0.000 A 
ATOM      7 CL   UNL     1       2.047   2.503  20.410  0.00  0.00    +0.000 Cl
ENDROOT
BRANCH   4   8
ATOM      8  C   UNL     1       0.970   7.504  21.320  0.00  0.00    +0.000 C 
ATOM      9  C   UNL     1       1.189   8.825  21.220  0.00  0.00    +0.000 C 
BRANCH   9  10
ATOM     10  C   UNL     1       0.487   9.771  22.118  0.00  0.00    +0.000 C 
ATOM     11  O   UNL     1       0.619   9.676  23.336  0.00  0.00    +0.000 OA
ATOM     12  N   UNL     1      -0.227  10.774  21.501  0.00  0.00    +0.000 N 
ATOM     13  C   UNL     1      -0.599  10.839  20.083  0.00  0.00    +0.000 C 
ATOM     14  C   UNL     1      -0.126  12.166  19.482  0.00  0.00    +0.000 C 
ATOM     15  O   UNL     1      -0.630  13.283  20.233  0.00  0.00    +0.000 OA
ATOM     16  C   UNL     1      -0.205  13.217  21.608  0.00  0.00    +0.000 C 
ATOM     17  C   UNL     1      -0.695  11.925  22.275  0.00  0.00    +0.000 C 
ENDBRANCH   9  10
ENDBRANCH   4   8
BRANCH   1  18
ATOM     18  S   UNL     1       3.575   3.478  17.635  0.00  0.00    +0.000 S 
BRANCH  18  24
ATOM     19  C   UNL     1       6.304   4.429  17.424  0.00  0.00    +0.000 A 
ATOM     20  C   UNL     1       7.331   4.914  16.589  0.00  0.00    +0.000 A 
ATOM     21  C   UNL     1       7.158   5.025  15.209  0.00  0.00    +0.000 A 
ATOM     22  C   UNL     1       5.953   4.659  14.636  0.00  0.00    +0.000 A 
ATOM     23  C   UNL     1       4.922   4.197  15.452  0.00  0.00    +0.000 A 
ATOM     24  C   UNL     1       5.065   4.081  16.853  0.00  0.00    +0.000 A 
BRANCH  19  26
ATOM     25  C   UNL     1       6.886   5.493  19.468  0.00  0.00    +0.000 C 
ATOM     26  O   UNL     1       6.462   4.316  18.783  0.00  0.00    +0.000 OA
ENDBRANCH  19  26
ENDBRANCH  18  24
ENDBRANCH   1  18
TORSDOF 5
ENDMDL
MODEL 2
REMARK VINA RESULT:      -7.9      1.575      2.330
REMARK  Name = 
REMARK  6 active torsions:
REMARK  status: ('A' for Active; 'I' for Inactive)
REMARK    1  A    between atoms: C_1  and  O_2
REMARK    2  A    between atoms: O_2  and  C_3
REMARK    3  A    between atoms: C_8  and  S_9
REMARK    4  A    between atoms: S_9  and  C_10
REMARK    5  A    between atoms: C_13  and  C_14
REMARK    6  A    between atoms: C_15  and  C_16
REMARK                            x       y       z     vdW  Elec       q    Type
REMARK                         _______ _______ _______ _____ _____    ______ ____
ROOT
ATOM      1  C   UNL     1       3.250   5.967  18.777  0.00  0.00    +0.000 A 
ATOM      2  C   UNL     1       3.433   6.982  17.828  0.00  0.00    +0.000 A 
ATOM      3  C   UNL     1       2.766   8.209  17.943  0.00  0.00    +0.000 A 
ATOM      4  C   UNL     1       1.881   8.447  19.001  0.00  0.00    +0.000 A 
ATOM      5  C   UNL     1       1.752   7.464  19.988  0.00  0.00    +0.000 A 
ATOM      6  C   UNL     1       2.416   6.232  19.874  0.00  0.00    +0.000 A 
ATOM      7 CL   UNL     1       2.092   5.051  21.100  0.00  0.00    +0.000 Cl
ENDROOT
BRANCH   4   8
ATOM      8  C   UNL     1       1.100   9.700  19.000  0.00  0.00    +0.000 C 
ATOM      9  C   UNL     1       0.037   9.920  19.789  0.00  0.00    +0.000 C 
BRANCH   9  10
ATOM     10  C   UNL     1      -0.785  11.140  19.616  0.00  0.00    +0.000 C 
ATOM     11  O   UNL     1      -1.193  11.453  18.501  0.00  0.00    +0.000 OA
ATOM     12  N   UNL     1      -1.110  11.819  20.770  0.00  0.00    +0.000 N 
ATOM     13  C   UNL     1      -0.506  11.634  22.094  0.00  0.00    +0.000 C 
ATOM     14  C   UNL     1      -1.599  11.359  23.131  0.00  0.00    +0.000 C 
ATOM     15  O   UNL     1      -2.594  12.396  23.122  0.00  0.00    +0.000 OA
ATOM     16  C   UNL     1      -3.203  12.517  21.822  0.00  0.00    +0.000 C 
ATOM     17  C   UNL     1      -2.156  12.842  20.749  0.00  0.00    +0.000 C 
ENDBRANCH   9  10
ENDBRANCH   4   8
BRANCH   1  18
ATOM     18  S   UNL     1       3.821   4.336  18.363  0.00  0.00    +0.000 S 
BRANCH  18  24
ATOM     19  C   UNL     1       6.557   4.568  17.438  0.00  0.00    +0.000 A 
ATOM     20  C   UNL     1       7.437   4.641  16.339  0.00  0.00    +0.000 A 
ATOM     21  C   UNL     1       6.974   4.538  15.026  0.00  0.00    +0.000 A 
ATOM     22  C   UNL     1       5.622   4.367  14.786  0.00  0.00    +0.000 A 
ATOM     23  C   UNL     1       4.739   4.314  15.863  0.00  0.00    +0.000 A 
ATOM     24  C   UNL     1       5.177   4.422  17.202  0.00  0.00    +0.000 A 
BRANCH  19  26
ATOM     25  C   UNL     1       7.698   5.865  19.070  0.00  0.00    +0.000 C 
ATOM     26  O   UNL     1       7.000   4.668  18.733  0.00  0.00    +0.000 OA
ENDBRANCH  19  26
ENDBRANCH  18  24
ENDBRANCH   1  18
TORSDOF 5
ENDMDL
MODEL 3
REMARK VINA RESULT:      -7.8      5.647      7.366
REMARK  Name = 
REMARK  6 active torsions:
REMARK  status: ('A' for Active; 'I' for Inactive)
REMARK    1  A    between atoms: C_1  and  O_2
REMARK    2  A    between atoms: O_2  and  C_3
REMARK    3  A    between atoms: C_8  and  S_9
REMARK    4  A    between atoms: S_9  and  C_10
REMARK    5  A    between atoms: C_13  and  C_14
REMARK    6  A    between atoms: C_15  and  C_16
REMARK                            x       y       z     vdW  Elec       q    Type
REMARK                         _______ _______ _______ _____ _____    ______ ____
ROOT
ATOM      1  C   UNL     1       6.045   5.450  17.636  0.00  0.00    +0.000 A 
ATOM      2  C   UNL     1       7.000   5.350  18.657  0.00  0.00    +0.000 A 
ATOM      3  C   UNL     1       7.873   6.411  18.938  0.00  0.00    +0.000 A 
ATOM      4  C   UNL     1       7.826   7.594  18.191  0.00  0.00    +0.000 A 
ATOM      5  C   UNL     1       6.826   7.724  17.221  0.00  0.00    +0.000 A 
ATOM      6  C   UNL     1       5.953   6.662  16.934  0.00  0.00    +0.000 A 
ATOM      7 CL   UNL     1       4.829   6.900  15.638  0.00  0.00    +0.000 Cl
ENDROOT
BRANCH   4   8
ATOM      8  C   UNL     1       8.855   8.624  18.434  0.00  0.00    +0.000 C 
ATOM      9  C   UNL     1       8.605   9.943  18.450  0.00  0.00    +0.000 C 
BRANCH   9  10
ATOM     10  C   UNL     1       9.719  10.916  18.545  0.00  0.00    +0.000 C 
ATOM     11  O   UNL     1      10.352  11.225  17.538  0.00  0.00    +0.000 OA
ATOM     12  N   UNL     1       9.923  11.482  19.784  0.00  0.00    +0.000 N 
ATOM     13  C   UNL     1       9.358  11.025  21.058  0.00  0.00    +0.000 C 
ATOM     14  C   UNL     1       8.632  12.183  21.750  0.00  0.00    +0.000 C 
ATOM     15  O   UNL     1       9.501  13.318  21.909  0.00  0.00    +0.000 OA
ATOM     16  C   UNL     1       9.997  13.772  20.635  0.00  0.00    +0.000 C 
ATOM     17  C   UNL     1      10.777  12.662  19.918  0.00  0.00    +0.000 C 
ENDBRANCH   9  10
ENDBRANCH   4   8
BRANCH   1  18
ATOM     18  S   UNL     1       5.251   3.954  17.100  0.00  0.00    +0.000 S 
BRANCH  18  24
ATOM     19  C   UNL     1       3.719   3.107  19.409  0.00  0.00    +0.000 A 
ATOM     20  C   UNL     1       2.446   2.898  19.978  0.00  0.00    +0.000 A 
ATOM     21  C   UNL     1       1.277   3.216  19.286  0.00  0.00    +0.000 A 
ATOM     22  C   UNL     1       1.356   3.743  18.009  0.00  0.00    +0.000 A 
ATOM     23  C   UNL     1       2.608   3.935  17.426  0.00  0.00    +0.000 A 
ATOM     24  C   UNL     1       3.809   3.616  18.099  0.00  0.00    +0.000 A 
BRANCH  19  26
ATOM     25  C   UNL     1       4.967   1.475  20.604  0.00  0.00    +0.000 C 
ATOM     26  O   UNL     1       4.876   2.798  20.080  0.00  0.00    +0.000 OA
ENDBRANCH  19  26
ENDBRANCH  18  24
ENDBRANCH   1  18
TORSDOF 5
ENDMDL
MODEL 4
REMARK VINA RESULT:      -7.8      5.124      7.374
REMARK  Name = 
REMARK  6 active torsions:
REMARK  status: ('A' for Active; 'I' for Inactive)
REMARK    1  A    between atoms: C_1  and  O_2
REMARK    2  A    between atoms: O_2  and  C_3
REMARK    3  A    between atoms: C_8  and  S_9
REMARK    4  A    between atoms: S_9  and  C_10
REMARK    5  A    between atoms: C_13  and  C_14
REMARK    6  A    between atoms: C_15  and  C_16
REMARK                            x       y       z     vdW  Elec       q    Type
REMARK                         _______ _______ _______ _____ _____    ______ ____
ROOT
ATOM      1  C   UNL     1       5.983   5.449  17.442  0.00  0.00    +0.000 A 
ATOM      2  C   UNL     1       6.910   5.295  18.482  0.00  0.00    +0.000 A 
ATOM      3  C   UNL     1       7.783   6.335  18.833  0.00  0.00    +0.000 A 
ATOM      4  C   UNL     1       7.764   7.551  18.139  0.00  0.00    +0.000 A 
ATOM      5  C   UNL     1       6.791   7.733  17.150  0.00  0.00    +0.000 A 
ATOM      6  C   UNL     1       5.919   6.691  16.793  0.00  0.00    +0.000 A 
ATOM      7 CL   UNL     1       4.831   6.997  15.479  0.00  0.00    +0.000 Cl
ENDROOT
BRANCH   4   8
ATOM      8  C   UNL     1       8.794   8.560  18.456  0.00  0.00    +0.000 C 
ATOM      9  C   UNL     1       8.576   9.884  18.431  0.00  0.00    +0.000 C 
BRANCH   9  10
ATOM     10  C   UNL     1       9.702  10.832  18.608  0.00  0.00    +0.000 C 
ATOM     11  O   UNL     1      10.380  11.169  17.641  0.00  0.00    +0.000 OA
ATOM     12  N   UNL     1       9.865  11.345  19.876  0.00  0.00    +0.000 N 
ATOM     13  C   UNL     1       9.242  10.850  21.108  0.00  0.00    +0.000 C 
ATOM     14  C   UNL     1       8.509  11.993  21.816  0.00  0.00    +0.000 C 
ATOM     15  O   UNL     1       9.389  13.105  22.054  0.00  0.00    +0.000 OA
ATOM     16  C   UNL     1       9.944  13.599  20.820  0.00  0.00    +0.000 C 
ATOM     17  C   UNL     1      10.733  12.504  20.091  0.00  0.00    +0.000 C 
ENDBRANCH   9  10
ENDBRANCH   4   8
BRANCH   1  18
ATOM     18  S   UNL     1       5.193   3.985  16.818  0.00  0.00    +0.000 S 
BRANCH  18  24
ATOM     19  C   UNL     1       2.653   4.530  18.100  0.00  0.00    +0.000 A 
ATOM     20  C   UNL     1       1.565   4.025  18.842  0.00  0.00    +0.000 A 
ATOM     21  C   UNL     1       1.474   2.674  19.176  0.00  0.00    +0.000 A 
ATOM     22  C   UNL     1       2.471   1.800  18.781  0.00  0.00    +0.000 A 
ATOM     23  C   UNL     1       3.563   2.288  18.065  0.00  0.00    +0.000 A 
ATOM     24  C   UNL     1       3.686   3.653  17.718  0.00  0.00    +0.000 A 
BRANCH  19  26
ATOM     25  C   UNL     1       2.745   6.783  18.849  0.00  0.00    +0.000 C 
ATOM     26  O   UNL     1       2.753   5.857  17.765  0.00  0.00    +0.000 OA
ENDBRANCH  19  26
ENDBRANCH  18  24
ENDBRANCH   1  18
TORSDOF 5
ENDMDL
MODEL 5
REMARK VINA RESULT:      -7.7      1.581      2.498
REMARK  Name = 
REMARK  6 active torsions:
REMARK  status: ('A' for Active; 'I' for Inactive)
REMARK    1  A    between atoms: C_1  and  O_2
REMARK    2  A    between atoms: O_2  and  C_3
REMARK    3  A    between atoms: C_8  and  S_9
REMARK    4  A    between atoms: S_9  and  C_10
REMARK    5  A    between atoms: C_13  and  C_14
REMARK    6  A    between atoms: C_15  and  C_16
REMARK                            x       y       z     vdW  Elec       q    Type
REMARK                         _______ _______ _______ _____ _____    ______ ____
ROOT
ATOM      1  C   UNL     1       2.523   5.422  18.980  0.00  0.00    +0.000 A 
ATOM      2  C   UNL     1       1.833   5.149  20.169  0.00  0.00    +0.000 A 
ATOM      3  C   UNL     1       1.342   6.186  20.975  0.00  0.00    +0.000 A 
ATOM      4  C   UNL     1       1.546   7.526  20.621  0.00  0.00    +0.000 A 
ATOM      5  C   UNL     1       2.169   7.799  19.399  0.00  0.00    +0.000 A 
ATOM      6  C   UNL     1       2.666   6.763  18.592  0.00  0.00    +0.000 A 
ATOM      7 CL   UNL     1       3.517   7.227  17.156  0.00  0.00    +0.000 Cl
ENDROOT
BRANCH   4   8
ATOM      8  C   UNL     1       1.131   8.577  21.571  0.00  0.00    +0.000 C 
ATOM      9  C   UNL     1      -0.099   9.113  21.603  0.00  0.00    +0.000 C 
BRANCH   9  10
ATOM     10  C   UNL     1      -0.389  10.272  22.480  0.00  0.00    +0.000 C 
ATOM     11  O   UNL     1      -0.203  10.187  23.692  0.00  0.00    +0.000 OA
ATOM     12  N   UNL     1      -0.786  11.427  21.844  0.00  0.00    +0.000 N 
ATOM     13  C   UNL     1      -1.222  11.553  20.449  0.00  0.00    +0.000 C 
ATOM     14  C   UNL     1      -0.394  12.628  19.740  0.00  0.00    +0.000 C 
ATOM     15  O   UNL     1      -0.451  13.878  20.449  0.00  0.00    +0.000 OA
ATOM     16  C   UNL     1       0.031  13.732  21.797  0.00  0.00    +0.000 C 
ATOM     17  C   UNL     1      -0.798  12.697  22.571  0.00  0.00    +0.000 C 
ENDBRANCH   9  10
ENDBRANCH   4   8
BRANCH   1  18
ATOM     18  S   UNL     1       3.429   4.091  18.228  0.00  0.00    +0.000 S 
BRANCH  18  24
ATOM     19  C   UNL     1       5.994   4.429  16.924  0.00  0.00    +0.000 A 
ATOM     20  C   UNL     1       7.345   4.816  17.044  0.00  0.00    +0.000 A 
ATOM     21  C   UNL     1       7.856   5.323  18.239  0.00  0.00    +0.000 A 
ATOM     22  C   UNL     1       7.028   5.449  19.341  0.00  0.00    +0.000 A 
ATOM     23  C   UNL     1       5.696   5.051  19.243  0.00  0.00    +0.000 A 
ATOM     24  C   UNL     1       5.152   4.527  18.049  0.00  0.00    +0.000 A 
BRANCH  19  26
ATOM     25  C   UNL     1       6.359   3.923  14.631  0.00  0.00    +0.000 C 
ATOM     26  O   UNL     1       5.480   3.929  15.754  0.00  0.00    +0.000 OA
ENDBRANCH  19  26
ENDBRANCH  18  24
ENDBRANCH   1  18
TORSDOF 5
ENDMDL
MODEL 6
REMARK VINA RESULT:      -7.6      2.103      2.704
REMARK  Name = 
REMARK  6 active torsions:
REMARK  status: ('A' for Active; 'I' for Inactive)
REMARK    1  A    between atoms: C_1  and  O_2
REMARK    2  A    between atoms: O_2  and  C_3
REMARK    3  A    between atoms: C_8  and  S_9
REMARK    4  A    between atoms: S_9  and  C_10
REMARK    5  A    between atoms: C_13  and  C_14
REMARK    6  A    between atoms: C_15  and  C_16
REMARK                            x       y       z     vdW  Elec       q    Type
REMARK                         _______ _______ _______ _____ _____    ______ ____
ROOT
ATOM      1  C   UNL     1       3.488   5.922  18.826  0.00  0.00    +0.000 A 
ATOM      2  C   UNL     1       3.689   6.913  17.855  0.00  0.00    +0.000 A 
ATOM      3  C   UNL     1       2.921   8.086  17.848  0.00  0.00    +0.000 A 
ATOM      4  C   UNL     1       1.916   8.290  18.802  0.00  0.00    +0.000 A 
ATOM      5  C   UNL     1       1.763   7.337  19.814  0.00  0.00    +0.000 A 
ATOM      6  C   UNL     1       2.528   6.159  19.822  0.00  0.00    +0.000 A 
ATOM      7 CL   UNL     1       2.173   5.002  21.061  0.00  0.00    +0.000 Cl
ENDROOT
BRANCH   4   8
ATOM      8  C   UNL     1       1.046   9.475  18.667  0.00  0.00    +0.000 C 
ATOM      9  C   UNL     1       1.480  10.739  18.789  0.00  0.00    +0.000 C 
BRANCH   9  10
ATOM     10  C   UNL     1       0.515  11.865  18.796  0.00  0.00    +0.000 C 
ATOM     11  O   UNL     1      -0.670  11.657  19.042  0.00  0.00    +0.000 OA
ATOM     12  N   UNL     1       1.049  13.118  18.596  0.00  0.00    +0.000 N 
ATOM     13  C   UNL     1       2.394  13.429  18.102  0.00  0.00    +0.000 C 
ATOM     14  C   UNL     1       3.104  14.371  19.079  0.00  0.00    +0.000 C 
ATOM     15  O   UNL     1       2.321  15.553  19.319  0.00  0.00    +0.000 OA
ATOM     16  C   UNL     1       1.026  15.216  19.852  0.00  0.00    +0.000 C 
ATOM     17  C   UNL     1       0.250  14.310  18.888  0.00  0.00    +0.000 C 
ENDBRANCH   9  10
ENDBRANCH   4   8
BRANCH   1  18
ATOM     18  S   UNL     1       4.223   4.329  18.544  0.00  0.00    +0.000 S 
BRANCH  18  24
ATOM     19  C   UNL     1       6.801   4.596  17.250  0.00  0.00    +0.000 A 
ATOM     20  C   UNL     1       7.521   4.655  16.039  0.00  0.00    +0.000 A 
ATOM     21  C   UNL     1       6.889   4.503  14.805  0.00  0.00    +0.000 A 
ATOM     22  C   UNL     1       5.522   4.294  14.756  0.00  0.00    +0.000 A 
ATOM     23  C   UNL     1       4.793   4.253  15.944  0.00  0.00    +0.000 A 
ATOM     24  C   UNL     1       5.406   4.412  17.208  0.00  0.00    +0.000 A 
BRANCH  19  26
ATOM     25  C   UNL     1       7.745   6.078  18.850  0.00  0.00    +0.000 C 
ATOM     26  O   UNL     1       7.412   4.744  18.470  0.00  0.00    +0.000 OA
ENDBRANCH  19  26
ENDBRANCH  18  24
ENDBRANCH   1  18
TORSDOF 5
ENDMDL
MODEL 7
REMARK VINA RESULT:      -7.5      3.457      9.518
REMARK  Name = 
REMARK  6 active torsions:
REMARK  status: ('A' for Active; 'I' for Inactive)
REMARK    1  A    between atoms: C_1  and  O_2
REMARK    2  A    between atoms: O_2  and  C_3
REMARK    3  A    between atoms: C_8  and  S_9
REMARK    4  A    between atoms: S_9  and  C_10
REMARK    5  A    between atoms: C_13  and  C_14
REMARK    6  A    between atoms: C_15  and  C_16
REMARK                            x       y       z     vdW  Elec       q    Type
REMARK                         _______ _______ _______ _____ _____    ______ ____
ROOT
ATOM      1  C   UNL     1       1.057  10.283  19.979  0.00  0.00    +0.000 A 
ATOM      2  C   UNL     1       1.154  10.244  18.581  0.00  0.00    +0.000 A 
ATOM      3  C   UNL     1       1.591   9.088  17.918  0.00  0.00    +0.000 A 
ATOM      4  C   UNL     1       1.961   7.946  18.638  0.00  0.00    +0.000 A 
ATOM      5  C   UNL     1       1.795   7.958  20.027  0.00  0.00    +0.000 A 
ATOM      6  C   UNL     1       1.362   9.116  20.695  0.00  0.00    +0.000 A 
ATOM      7 CL   UNL     1       1.301   9.046  22.425  0.00  0.00    +0.000 Cl
ENDROOT
BRANCH   4   8
ATOM      8  C   UNL     1       2.544   6.807  17.903  0.00  0.00    +0.000 C 
ATOM      9  C   UNL     1       3.205   5.797  18.491  0.00  0.00    +0.000 C 
BRANCH   9  10
ATOM     10  C   UNL     1       3.894   4.774  17.669  0.00  0.00    +0.000 C 
ATOM     11  O   UNL     1       3.251   3.861  17.156  0.00  0.00    +0.000 OA
ATOM     12  N   UNL     1       5.243   4.969  17.468  0.00  0.00    +0.000 N 
ATOM     13  C   UNL     1       6.111   5.898  18.198  0.00  0.00    +0.000 C 
ATOM     14  C   UNL     1       6.844   6.811  17.210  0.00  0.00    +0.000 C 
ATOM     15  O   UNL     1       7.563   6.042  16.230  0.00  0.00    +0.000 OA
ATOM     16  C   UNL     1       6.674   5.178  15.497  0.00  0.00    +0.000 C 
ATOM     17  C   UNL     1       5.948   4.207  16.437  0.00  0.00    +0.000 C 
ENDBRANCH   9  10
ENDBRANCH   4   8
BRANCH   1  18
ATOM     18  S   UNL     1       0.867  11.873  20.748  0.00  0.00    +0.000 S 
BRANCH  18  24
ATOM     19  C   UNL     1      -1.963  12.340  20.336  0.00  0.00    +0.000 A 
ATOM     20  C   UNL     1      -3.222  12.589  20.919  0.00  0.00    +0.000 A 
ATOM     21  C   UNL     1      -3.389  12.633  22.304  0.00  0.00    +0.000 A 
ATOM     22  C   UNL     1      -2.300  12.434  23.134  0.00  0.00    +0.000 A 
ATOM     23  C   UNL     1      -1.045  12.207  22.571  0.00  0.00    +0.000 A 
ATOM     24  C   UNL     1      -0.844  12.165  21.173  0.00  0.00    +0.000 A 
BRANCH  19  26
ATOM     25  C   UNL     1      -2.809  11.641  18.229  0.00  0.00    +0.000 C 
ATOM     26  O   UNL     1      -1.785  12.295  18.976  0.00  0.00    +0.000 OA
ENDBRANCH  19  26
ENDBRANCH  18  24
ENDBRANCH   1  18
TORSDOF 5
ENDMDL
MODEL 8
REMARK VINA RESULT:      -7.4      1.651      2.584
REMARK  Name = 
REMARK  6 active torsions:
REMARK  status: ('A' for Active; 'I' for Inactive)
REMARK    1  A    between atoms: C_1  and  O_2
REMARK    2  A    between atoms: O_2  and  C_3
REMARK    3  A    between atoms: C_8  and  S_9
REMARK    4  A    between atoms: S_9  and  C_10
REMARK    5  A    between atoms: C_13  and  C_14
REMARK    6  A    between atoms: C_15  and  C_16
REMARK                            x       y       z     vdW  Elec       q    Type
REMARK                         _______ _______ _______ _____ _____    ______ ____
ROOT
ATOM      1  C   UNL     1       2.635   6.432  18.826  0.00  0.00    +0.000 A 
ATOM      2  C   UNL     1       2.449   7.662  18.182  0.00  0.00    +0.000 A 
ATOM      3  C   UNL     1       1.748   8.706  18.804  0.00  0.00    +0.000 A 
ATOM      4  C   UNL     1       1.197   8.538  20.080  0.00  0.00    +0.000 A 
ATOM      5  C   UNL     1       1.444   7.337  20.754  0.00  0.00    +0.000 A 
ATOM      6  C   UNL     1       2.142   6.289  20.132  0.00  0.00    +0.000 A 
ATOM      7 CL   UNL     1       2.290   4.810  21.023  0.00  0.00    +0.000 Cl
ENDROOT
BRANCH   4   8
ATOM      8  C   UNL     1       0.352   9.616  20.631  0.00  0.00    +0.000 C 
ATOM      9  C   UNL     1       0.771  10.879  20.805  0.00  0.00    +0.000 C 
BRANCH   9  10
ATOM     10  C   UNL     1      -0.086  11.862  21.508  0.00  0.00    +0.000 C 
ATOM     11  O   UNL     1      -0.227  11.794  22.727  0.00  0.00    +0.000 OA
ATOM     12  N   UNL     1      -0.622  12.864  20.729  0.00  0.00    +0.000 N 
ATOM     13  C   UNL     1      -0.671  12.902  19.264  0.00  0.00    +0.000 C 
ATOM     14  C   UNL     1      -0.045  14.203  18.755  0.00  0.00    +0.000 C 
ATOM     15  O   UNL     1      -0.671  15.349  19.355  0.00  0.00    +0.000 OA
ATOM     16  C   UNL     1      -0.560  15.308  20.790  0.00  0.00    +0.000 C 
ATOM     17  C   UNL     1      -1.217  14.043  21.359  0.00  0.00    +0.000 C 
ENDBRANCH   9  10
ENDBRANCH   4   8
BRANCH   1  18
ATOM     18  S   UNL     1       3.189   5.060  17.841  0.00  0.00    +0.000 S 
BRANCH  18  24
ATOM     19  C   UNL     1       5.838   4.583  16.770  0.00  0.00    +0.000 A 
ATOM     20  C   UNL     1       7.230   4.597  16.995  0.00  0.00    +0.000 A 
ATOM     21  C   UNL     1       7.770   5.044  18.201  0.00  0.00    +0.000 A 
ATOM     22  C   UNL     1       6.929   5.479  19.210  0.00  0.00    +0.000 A 
ATOM     23  C   UNL     1       5.550   5.451  19.010  0.00  0.00    +0.000 A 
ATOM     24  C   UNL     1       4.974   4.997  17.802  0.00  0.00    +0.000 A 
BRANCH  19  26
ATOM     25  C   UNL     1       6.208   3.953  14.508  0.00  0.00    +0.000 C 
ATOM     26  O   UNL     1       5.295   4.146  15.588  0.00  0.00    +0.000 OA
ENDBRANCH  19  26
ENDBRANCH  18  24
ENDBRANCH   1  18
TORSDOF 5
ENDMDL
MODEL 9
REMARK VINA RESULT:      -7.4      3.915      9.267
REMARK  Name = 
REMARK  6 active torsions:
REMARK  status: ('A' for Active; 'I' for Inactive)
REMARK    1  A    between atoms: C_1  and  O_2
REMARK    2  A    between atoms: O_2  and  C_3
REMARK    3  A    between atoms: C_8  and  S_9
REMARK    4  A    between atoms: S_9  and  C_10
REMARK    5  A    between atoms: C_13  and  C_14
REMARK    6  A    between atoms: C_15  and  C_16
REMARK                            x       y       z     vdW  Elec       q    Type
REMARK                         _______ _______ _______ _____ _____    ______ ____
ROOT
ATOM      1  C   UNL     1       0.137  11.676  18.566  0.00  0.00    +0.000 A 
ATOM      2  C   UNL     1       1.531  11.819  18.512  0.00  0.00    +0.000 A 
ATOM      3  C   UNL     1       2.358  10.731  18.199  0.00  0.00    +0.000 A 
ATOM      4  C   UNL     1       1.813   9.465  17.951  0.00  0.00    +0.000 A 
ATOM      5  C   UNL     1       0.420   9.337  17.933  0.00  0.00    +0.000 A 
ATOM      6  C   UNL     1      -0.411  10.424  18.250  0.00  0.00    +0.000 A 
ATOM      7 CL   UNL     1      -2.116  10.118  18.304  0.00  0.00    +0.000 Cl
ENDROOT
BRANCH   4   8
ATOM      8  C   UNL     1       2.733   8.326  17.763  0.00  0.00    +0.000 C 
ATOM      9  C   UNL     1       2.420   7.055  18.061  0.00  0.00    +0.000 C 
BRANCH   9  10
ATOM     10  C   UNL     1       3.452   5.994  17.991  0.00  0.00    +0.000 C 
ATOM     11  O   UNL     1       4.641   6.295  17.935  0.00  0.00    +0.000 OA
ATOM     12  N   UNL     1       2.992   4.698  18.075  0.00  0.00    +0.000 N 
ATOM     13  C   UNL     1       1.601   4.252  17.939  0.00  0.00    +0.000 C 
ATOM     14  C   UNL     1       1.199   3.420  19.160  0.00  0.00    +0.000 C 
ATOM     15  O   UNL     1       2.110   2.326  19.364  0.00  0.00    +0.000 OA
ATOM     16  C   UNL     1       3.457   2.800  19.544  0.00  0.00    +0.000 C 
ATOM     17  C   UNL     1       3.929   3.602  18.324  0.00  0.00    +0.000 C 
ENDBRANCH   9  10
ENDBRANCH   4   8
BRANCH   1  18
ATOM     18  S   UNL     1      -0.796  12.981  19.329  0.00  0.00    +0.000 S 
BRANCH  18  24
ATOM     19  C   UNL     1      -0.715  11.739  21.945  0.00  0.00    +0.000 A 
ATOM     20  C   UNL     1      -1.402  11.442  23.140  0.00  0.00    +0.000 A 
ATOM     21  C   UNL     1      -2.704  11.891  23.365  0.00  0.00    +0.000 A 
ATOM     22  C   UNL     1      -3.348  12.642  22.397  0.00  0.00    +0.000 A 
ATOM     23  C   UNL     1      -2.688  12.927  21.203  0.00  0.00    +0.000 A 
ATOM     24  C   UNL     1      -1.373  12.479  20.944  0.00  0.00    +0.000 A 
BRANCH  19  26
ATOM     25  C   UNL     1       0.769   9.893  21.763  0.00  0.00    +0.000 C 
ATOM     26  O   UNL     1       0.565  11.303  21.713  0.00  0.00    +0.000 OA
ENDBRANCH  19  26
ENDBRANCH  18  24
ENDBRANCH   1  18
TORSDOF 5
ENDMDL
