MODEL 1
REMARK VINA RESULT:      -7.5      0.000      0.000
REMARK  Name = 
REMARK  8 active torsions:
REMARK  status: ('A' for Active; 'I' for Inactive)
REMARK    1  A    between atoms: C_1  and  O_2
REMARK    2  A    between atoms: O_2  and  C_3
REMARK    3  A    between atoms: C_3  and  C_5
REMARK    4  A    between atoms: C_5  and  N_6
REMARK    5  A    between atoms: C_7  and  C_9
REMARK    6  A    between atoms: C_9  and  S_10
REMARK    7  A    between atoms: S_10  and  C_11
REMARK    8  A    between atoms: C_12  and  C_13
REMARK                            x       y       z     vdW  Elec       q    Type
REMARK                         _______ _______ _______ _____ _____    ______ ____
ROOT
ATOM      1  C   UNL     1       5.048   5.469  18.064  0.00  0.00    +0.000 C 
ATOM      2  C   UNL     1       4.037   6.325  17.834  0.00  0.00    +0.000 C 
ATOM      3  C   UNL     1       4.096   7.582  17.001  0.00  0.00    +0.000 C 
ATOM      4  C   UNL     1       2.692   6.091  18.440  0.00  0.00    +0.000 C 
ATOM      5  O   UNL     1       1.752   6.846  18.213  0.00  0.00    +0.000 OA
ATOM      6  C   UNL     1       2.503   4.927  19.320  0.00  0.00    +0.000 A 
ATOM      7  C   UNL     1       1.235   4.663  19.859  0.00  0.00    +0.000 A 
ATOM      8  C   UNL     1       1.042   3.562  20.696  0.00  0.00    +0.000 A 
ATOM      9  C   UNL     1       2.117   2.736  21.013  0.00  0.00    +0.000 A 
ATOM     10  C   UNL     1       3.380   2.999  20.480  0.00  0.00    +0.000 A 
ATOM     11  C   UNL     1       3.569   4.088  19.617  0.00  0.00    +0.000 A 
ATOM     12  C   UNL     1       4.895   4.315  19.011  0.00  0.00    +0.000 C 
ATOM     13  O   UNL     1       5.820   3.561  19.293  0.00  0.00    +0.000 OA
ENDROOT
BRANCH   1  14
ATOM     14  S   UNL     1       6.644   5.718  17.407  0.00  0.00    +0.000 S 
BRANCH  14  15
ATOM     15  C   UNL     1       6.926   4.201  16.423  0.00  0.00    +0.000 C 
BRANCH  15  17
ATOM     16  N   UNL     1       6.400   3.631  14.072  0.00  0.00    +0.000 N 
ATOM     17  C   UNL     1       7.003   4.528  14.926  0.00  0.00    +0.000 C 
ATOM     18  O   UNL     1       7.513   5.564  14.506  0.00  0.00    +0.000 OA
ATOM     19  H   UNL     1       5.992   2.777  14.442  0.00  0.00    +0.000 HD
BRANCH  16  20
ATOM     20  C   UNL     1       6.401   3.852  12.636  0.00  0.00    +0.000 C 
BRANCH  20  21
ATOM     21  C   UNL     1       5.426   2.937  11.918  0.00  0.00    +0.000 C 
ATOM     22  O   UNL     1       5.711   1.832  11.464  0.00  0.00    +0.000 OA
BRANCH  21  24
ATOM     23  C   UNL     1       3.483   3.244  10.639  0.00  0.00    +0.000 C 
ATOM     24  O   UNL     1       4.195   3.518  11.848  0.00  0.00    +0.000 OA
ENDBRANCH  21  24
ENDBRANCH  20  21
ENDBRANCH  16  20
ENDBRANCH  15  17
ENDBRANCH  14  15
ENDBRANCH   1  14
TORSDOF 6
ENDMDL
MODEL 2
REMARK VINA RESULT:      -7.4      3.007      4.856
REMARK  Name = 
REMARK  8 active torsions:
REMARK  status: ('A' for Active; 'I' for Inactive)
REMARK    1  A    between atoms: C_1  and  O_2
REMARK    2  A    between atoms: O_2  and  C_3
REMARK    3  A    between atoms: C_3  and  C_5
REMARK    4  A    between atoms: C_5  and  N_6
REMARK    5  A    between atoms: C_7  and  C_9
REMARK    6  A    between atoms: C_9  and  S_10
REMARK    7  A    between atoms: S_10  and  C_11
REMARK    8  A    between atoms: C_12  and  C_13
REMARK                            x       y       z     vdW  Elec       q    Type
REMARK                         _______ _______ _______ _____ _____    ______ ____
ROOT
ATOM      1  C   UNL     1       4.173   5.111  17.109  0.00  0.00    +0.000 C 
ATOM      2  C   UNL     1       3.762   6.239  17.715  0.00  0.00    +0.000 C 
ATOM      3  C   UNL     1       4.128   7.651  17.330  0.00  0.00    +0.000 C 
ATOM      4  C   UNL     1       2.865   6.175  18.908  0.00  0.00    +0.000 C 
ATOM      5  O   UNL     1       2.456   7.196  19.451  0.00  0.00    +0.000 OA
ATOM      6  C   UNL     1       2.467   4.857  19.427  0.00  0.00    +0.000 A 
ATOM      7  C   UNL     1       1.586   4.778  20.517  0.00  0.00    +0.000 A 
ATOM      8  C   UNL     1       1.201   3.533  21.020  0.00  0.00    +0.000 A 
ATOM      9  C   UNL     1       1.710   2.368  20.452  0.00  0.00    +0.000 A 
ATOM     10  C   UNL     1       2.589   2.446  19.370  0.00  0.00    +0.000 A 
ATOM     11  C   UNL     1       2.955   3.695  18.845  0.00  0.00    +0.000 A 
ATOM     12  C   UNL     1       3.834   3.759  17.663  0.00  0.00    +0.000 C 
ATOM     13  O   UNL     1       4.254   2.716  17.170  0.00  0.00    +0.000 OA
ENDROOT
BRANCH   1  14
ATOM     14  S   UNL     1       5.247   5.134  15.735  0.00  0.00    +0.000 S 
BRANCH  14  15
ATOM     15  C   UNL     1       6.733   4.267  16.359  0.00  0.00    +0.000 C 
BRANCH  15  17
ATOM     16  N   UNL     1       7.565   6.368  17.371  0.00  0.00    +0.000 N 
ATOM     17  C   UNL     1       7.345   5.019  17.547  0.00  0.00    +0.000 C 
ATOM     18  O   UNL     1       7.568   4.473  18.625  0.00  0.00    +0.000 OA
ATOM     19  H   UNL     1       7.381   6.795  16.467  0.00  0.00    +0.000 HD
BRANCH  16  20
ATOM     20  C   UNL     1       8.128   7.178  18.437  0.00  0.00    +0.000 C 
BRANCH  20  21
ATOM     21  C   UNL     1       8.113   8.657  18.097  0.00  0.00    +0.000 C 
ATOM     22  O   UNL     1       7.475   9.155  17.174  0.00  0.00    +0.000 OA
BRANCH  21  24
ATOM     23  C   UNL     1       9.289  10.647  18.496  0.00  0.00    +0.000 C 
ATOM     24  O   UNL     1       8.911   9.349  18.959  0.00  0.00    +0.000 OA
ENDBRANCH  21  24
ENDBRANCH  20  21
ENDBRANCH  16  20
ENDBRANCH  15  17
ENDBRANCH  14  15
ENDBRANCH   1  14
TORSDOF 6
ENDMDL
MODEL 3
REMARK VINA RESULT:      -7.4      3.846      5.876
REMARK  Name = 
REMARK  8 active torsions:
REMARK  status: ('A' for Active; 'I' for Inactive)
REMARK    1  A    between atoms: C_1  and  O_2
REMARK    2  A    between atoms: O_2  and  C_3
REMARK    3  A    between atoms: C_3  and  C_5
REMARK    4  A    between atoms: C_5  and  N_6
REMARK    5  A    between atoms: C_7  and  C_9
REMARK    6  A    between atoms: C_9  and  S_10
REMARK    7  A    between atoms: S_10  and  C_11
REMARK    8  A    between atoms: C_12  and  C_13
REMARK                            x       y       z     vdW  Elec       q    Type
REMARK                         _______ _______ _______ _____ _____    ______ ____
ROOT
ATOM      1  C   UNL     1       5.125   4.975  18.081  0.00  0.00    +0.000 C 
ATOM      2  C   UNL     1       4.207   5.913  17.793  0.00  0.00    +0.000 C 
ATOM      3  C   UNL     1       4.397   7.109  16.891  0.00  0.00    +0.000 C 
ATOM      4  C   UNL     1       2.842   5.850  18.396  0.00  0.00    +0.000 C 
ATOM      5  O   UNL     1       1.984   6.682  18.116  0.00  0.00    +0.000 OA
ATOM      6  C   UNL     1       2.531   4.763  19.337  0.00  0.00    +0.000 A 
ATOM      7  C   UNL     1       1.240   4.660  19.876  0.00  0.00    +0.000 A 
ATOM      8  C   UNL     1       0.932   3.633  20.771  0.00  0.00    +0.000 A 
ATOM      9  C   UNL     1       1.916   2.722  21.146  0.00  0.00    +0.000 A 
ATOM     10  C   UNL     1       3.203   2.826  20.614  0.00  0.00    +0.000 A 
ATOM     11  C   UNL     1       3.506   3.840  19.692  0.00  0.00    +0.000 A 
ATOM     12  C   UNL     1       4.851   3.898  19.090  0.00  0.00    +0.000 C 
ATOM     13  O   UNL     1       5.694   3.072  19.424  0.00  0.00    +0.000 OA
ENDROOT
BRANCH   1  14
ATOM     14  S   UNL     1       6.741   5.024  17.429  0.00  0.00    +0.000 S 
BRANCH  14  15
ATOM     15  C   UNL     1       7.631   6.100  18.612  0.00  0.00    +0.000 C 
BRANCH  15  17
ATOM     16  N   UNL     1       8.495   8.411  18.822  0.00  0.00    +0.000 N 
ATOM     17  C   UNL     1       7.895   7.482  18.000  0.00  0.00    +0.000 C 
ATOM     18  O   UNL     1       7.652   7.735  16.823  0.00  0.00    +0.000 OA
ATOM     19  H   UNL     1       8.679   8.180  19.795  0.00  0.00    +0.000 HD
BRANCH  16  20
ATOM     20  C   UNL     1       8.804   9.745  18.339  0.00  0.00    +0.000 C 
BRANCH  20  21
ATOM     21  C   UNL     1       9.550  10.567  19.374  0.00  0.00    +0.000 C 
ATOM     22  O   UNL     1       9.156  10.775  20.518  0.00  0.00    +0.000 OA
BRANCH  21  24
ATOM     23  C   UNL     1      10.543  12.016  17.818  0.00  0.00    +0.000 C 
ATOM     24  O   UNL     1      10.716  11.043  18.850  0.00  0.00    +0.000 OA
ENDBRANCH  21  24
ENDBRANCH  20  21
ENDBRANCH  16  20
ENDBRANCH  15  17
ENDBRANCH  14  15
ENDBRANCH   1  14
TORSDOF 6
ENDMDL
MODEL 4
REMARK VINA RESULT:      -7.1      1.530      1.956
REMARK  Name = 
REMARK  8 active torsions:
REMARK  status: ('A' for Active; 'I' for Inactive)
REMARK    1  A    between atoms: C_1  and  O_2
REMARK    2  A    between atoms: O_2  and  C_3
REMARK    3  A    between atoms: C_3  and  C_5
REMARK    4  A    between atoms: C_5  and  N_6
REMARK    5  A    between atoms: C_7  and  C_9
REMARK    6  A    between atoms: C_9  and  S_10
REMARK    7  A    between atoms: S_10  and  C_11
REMARK    8  A    between atoms: C_12  and  C_13
REMARK                            x       y       z     vdW  Elec       q    Type
REMARK                         _______ _______ _______ _____ _____    ______ ____
ROOT
ATOM      1  C   UNL     1       5.005   5.393  18.679  0.00  0.00    +0.000 C 
ATOM      2  C   UNL     1       4.034   6.186  18.193  0.00  0.00    +0.000 C 
ATOM      3  C   UNL     1       4.181   7.624  17.760  0.00  0.00    +0.000 C 
ATOM      4  C   UNL     1       2.637   5.675  18.051  0.00  0.00    +0.000 C 
ATOM      5  O   UNL     1       1.749   6.377  17.579  0.00  0.00    +0.000 OA
ATOM      6  C   UNL     1       2.337   4.301  18.484  0.00  0.00    +0.000 A 
ATOM      7  C   UNL     1       1.042   3.788  18.313  0.00  0.00    +0.000 A 
ATOM      8  C   UNL     1       0.743   2.486  18.720  0.00  0.00    +0.000 A 
ATOM      9  C   UNL     1       1.728   1.702  19.316  0.00  0.00    +0.000 A 
ATOM     10  C   UNL     1       3.016   2.213  19.490  0.00  0.00    +0.000 A 
ATOM     11  C   UNL     1       3.325   3.511  19.056  0.00  0.00    +0.000 A 
ATOM     12  C   UNL     1       4.705   4.013  19.188  0.00  0.00    +0.000 C 
ATOM     13  O   UNL     1       5.558   3.296  19.700  0.00  0.00    +0.000 OA
ENDROOT
BRANCH   1  14
ATOM     14  S   UNL     1       6.642   5.954  18.895  0.00  0.00    +0.000 S 
BRANCH  14  15
ATOM     15  C   UNL     1       7.115   6.503  17.215  0.00  0.00    +0.000 C 
BRANCH  15  17
ATOM     16  N   UNL     1       6.517   5.442  15.059  0.00  0.00    +0.000 N 
ATOM     17  C   UNL     1       7.193   5.311  16.253  0.00  0.00    +0.000 C 
ATOM     18  O   UNL     1       7.874   4.317  16.494  0.00  0.00    +0.000 OA
ATOM     19  H   UNL     1       5.953   6.270  14.887  0.00  0.00    +0.000 HD
BRANCH  16  20
ATOM     20  C   UNL     1       6.537   4.379  14.070  0.00  0.00    +0.000 C 
BRANCH  20  21
ATOM     21  C   UNL     1       7.348   4.757  12.844  0.00  0.00    +0.000 C 
ATOM     22  O   UNL     1       8.155   5.681  12.799  0.00  0.00    +0.000 OA
BRANCH  21  24
ATOM     23  C   UNL     1       5.902   3.104  12.019  0.00  0.00    +0.000 C 
ATOM     24  O   UNL     1       7.049   3.928  11.804  0.00  0.00    +0.000 OA
ENDBRANCH  21  24
ENDBRANCH  20  21
ENDBRANCH  16  20
ENDBRANCH  15  17
ENDBRANCH  14  15
ENDBRANCH   1  14
TORSDOF 6
ENDMDL
MODEL 5
REMARK VINA RESULT:      -7.1      1.175      1.538
REMARK  Name = 
REMARK  8 active torsions:
REMARK  status: ('A' for Active; 'I' for Inactive)
REMARK    1  A    between atoms: C_1  and  O_2
REMARK    2  A    between atoms: O_2  and  C_3
REMARK    3  A    between atoms: C_3  and  C_5
REMARK    4  A    between atoms: C_5  and  N_6
REMARK    5  A    between atoms: C_7  and  C_9
REMARK    6  A    between atoms: C_9  and  S_10
REMARK    7  A    between atoms: S_10  and  C_11
REMARK    8  A    between atoms: C_12  and  C_13
REMARK                            x       y       z     vdW  Elec       q    Type
REMARK                         _______ _______ _______ _____ _____    ______ ____
ROOT
ATOM      1  C   UNL     1       4.051   5.943  17.513  0.00  0.00    +0.000 C 
ATOM      2  C   UNL     1       3.315   6.855  18.171  0.00  0.00    +0.000 C 
ATOM      3  C   UNL     1       3.127   8.303  17.790  0.00  0.00    +0.000 C 
ATOM      4  C   UNL     1       2.590   6.484  19.423  0.00  0.00    +0.000 C 
ATOM      5  O   UNL     1       1.888   7.297  20.016  0.00  0.00    +0.000 OA
ATOM      6  C   UNL     1       2.725   5.113  19.942  0.00  0.00    +0.000 A 
ATOM      7  C   UNL     1       2.013   4.733  21.090  0.00  0.00    +0.000 A 
ATOM      8  C   UNL     1       2.132   3.436  21.593  0.00  0.00    +0.000 A 
ATOM      9  C   UNL     1       2.976   2.524  20.965  0.00  0.00    +0.000 A 
ATOM     10  C   UNL     1       3.688   2.902  19.825  0.00  0.00    +0.000 A 
ATOM     11  C   UNL     1       3.547   4.196  19.302  0.00  0.00    +0.000 A 
ATOM     12  C   UNL     1       4.256   4.561  18.060  0.00  0.00    +0.000 C 
ATOM     13  O   UNL     1       4.979   3.732  17.517  0.00  0.00    +0.000 OA
ENDROOT
BRANCH   1  14
ATOM     14  S   UNL     1       4.942   6.336  16.066  0.00  0.00    +0.000 S 
BRANCH  14  15
ATOM     15  C   UNL     1       6.329   5.144  16.098  0.00  0.00    +0.000 C 
BRANCH  15  17
ATOM     16  N   UNL     1       6.075   3.959  13.939  0.00  0.00    +0.000 N 
ATOM     17  C   UNL     1       6.826   4.846  14.678  0.00  0.00    +0.000 C 
ATOM     18  O   UNL     1       7.802   5.414  14.192  0.00  0.00    +0.000 OA
ATOM     19  H   UNL     1       5.277   3.496  14.365  0.00  0.00    +0.000 HD
BRANCH  16  20
ATOM     20  C   UNL     1       6.448   3.619  12.577  0.00  0.00    +0.000 C 
BRANCH  20  21
ATOM     21  C   UNL     1       5.326   2.914  11.838  0.00  0.00    +0.000 C 
ATOM     22  O   UNL     1       4.208   3.388  11.649  0.00  0.00    +0.000 OA
BRANCH  21  24
ATOM     23  C   UNL     1       7.129   1.595  11.121  0.00  0.00    +0.000 C 
ATOM     24  O   UNL     1       5.734   1.683  11.418  0.00  0.00    +0.000 OA
ENDBRANCH  21  24
ENDBRANCH  20  21
ENDBRANCH  16  20
ENDBRANCH  15  17
ENDBRANCH  14  15
ENDBRANCH   1  14
TORSDOF 6
ENDMDL
MODEL 6
REMARK VINA RESULT:      -7.0      2.689      4.285
REMARK  Name = 
REMARK  8 active torsions:
REMARK  status: ('A' for Active; 'I' for Inactive)
REMARK    1  A    between atoms: C_1  and  O_2
REMARK    2  A    between atoms: O_2  and  C_3
REMARK    3  A    between atoms: C_3  and  C_5
REMARK    4  A    between atoms: C_5  and  N_6
REMARK    5  A    between atoms: C_7  and  C_9
REMARK    6  A    between atoms: C_9  and  S_10
REMARK    7  A    between atoms: S_10  and  C_11
REMARK    8  A    between atoms: C_12  and  C_13
REMARK                            x       y       z     vdW  Elec       q    Type
REMARK                         _______ _______ _______ _____ _____    ______ ____
ROOT
ATOM      1  C   UNL     1       2.767   5.858  18.896  0.00  0.00    +0.000 C 
ATOM      2  C   UNL     1       3.058   6.854  18.041  0.00  0.00    +0.000 C 
ATOM      3  C   UNL     1       3.927   6.757  16.810  0.00  0.00    +0.000 C 
ATOM      4  C   UNL     1       2.521   8.230  18.267  0.00  0.00    +0.000 C 
ATOM      5  O   UNL     1       2.752   9.140  17.477  0.00  0.00    +0.000 OA
ATOM      6  C   UNL     1       1.698   8.483  19.459  0.00  0.00    +0.000 A 
ATOM      7  C   UNL     1       1.145   9.757  19.663  0.00  0.00    +0.000 A 
ATOM      8  C   UNL     1       0.362  10.011  20.790  0.00  0.00    +0.000 A 
ATOM      9  C   UNL     1       0.147   9.003  21.727  0.00  0.00    +0.000 A 
ATOM     10  C   UNL     1       0.700   7.736  21.527  0.00  0.00    +0.000 A 
ATOM     11  C   UNL     1       1.463   7.471  20.380  0.00  0.00    +0.000 A 
ATOM     12  C   UNL     1       1.986   6.111  20.152  0.00  0.00    +0.000 C 
ATOM     13  O   UNL     1       1.766   5.237  20.983  0.00  0.00    +0.000 OA
ENDROOT
BRANCH   1  14
ATOM     14  S   UNL     1       3.396   4.245  18.693  0.00  0.00    +0.000 S 
BRANCH  14  15
ATOM     15  C   UNL     1       4.806   4.202  19.859  0.00  0.00    +0.000 C 
BRANCH  15  17
ATOM     16  N   UNL     1       6.271   4.287  17.865  0.00  0.00    +0.000 N 
ATOM     17  C   UNL     1       6.095   4.676  19.175  0.00  0.00    +0.000 C 
ATOM     18  O   UNL     1       6.899   5.417  19.734  0.00  0.00    +0.000 OA
ATOM     19  H   UNL     1       5.596   3.667  17.427  0.00  0.00    +0.000 HD
BRANCH  16  20
ATOM     20  C   UNL     1       7.450   4.693  17.119  0.00  0.00    +0.000 C 
BRANCH  20  21
ATOM     21  C   UNL     1       7.195   4.724  15.623  0.00  0.00    +0.000 C 
ATOM     22  O   UNL     1       7.785   5.451  14.829  0.00  0.00    +0.000 OA
BRANCH  21  24
ATOM     23  C   UNL     1       5.642   4.046  14.000  0.00  0.00    +0.000 C 
ATOM     24  O   UNL     1       6.217   3.834  15.291  0.00  0.00    +0.000 OA
ENDBRANCH  21  24
ENDBRANCH  20  21
ENDBRANCH  16  20
ENDBRANCH  15  17
ENDBRANCH  14  15
ENDBRANCH   1  14
TORSDOF 6
ENDMDL
MODEL 7
REMARK VINA RESULT:      -7.0      0.744      1.194
REMARK  Name = 
REMARK  8 active torsions:
REMARK  status: ('A' for Active; 'I' for Inactive)
REMARK    1  A    between atoms: C_1  and  O_2
REMARK    2  A    between atoms: O_2  and  C_3
REMARK    3  A    between atoms: C_3  and  C_5
REMARK    4  A    between atoms: C_5  and  N_6
REMARK    5  A    between atoms: C_7  and  C_9
REMARK    6  A    between atoms: C_9  and  S_10
REMARK    7  A    between atoms: S_10  and  C_11
REMARK    8  A    between atoms: C_12  and  C_13
REMARK                            x       y       z     vdW  Elec       q    Type
REMARK                         _______ _______ _______ _____ _____    ______ ____
ROOT
ATOM      1  C   UNL     1       4.970   5.270  18.023  0.00  0.00    +0.000 C 
ATOM      2  C   UNL     1       4.019   6.218  17.955  0.00  0.00    +0.000 C 
ATOM      3  C   UNL     1       4.086   7.503  17.165  0.00  0.00    +0.000 C 
ATOM      4  C   UNL     1       2.745   6.071  18.720  0.00  0.00    +0.000 C 
ATOM      5  O   UNL     1       1.856   6.913  18.642  0.00  0.00    +0.000 OA
ATOM      6  C   UNL     1       2.563   4.888  19.576  0.00  0.00    +0.000 A 
ATOM      7  C   UNL     1       1.353   4.709  20.264  0.00  0.00    +0.000 A 
ATOM      8  C   UNL     1       1.167   3.591  21.079  0.00  0.00    +0.000 A 
ATOM      9  C   UNL     1       2.194   2.662  21.226  0.00  0.00    +0.000 A 
ATOM     10  C   UNL     1       3.400   2.841  20.545  0.00  0.00    +0.000 A 
ATOM     11  C   UNL     1       3.577   3.949  19.703  0.00  0.00    +0.000 A 
ATOM     12  C   UNL     1       4.832   4.090  18.941  0.00  0.00    +0.000 C 
ATOM     13  O   UNL     1       5.713   3.248  19.074  0.00  0.00    +0.000 OA
ENDROOT
BRANCH   1  14
ATOM     14  S   UNL     1       6.487   5.412  17.175  0.00  0.00    +0.000 S 
BRANCH  14  15
ATOM     15  C   UNL     1       6.500   3.930  16.101  0.00  0.00    +0.000 C 
BRANCH  15  17
ATOM     16  N   UNL     1       6.680   3.485  13.673  0.00  0.00    +0.000 N 
ATOM     17  C   UNL     1       6.162   4.303  14.652  0.00  0.00    +0.000 C 
ATOM     18  O   UNL     1       5.416   5.238  14.373  0.00  0.00    +0.000 OA
ATOM     19  H   UNL     1       7.302   2.723  13.928  0.00  0.00    +0.000 HD
BRANCH  16  20
ATOM     20  C   UNL     1       6.410   3.739  12.268  0.00  0.00    +0.000 C 
BRANCH  20  21
ATOM     21  C   UNL     1       5.220   2.943  11.764  0.00  0.00    +0.000 C 
ATOM     22  O   UNL     1       4.081   3.388  11.648  0.00  0.00    +0.000 OA
BRANCH  21  24
ATOM     23  C   UNL     1       6.909   1.554  10.915  0.00  0.00    +0.000 C 
ATOM     24  O   UNL     1       5.595   1.667  11.465  0.00  0.00    +0.000 OA
ENDBRANCH  21  24
ENDBRANCH  20  21
ENDBRANCH  16  20
ENDBRANCH  15  17
ENDBRANCH  14  15
ENDBRANCH   1  14
TORSDOF 6
ENDMDL
MODEL 8
REMARK VINA RESULT:      -6.9      4.005      6.007
REMARK  Name = 
REMARK  8 active torsions:
REMARK  status: ('A' for Active; 'I' for Inactive)
REMARK    1  A    between atoms: C_1  and  O_2
REMARK    2  A    between atoms: O_2  and  C_3
REMARK    3  A    between atoms: C_3  and  C_5
REMARK    4  A    between atoms: C_5  and  N_6
REMARK    5  A    between atoms: C_7  and  C_9
REMARK    6  A    between atoms: C_9  and  S_10
REMARK    7  A    between atoms: S_10  and  C_11
REMARK    8  A    between atoms: C_12  and  C_13
REMARK                            x       y       z     vdW  Elec       q    Type
REMARK                         _______ _______ _______ _____ _____    ______ ____
ROOT
ATOM      1  C   UNL     1       5.484   4.674  17.621  0.00  0.00    +0.000 C 
ATOM      2  C   UNL     1       4.679   4.154  16.678  0.00  0.00    +0.000 C 
ATOM      3  C   UNL     1       5.038   3.890  15.236  0.00  0.00    +0.000 C 
ATOM      4  C   UNL     1       3.267   3.788  17.003  0.00  0.00    +0.000 C 
ATOM      5  O   UNL     1       2.532   3.282  16.161  0.00  0.00    +0.000 OA
ATOM      6  C   UNL     1       2.764   4.038  18.363  0.00  0.00    +0.000 A 
ATOM      7  C   UNL     1       1.456   3.657  18.700  0.00  0.00    +0.000 A 
ATOM      8  C   UNL     1       0.966   3.889  19.986  0.00  0.00    +0.000 A 
ATOM      9  C   UNL     1       1.770   4.520  20.931  0.00  0.00    +0.000 A 
ATOM     10  C   UNL     1       3.070   4.904  20.596  0.00  0.00    +0.000 A 
ATOM     11  C   UNL     1       3.574   4.646  19.312  0.00  0.00    +0.000 A 
ATOM     12  C   UNL     1       4.970   4.999  18.994  0.00  0.00    +0.000 C 
ATOM     13  O   UNL     1       5.663   5.538  19.850  0.00  0.00    +0.000 OA
ENDROOT
BRANCH   1  14
ATOM     14  S   UNL     1       7.127   5.147  17.282  0.00  0.00    +0.000 S 
BRANCH  14  15
ATOM     15  C   UNL     1       6.994   6.956  17.040  0.00  0.00    +0.000 C 
BRANCH  15  17
ATOM     16  N   UNL     1       8.031   9.065  17.818  0.00  0.00    +0.000 N 
ATOM     17  C   UNL     1       7.910   7.707  18.014  0.00  0.00    +0.000 C 
ATOM     18  O   UNL     1       8.456   7.148  18.962  0.00  0.00    +0.000 OA
ATOM     19  H   UNL     1       7.576   9.502  17.022  0.00  0.00    +0.000 HD
BRANCH  16  20
ATOM     20  C   UNL     1       8.862   9.874  18.694  0.00  0.00    +0.000 C 
BRANCH  20  21
ATOM     21  C   UNL     1       9.421  11.092  17.982  0.00  0.00    +0.000 C 
ATOM     22  O   UNL     1      10.574  11.193  17.573  0.00  0.00    +0.000 OA
BRANCH  21  24
ATOM     23  C   UNL     1       8.884  13.356  18.281  0.00  0.00    +0.000 C 
ATOM     24  O   UNL     1       8.463  12.055  17.866  0.00  0.00    +0.000 OA
ENDBRANCH  21  24
ENDBRANCH  20  21
ENDBRANCH  16  20
ENDBRANCH  15  17
ENDBRANCH  14  15
ENDBRANCH   1  14
TORSDOF 6
ENDMDL
MODEL 9
REMARK VINA RESULT:      -6.9      1.675      2.917
REMARK  Name = 
REMARK  8 active torsions:
REMARK  status: ('A' for Active; 'I' for Inactive)
REMARK    1  A    between atoms: C_1  and  O_2
REMARK    2  A    between atoms: O_2  and  C_3
REMARK    3  A    between atoms: C_3  and  C_5
REMARK    4  A    between atoms: C_5  and  N_6
REMARK    5  A    between atoms: C_7  and  C_9
REMARK    6  A    between atoms: C_9  and  S_10
REMARK    7  A    between atoms: S_10  and  C_11
REMARK    8  A    between atoms: C_12  and  C_13
REMARK                            x       y       z     vdW  Elec       q    Type
REMARK                         _______ _______ _______ _____ _____    ______ ____
ROOT
ATOM      1  C   UNL     1       4.050   4.473  18.009  0.00  0.00    +0.000 C 
ATOM      2  C   UNL     1       3.652   3.777  19.088  0.00  0.00    +0.000 C 
ATOM      3  C   UNL     1       3.935   2.323  19.374  0.00  0.00    +0.000 C 
ATOM      4  C   UNL     1       2.829   4.430  20.150  0.00  0.00    +0.000 C 
ATOM      5  O   UNL     1       2.486   3.816  21.155  0.00  0.00    +0.000 OA
ATOM      6  C   UNL     1       2.433   5.836  19.978  0.00  0.00    +0.000 A 
ATOM      7  C   UNL     1       1.701   6.479  20.988  0.00  0.00    +0.000 A 
ATOM      8  C   UNL     1       1.319   7.814  20.837  0.00  0.00    +0.000 A 
ATOM      9  C   UNL     1       1.647   8.501  19.672  0.00  0.00    +0.000 A 
ATOM     10  C   UNL     1       2.372   7.862  18.664  0.00  0.00    +0.000 A 
ATOM     11  C   UNL     1       2.781   6.529  18.827  0.00  0.00    +0.000 A 
ATOM     12  C   UNL     1       3.601   5.887  17.782  0.00  0.00    +0.000 C 
ATOM     13  O   UNL     1       3.892   6.522  16.773  0.00  0.00    +0.000 OA
ENDROOT
BRANCH   1  14
ATOM     14  S   UNL     1       4.983   3.748  16.727  0.00  0.00    +0.000 S 
BRANCH  14  15
ATOM     15  C   UNL     1       6.274   5.001  16.395  0.00  0.00    +0.000 C 
BRANCH  15  17
ATOM     16  N   UNL     1       6.161   3.981  14.142  0.00  0.00    +0.000 N 
ATOM     17  C   UNL     1       6.838   4.843  14.978  0.00  0.00    +0.000 C 
ATOM     18  O   UNL     1       7.799   5.495  14.578  0.00  0.00    +0.000 OA
ATOM     19  H   UNL     1       5.375   3.446  14.499  0.00  0.00    +0.000 HD
BRANCH  16  20
ATOM     20  C   UNL     1       6.602   3.769  12.774  0.00  0.00    +0.000 C 
BRANCH  20  21
ATOM     21  C   UNL     1       5.586   2.986  11.964  0.00  0.00    +0.000 C 
ATOM     22  O   UNL     1       5.712   1.809  11.635  0.00  0.00    +0.000 OA
BRANCH  21  24
ATOM     23  C   UNL     1       3.532   3.135  10.839  0.00  0.00    +0.000 C 
ATOM     24  O   UNL     1       4.519   3.775  11.651  0.00  0.00    +0.000 OA
ENDBRANCH  21  24
ENDBRANCH  20  21
ENDBRANCH  16  20
ENDBRANCH  15  17
ENDBRANCH  14  15
ENDBRANCH   1  14
TORSDOF 6
ENDMDL
