MODEL 1
REMARK VINA RESULT:      -7.4      0.000      0.000
REMARK  Name = 
REMARK  6 active torsions:
REMARK  status: ('A' for Active; 'I' for Inactive)
REMARK    1  A    between atoms: C_1  and  C_2
REMARK    2  A    between atoms: C_2  and  C_3
REMARK    3  A    between atoms: C_3  and  C_4
REMARK    4  A    between atoms: C_3  and  N_25
REMARK    5  A    between atoms: N_12  and  C_13
REMARK    6  A    between atoms: C_15  and  C_16
REMARK                            x       y       z     vdW  Elec       q    Type
REMARK                         _______ _______ _______ _____ _____    ______ ____
ROOT
ATOM      1  C   UNL     1       1.743   8.863  18.310  0.00  0.00    +0.000 C 
ATOM      2  O   UNL     1       2.242   9.028  17.191  0.00  0.00    +0.000 OA
ATOM      3  N   UNL     1       2.090   7.753  19.082  0.00  0.00    +0.000 N 
ATOM      4  C   UNL     1       1.518   7.386  20.378  0.00  0.00    +0.000 C 
ATOM      5  C   UNL     1       1.411   5.863  20.511  0.00  0.00    +0.000 C 
ATOM      6  C   UNL     1       2.685   5.158  20.123  0.00  0.00    +0.000 A 
ATOM      7  N   UNL     1       2.847   3.901  20.592  0.00  0.00    +0.000 NA
ATOM      8  C   UNL     1       3.946   3.226  20.230  0.00  0.00    +0.000 A 
ATOM      9  N   UNL     1       4.010   1.910  20.638  0.00  0.00    +0.000 N 
ATOM     10  C   UNL     1       5.313   1.356  20.920  0.00  0.00    +0.000 C 
ATOM     11  N   UNL     1       4.909   3.744  19.472  0.00  0.00    +0.000 NA
ATOM     12  C   UNL     1       4.730   5.002  19.012  0.00  0.00    +0.000 A 
ATOM     13  C   UNL     1       3.599   5.763  19.283  0.00  0.00    +0.000 A 
ATOM     14  C   UNL     1       3.384   7.147  18.756  0.00  0.00    +0.000 C 
ATOM     15  H   UNL     1       3.303   1.769  21.350  0.00  0.00    +0.000 HD
ENDROOT
BRANCH  12  16
ATOM     16  C   UNL     1       5.827   5.520  18.114  0.00  0.00    +0.000 C 
ATOM     17  O   UNL     1       6.686   6.264  18.588  0.00  0.00    +0.000 OA
ATOM     18  N   UNL     1       5.881   5.152  16.777  0.00  0.00    +0.000 N 
ATOM     19  C   UNL     1       5.006   4.272  16.030  0.00  0.00    +0.000 C 
ATOM     20  C   UNL     1       5.906   3.741  14.928  0.00  0.00    +0.000 C 
ATOM     21  C   UNL     1       6.854   4.897  14.627  0.00  0.00    +0.000 C 
ATOM     22  C   UNL     1       6.891   5.725  15.907  0.00  0.00    +0.000 C 
ENDBRANCH  12  16
BRANCH   1  23
ATOM     23  C   UNL     1       0.814   9.937  18.886  0.00  0.00    +0.000 C 
BRANCH  23  24
ATOM     24  N   UNL     1       1.559  11.200  18.879  0.00  0.00    +0.000 N 
ATOM     25  C   UNL     1       2.373  11.674  17.883  0.00  0.00    +0.000 A 
ATOM     26  C   UNL     1       2.851  12.884  18.319  0.00  0.00    +0.000 A 
ATOM     27  C   UNL     1       2.289  13.048  19.600  0.00  0.00    +0.000 A 
ATOM     28  N   UNL     1       1.507  12.023  19.949  0.00  0.00    +0.000 NA
ENDBRANCH  23  24
BRANCH  23  30
ATOM     29  C   UNL     1      -1.686  10.536  18.874  0.00  0.00    +0.000 C 
ATOM     30  C   UNL     1      -0.478  10.103  18.053  0.00  0.00    +0.000 C 
ENDBRANCH  23  30
ENDBRANCH   1  23
TORSDOF 4
ENDMDL
MODEL 2
REMARK VINA RESULT:      -7.2      2.343      4.705
REMARK  Name = 
REMARK  6 active torsions:
REMARK  status: ('A' for Active; 'I' for Inactive)
REMARK    1  A    between atoms: C_1  and  C_2
REMARK    2  A    between atoms: C_2  and  C_3
REMARK    3  A    between atoms: C_3  and  C_4
REMARK    4  A    between atoms: C_3  and  N_25
REMARK    5  A    between atoms: N_12  and  C_13
REMARK    6  A    between atoms: C_15  and  C_16
REMARK                            x       y       z     vdW  Elec       q    Type
REMARK                         _______ _______ _______ _____ _____    ______ ____
ROOT
ATOM      1  C   UNL     1       0.851   9.280  19.765  0.00  0.00    +0.000 C 
ATOM      2  O   UNL     1       0.371   8.578  20.663  0.00  0.00    +0.000 OA
ATOM      3  N   UNL     1       1.729   8.729  18.831  0.00  0.00    +0.000 N 
ATOM      4  C   UNL     1       2.437   9.453  17.775  0.00  0.00    +0.000 C 
ATOM      5  C   UNL     1       3.835   8.864  17.557  0.00  0.00    +0.000 C 
ATOM      6  C   UNL     1       3.816   7.362  17.436  0.00  0.00    +0.000 A 
ATOM      7  N   UNL     1       4.884   6.791  16.835  0.00  0.00    +0.000 NA
ATOM      8  C   UNL     1       4.924   5.455  16.751  0.00  0.00    +0.000 A 
ATOM      9  N   UNL     1       6.085   4.915  16.235  0.00  0.00    +0.000 N 
ATOM     10  C   UNL     1       5.980   3.685  15.488  0.00  0.00    +0.000 C 
ATOM     11  N   UNL     1       3.948   4.662  17.184  0.00  0.00    +0.000 NA
ATOM     12  C   UNL     1       2.888   5.250  17.782  0.00  0.00    +0.000 A 
ATOM     13  C   UNL     1       2.780   6.623  17.970  0.00  0.00    +0.000 A 
ATOM     14  C   UNL     1       1.620   7.277  18.654  0.00  0.00    +0.000 C 
ATOM     15  H   UNL     1       6.606   5.662  15.790  0.00  0.00    +0.000 HD
ENDROOT
BRANCH  12  16
ATOM     16  C   UNL     1       1.836   4.302  18.302  0.00  0.00    +0.000 C 
ATOM     17  O   UNL     1       0.989   3.863  17.523  0.00  0.00    +0.000 OA
ATOM     18  N   UNL     1       1.829   3.912  19.634  0.00  0.00    +0.000 N 
ATOM     19  C   UNL     1       2.737   4.275  20.702  0.00  0.00    +0.000 C 
ATOM     20  C   UNL     1       2.657   3.086  21.644  0.00  0.00    +0.000 C 
ATOM     21  C   UNL     1       1.218   2.601  21.516  0.00  0.00    +0.000 C 
ATOM     22  C   UNL     1       0.761   3.068  20.138  0.00  0.00    +0.000 C 
ENDBRANCH  12  16
BRANCH   1  23
ATOM     23  C   UNL     1       0.399  10.737  19.626  0.00  0.00    +0.000 C 
BRANCH  23  24
ATOM     24  N   UNL     1      -0.877  10.726  18.905  0.00  0.00    +0.000 N 
ATOM     25  C   UNL     1      -1.179  10.018  17.771  0.00  0.00    +0.000 A 
ATOM     26  C   UNL     1      -2.481  10.322  17.462  0.00  0.00    +0.000 A 
ATOM     27  C   UNL     1      -2.877  11.239  18.454  0.00  0.00    +0.000 A 
ATOM     28  N   UNL     1      -1.903  11.495  19.331  0.00  0.00    +0.000 NA
ENDBRANCH  23  24
BRANCH  23  30
ATOM     29  C   UNL     1       0.778  12.833  21.066  0.00  0.00    +0.000 C 
ATOM     30  C   UNL     1       0.203  11.424  20.997  0.00  0.00    +0.000 C 
ENDBRANCH  23  30
ENDBRANCH   1  23
TORSDOF 4
ENDMDL
MODEL 3
REMARK VINA RESULT:      -7.1      1.296      1.477
REMARK  Name = 
REMARK  6 active torsions:
REMARK  status: ('A' for Active; 'I' for Inactive)
REMARK    1  A    between atoms: C_1  and  C_2
REMARK    2  A    between atoms: C_2  and  C_3
REMARK    3  A    between atoms: C_3  and  C_4
REMARK    4  A    between atoms: C_3  and  N_25
REMARK    5  A    between atoms: N_12  and  C_13
REMARK    6  A    between atoms: C_15  and  C_16
REMARK                            x       y       z     vdW  Elec       q    Type
REMARK                         _______ _______ _______ _____ _____    ______ ____
ROOT
ATOM      1  C   UNL     1       0.747   9.879  18.957  0.00  0.00    +0.000 C 
ATOM      2  O   UNL     1       0.862  10.032  17.735  0.00  0.00    +0.000 OA
ATOM      3  N   UNL     1       1.264   8.740  19.578  0.00  0.00    +0.000 N 
ATOM      4  C   UNL     1       1.126   8.387  20.992  0.00  0.00    +0.000 C 
ATOM      5  C   UNL     1       0.982   6.871  21.159  0.00  0.00    +0.000 C 
ATOM      6  C   UNL     1       2.017   6.102  20.379  0.00  0.00    +0.000 A 
ATOM      7  N   UNL     1       2.251   4.831  20.775  0.00  0.00    +0.000 NA
ATOM      8  C   UNL     1       3.132   4.102  20.076  0.00  0.00    +0.000 A 
ATOM      9  N   UNL     1       3.251   2.778  20.447  0.00  0.00    +0.000 N 
ATOM     10  C   UNL     1       4.540   2.149  20.291  0.00  0.00    +0.000 C 
ATOM     11  N   UNL     1       3.823   4.577  19.044  0.00  0.00    +0.000 NA
ATOM     12  C   UNL     1       3.575   5.849  18.661  0.00  0.00    +0.000 A 
ATOM     13  C   UNL     1       2.639   6.667  19.284  0.00  0.00    +0.000 A 
ATOM     14  C   UNL     1       2.344   8.069  18.849  0.00  0.00    +0.000 C 
ATOM     15  H   UNL     1       2.808   2.666  21.352  0.00  0.00    +0.000 HD
ENDROOT
BRANCH  12  16
ATOM     16  C   UNL     1       4.346   6.318  17.452  0.00  0.00    +0.000 C 
ATOM     17  O   UNL     1       4.607   7.516  17.338  0.00  0.00    +0.000 OA
ATOM     18  N   UNL     1       4.773   5.415  16.489  0.00  0.00    +0.000 N 
ATOM     19  C   UNL     1       4.608   3.976  16.441  0.00  0.00    +0.000 C 
ATOM     20  C   UNL     1       5.796   3.518  15.614  0.00  0.00    +0.000 C 
ATOM     21  C   UNL     1       6.022   4.653  14.620  0.00  0.00    +0.000 C 
ATOM     22  C   UNL     1       5.438   5.891  15.291  0.00  0.00    +0.000 C 
ENDBRANCH  12  16
BRANCH   1  23
ATOM     23  C   UNL     1       0.120  10.994  19.799  0.00  0.00    +0.000 C 
BRANCH  23  24
ATOM     24  N   UNL     1       1.093  12.089  19.859  0.00  0.00    +0.000 N 
ATOM     25  C   UNL     1       1.564  12.834  18.810  0.00  0.00    +0.000 A 
ATOM     26  C   UNL     1       2.452  13.734  19.343  0.00  0.00    +0.000 A 
ATOM     27  C   UNL     1       2.470  13.442  20.721  0.00  0.00    +0.000 A 
ATOM     28  N   UNL     1       1.650  12.437  21.040  0.00  0.00    +0.000 NA
ENDBRANCH  23  24
BRANCH  23  30
ATOM     29  C   UNL     1      -1.949  12.493  20.090  0.00  0.00    +0.000 C 
ATOM     30  C   UNL     1      -1.200  11.519  19.190  0.00  0.00    +0.000 C 
ENDBRANCH  23  30
ENDBRANCH   1  23
TORSDOF 4
ENDMDL
MODEL 4
REMARK VINA RESULT:      -6.9      2.872      8.782
REMARK  Name = 
REMARK  6 active torsions:
REMARK  status: ('A' for Active; 'I' for Inactive)
REMARK    1  A    between atoms: C_1  and  C_2
REMARK    2  A    between atoms: C_2  and  C_3
REMARK    3  A    between atoms: C_3  and  C_4
REMARK    4  A    between atoms: C_3  and  N_25
REMARK    5  A    between atoms: N_12  and  C_13
REMARK    6  A    between atoms: C_15  and  C_16
REMARK                            x       y       z     vdW  Elec       q    Type
REMARK                         _______ _______ _______ _____ _____    ______ ____
ROOT
ATOM      1  C   UNL     1       2.443   7.441  18.971  0.00  0.00    +0.000 C 
ATOM      2  O   UNL     1       2.456   7.775  17.780  0.00  0.00    +0.000 OA
ATOM      3  N   UNL     1       1.687   8.161  19.898  0.00  0.00    +0.000 N 
ATOM      4  C   UNL     1       1.646   7.936  21.344  0.00  0.00    +0.000 C 
ATOM      5  C   UNL     1       1.511   9.265  22.095  0.00  0.00    +0.000 C 
ATOM      6  C   UNL     1       0.425  10.142  21.527  0.00  0.00    +0.000 A 
ATOM      7  N   UNL     1      -0.058  11.108  22.339  0.00  0.00    +0.000 NA
ATOM      8  C   UNL     1      -0.992  11.937  21.853  0.00  0.00    +0.000 A 
ATOM      9  N   UNL     1      -1.369  12.976  22.679  0.00  0.00    +0.000 N 
ATOM     10  C   UNL     1      -2.731  13.445  22.591  0.00  0.00    +0.000 C 
ATOM     11  N   UNL     1      -1.503  11.829  20.630  0.00  0.00    +0.000 NA
ATOM     12  C   UNL     1      -1.009  10.858  19.831  0.00  0.00    +0.000 A 
ATOM     13  C   UNL     1       0.001   9.986  20.222  0.00  0.00    +0.000 A 
ATOM     14  C   UNL     1       0.570   8.924  19.334  0.00  0.00    +0.000 C 
ATOM     15  H   UNL     1      -1.028  12.773  23.611  0.00  0.00    +0.000 HD
ENDROOT
BRANCH  12  16
ATOM     16  C   UNL     1      -1.585  10.816  18.438  0.00  0.00    +0.000 C 
ATOM     17  O   UNL     1      -0.915  10.326  17.528  0.00  0.00    +0.000 OA
ATOM     18  N   UNL     1      -2.859  11.304  18.182  0.00  0.00    +0.000 N 
ATOM     19  C   UNL     1      -3.821  11.884  19.097  0.00  0.00    +0.000 C 
ATOM     20  C   UNL     1      -5.155  11.578  18.437  0.00  0.00    +0.000 C 
ATOM     21  C   UNL     1      -4.856  11.634  16.943  0.00  0.00    +0.000 C 
ATOM     22  C   UNL     1      -3.366  11.334  16.823  0.00  0.00    +0.000 C 
ENDBRANCH  12  16
BRANCH   1  23
ATOM     23  C   UNL     1       3.183   6.172  19.405  0.00  0.00    +0.000 C 
BRANCH  23  24
ATOM     24  N   UNL     1       2.222   5.068  19.339  0.00  0.00    +0.000 N 
ATOM     25  C   UNL     1       1.550   4.493  20.387  0.00  0.00    +0.000 A 
ATOM     26  C   UNL     1       0.767   3.504  19.847  0.00  0.00    +0.000 A 
ATOM     27  C   UNL     1       1.050   3.540  18.467  0.00  0.00    +0.000 A 
ATOM     28  N   UNL     1       1.939   4.485  18.153  0.00  0.00    +0.000 NA
ENDBRANCH  23  24
BRANCH  23  30
ATOM     29  C   UNL     1       5.570   5.235  19.226  0.00  0.00    +0.000 C 
ATOM     30  C   UNL     1       4.388   5.854  18.491  0.00  0.00    +0.000 C 
ENDBRANCH  23  30
ENDBRANCH   1  23
TORSDOF 4
ENDMDL
MODEL 5
REMARK VINA RESULT:      -6.9      2.524      7.628
REMARK  Name = 
REMARK  6 active torsions:
REMARK  status: ('A' for Active; 'I' for Inactive)
REMARK    1  A    between atoms: C_1  and  C_2
REMARK    2  A    between atoms: C_2  and  C_3
REMARK    3  A    between atoms: C_3  and  C_4
REMARK    4  A    between atoms: C_3  and  N_25
REMARK    5  A    between atoms: N_12  and  C_13
REMARK    6  A    between atoms: C_15  and  C_16
REMARK                            x       y       z     vdW  Elec       q    Type
REMARK                         _______ _______ _______ _____ _____    ______ ____
ROOT
ATOM      1  C   UNL     1       3.056   7.383  17.836  0.00  0.00    +0.000 C 
ATOM      2  O   UNL     1       3.332   8.252  17.000  0.00  0.00    +0.000 OA
ATOM      3  N   UNL     1       2.206   7.675  18.904  0.00  0.00    +0.000 N 
ATOM      4  C   UNL     1       1.862   6.778  20.008  0.00  0.00    +0.000 C 
ATOM      5  C   UNL     1       1.709   7.563  21.316  0.00  0.00    +0.000 C 
ATOM      6  C   UNL     1       0.843   8.786  21.157  0.00  0.00    +0.000 A 
ATOM      7  N   UNL     1       0.305   9.295  22.288  0.00  0.00    +0.000 NA
ATOM      8  C   UNL     1      -0.434  10.409  22.193  0.00  0.00    +0.000 A 
ATOM      9  N   UNL     1      -0.865  10.953  23.385  0.00  0.00    +0.000 N 
ATOM     10  C   UNL     1      -2.133  11.643  23.390  0.00  0.00    +0.000 C 
ATOM     11  N   UNL     1      -0.705  11.013  21.039  0.00  0.00    +0.000 NA
ATOM     12  C   UNL     1      -0.158  10.491  19.919  0.00  0.00    +0.000 A 
ATOM     13  C   UNL     1       0.669   9.373  19.921  0.00  0.00    +0.000 A 
ATOM     14  C   UNL     1       1.297   8.805  18.687  0.00  0.00    +0.000 C 
ATOM     15  H   UNL     1      -0.733  10.260  24.111  0.00  0.00    +0.000 HD
ENDROOT
BRANCH  12  16
ATOM     16  C   UNL     1      -0.454  11.246  18.647  0.00  0.00    +0.000 C 
ATOM     17  O   UNL     1       0.317  12.137  18.288  0.00  0.00    +0.000 OA
ATOM     18  N   UNL     1      -1.566  10.934  17.879  0.00  0.00    +0.000 N 
ATOM     19  C   UNL     1      -2.574   9.915  18.093  0.00  0.00    +0.000 C 
ATOM     20  C   UNL     1      -3.062   9.611  16.687  0.00  0.00    +0.000 C 
ATOM     21  C   UNL     1      -2.956  10.944  15.955  0.00  0.00    +0.000 C 
ATOM     22  C   UNL     1      -1.884  11.726  16.705  0.00  0.00    +0.000 C 
ENDBRANCH  12  16
BRANCH   1  23
ATOM     23  C   UNL     1       3.574   5.955  17.637  0.00  0.00    +0.000 C 
BRANCH  23  24
ATOM     24  N   UNL     1       4.970   5.937  18.082  0.00  0.00    +0.000 N 
ATOM     25  C   UNL     1       6.053   6.462  17.426  0.00  0.00    +0.000 A 
ATOM     26  C   UNL     1       7.144   6.207  18.218  0.00  0.00    +0.000 A 
ATOM     27  C   UNL     1       6.626   5.503  19.323  0.00  0.00    +0.000 A 
ATOM     28  N   UNL     1       5.304   5.330  19.242  0.00  0.00    +0.000 NA
ENDBRANCH  23  24
BRANCH  23  30
ATOM     29  C   UNL     1       1.832   4.064  17.604  0.00  0.00    +0.000 C 
ATOM     30  C   UNL     1       2.766   4.919  18.451  0.00  0.00    +0.000 C 
ENDBRANCH  23  30
ENDBRANCH   1  23
TORSDOF 4
ENDMDL
MODEL 6
REMARK VINA RESULT:      -6.8      1.654      2.093
REMARK  Name = 
REMARK  6 active torsions:
REMARK  status: ('A' for Active; 'I' for Inactive)
REMARK    1  A    between atoms: C_1  and  C_2
REMARK    2  A    between atoms: C_2  and  C_3
REMARK    3  A    between atoms: C_3  and  C_4
REMARK    4  A    between atoms: C_3  and  N_25
REMARK    5  A    between atoms: N_12  and  C_13
REMARK    6  A    between atoms: C_15  and  C_16
REMARK                            x       y       z     vdW  Elec       q    Type
REMARK                         _______ _______ _______ _____ _____    ______ ____
ROOT
ATOM      1  C   UNL     1       0.737  10.042  19.056  0.00  0.00    +0.000 C 
ATOM      2  O   UNL     1       0.920  10.154  17.838  0.00  0.00    +0.000 OA
ATOM      3  N   UNL     1       1.158   8.895  19.731  0.00  0.00    +0.000 N 
ATOM      4  C   UNL     1       0.931   8.590  21.144  0.00  0.00    +0.000 C 
ATOM      5  C   UNL     1       0.695   7.089  21.342  0.00  0.00    +0.000 C 
ATOM      6  C   UNL     1       1.724   6.244  20.635  0.00  0.00    +0.000 A 
ATOM      7  N   UNL     1       1.867   4.973  21.075  0.00  0.00    +0.000 NA
ATOM      8  C   UNL     1       2.740   4.179  20.442  0.00  0.00    +0.000 A 
ATOM      9  N   UNL     1       2.767   2.862  20.852  0.00  0.00    +0.000 N 
ATOM     10  C   UNL     1       4.026   2.160  20.777  0.00  0.00    +0.000 C 
ATOM     11  N   UNL     1       3.506   4.586  19.434  0.00  0.00    +0.000 NA
ATOM     12  C   UNL     1       3.349   5.859  19.007  0.00  0.00    +0.000 A 
ATOM     13  C   UNL     1       2.430   6.743  19.560  0.00  0.00    +0.000 A 
ATOM     14  C   UNL     1       2.234   8.146  19.076  0.00  0.00    +0.000 C 
ATOM     15  H   UNL     1       2.275   2.799  21.735  0.00  0.00    +0.000 HD
ENDROOT
BRANCH  12  16
ATOM     16  C   UNL     1       4.204   6.251  17.827  0.00  0.00    +0.000 C 
ATOM     17  O   UNL     1       3.660   6.708  16.821  0.00  0.00    +0.000 OA
ATOM     18  N   UNL     1       5.584   6.119  17.876  0.00  0.00    +0.000 N 
ATOM     19  C   UNL     1       6.424   5.642  18.957  0.00  0.00    +0.000 C 
ATOM     20  C   UNL     1       7.745   6.348  18.707  0.00  0.00    +0.000 C 
ATOM     21  C   UNL     1       7.830   6.459  17.188  0.00  0.00    +0.000 C 
ATOM     22  C   UNL     1       6.385   6.420  16.704  0.00  0.00    +0.000 C 
ENDBRANCH  12  16
BRANCH   1  23
ATOM     23  C   UNL     1       0.132  11.213  19.836  0.00  0.00    +0.000 C 
BRANCH  23  24
ATOM     24  N   UNL     1       1.150  12.266  19.893  0.00  0.00    +0.000 N 
ATOM     25  C   UNL     1       1.599  13.038  18.853  0.00  0.00    +0.000 A 
ATOM     26  C   UNL     1       2.546  13.879  19.378  0.00  0.00    +0.000 A 
ATOM     27  C   UNL     1       2.619  13.527  20.741  0.00  0.00    +0.000 A 
ATOM     28  N   UNL     1       1.776  12.541  21.058  0.00  0.00    +0.000 NA
ENDBRANCH  23  24
BRANCH  23  30
ATOM     29  C   UNL     1      -1.971  12.674  20.067  0.00  0.00    +0.000 C 
ATOM     30  C   UNL     1      -1.143  11.772  19.162  0.00  0.00    +0.000 C 
ENDBRANCH  23  30
ENDBRANCH   1  23
TORSDOF 4
ENDMDL
MODEL 7
REMARK VINA RESULT:      -6.7      1.984      7.651
REMARK  Name = 
REMARK  6 active torsions:
REMARK  status: ('A' for Active; 'I' for Inactive)
REMARK    1  A    between atoms: C_1  and  C_2
REMARK    2  A    between atoms: C_2  and  C_3
REMARK    3  A    between atoms: C_3  and  C_4
REMARK    4  A    between atoms: C_3  and  N_25
REMARK    5  A    between atoms: N_12  and  C_13
REMARK    6  A    between atoms: C_15  and  C_16
REMARK                            x       y       z     vdW  Elec       q    Type
REMARK                         _______ _______ _______ _____ _____    ______ ____
ROOT
ATOM      1  C   UNL     1       3.947   6.092  17.637  0.00  0.00    +0.000 C 
ATOM      2  O   UNL     1       4.675   6.952  17.126  0.00  0.00    +0.000 OA
ATOM      3  N   UNL     1       2.958   6.457  18.553  0.00  0.00    +0.000 N 
ATOM      4  C   UNL     1       2.089   5.546  19.297  0.00  0.00    +0.000 C 
ATOM      5  C   UNL     1       1.816   6.087  20.704  0.00  0.00    +0.000 C 
ATOM      6  C   UNL     1       1.408   7.538  20.696  0.00  0.00    +0.000 A 
ATOM      7  N   UNL     1       0.750   7.987  21.789  0.00  0.00    +0.000 NA
ATOM      8  C   UNL     1       0.413   9.282  21.837  0.00  0.00    +0.000 A 
ATOM      9  N   UNL     1      -0.153   9.717  23.019  0.00  0.00    +0.000 N 
ATOM     10  C   UNL     1      -1.125  10.781  22.947  0.00  0.00    +0.000 C 
ATOM     11  N   UNL     1       0.648  10.140  20.848  0.00  0.00    +0.000 NA
ATOM     12  C   UNL     1       1.307   9.674  19.764  0.00  0.00    +0.000 A 
ATOM     13  C   UNL     1       1.750   8.362  19.643  0.00  0.00    +0.000 A 
ATOM     14  C   UNL     1       2.502   7.847  18.456  0.00  0.00    +0.000 C 
ATOM     15  H   UNL     1      -0.425   8.901  23.553  0.00  0.00    +0.000 HD
ENDROOT
BRANCH  12  16
ATOM     16  C   UNL     1       1.595  10.701  18.697  0.00  0.00    +0.000 C 
ATOM     17  O   UNL     1       1.640  10.343  17.519  0.00  0.00    +0.000 OA
ATOM     18  N   UNL     1       1.788  12.034  19.029  0.00  0.00    +0.000 N 
ATOM     19  C   UNL     1       1.746  12.673  20.329  0.00  0.00    +0.000 C 
ATOM     20  C   UNL     1       1.346  14.101  20.001  0.00  0.00    +0.000 C 
ATOM     21  C   UNL     1       1.987  14.368  18.643  0.00  0.00    +0.000 C 
ATOM     22  C   UNL     1       2.148  12.994  18.002  0.00  0.00    +0.000 C 
ENDBRANCH  12  16
BRANCH   1  23
ATOM     23  C   UNL     1       4.073   4.634  17.185  0.00  0.00    +0.000 C 
BRANCH  23  24
ATOM     24  N   UNL     1       5.212   4.564  16.265  0.00  0.00    +0.000 N 
ATOM     25  C   UNL     1       5.167   4.522  14.896  0.00  0.00    +0.000 A 
ATOM     26  C   UNL     1       6.469   4.460  14.468  0.00  0.00    +0.000 A 
ATOM     27  C   UNL     1       7.232   4.448  15.653  0.00  0.00    +0.000 A 
ATOM     28  N   UNL     1       6.472   4.504  16.749  0.00  0.00    +0.000 NA
ENDBRANCH  23  24
BRANCH  23  30
ATOM     29  C   UNL     1       3.656   2.309  18.200  0.00  0.00    +0.000 C 
ATOM     30  C   UNL     1       4.315   3.671  18.370  0.00  0.00    +0.000 C 
ENDBRANCH  23  30
ENDBRANCH   1  23
TORSDOF 4
ENDMDL
MODEL 8
REMARK VINA RESULT:      -6.7      2.759      8.276
REMARK  Name = 
REMARK  6 active torsions:
REMARK  status: ('A' for Active; 'I' for Inactive)
REMARK    1  A    between atoms: C_1  and  C_2
REMARK    2  A    between atoms: C_2  and  C_3
REMARK    3  A    between atoms: C_3  and  C_4
REMARK    4  A    between atoms: C_3  and  N_25
REMARK    5  A    between atoms: N_12  and  C_13
REMARK    6  A    between atoms: C_15  and  C_16
REMARK                            x       y       z     vdW  Elec       q    Type
REMARK                         _______ _______ _______ _____ _____    ______ ____
ROOT
ATOM      1  C   UNL     1       2.795   7.576  19.062  0.00  0.00    +0.000 C 
ATOM      2  O   UNL     1       3.061   8.126  17.987  0.00  0.00    +0.000 OA
ATOM      3  N   UNL     1       1.926   8.184  19.971  0.00  0.00    +0.000 N 
ATOM      4  C   UNL     1       1.591   7.695  21.309  0.00  0.00    +0.000 C 
ATOM      5  C   UNL     1       1.406   8.864  22.282  0.00  0.00    +0.000 C 
ATOM      6  C   UNL     1       0.514   9.943  21.725  0.00  0.00    +0.000 A 
ATOM      7  N   UNL     1      -0.049  10.784  22.622  0.00  0.00    +0.000 NA
ATOM      8  C   UNL     1      -0.811  11.784  22.161  0.00  0.00    +0.000 A 
ATOM      9  N   UNL     1      -1.268  12.682  23.104  0.00  0.00    +0.000 N 
ATOM     10  C   UNL     1      -2.551  13.302  22.877  0.00  0.00    +0.000 C 
ATOM     11  N   UNL     1      -1.083  11.966  20.872  0.00  0.00    +0.000 NA
ATOM     12  C   UNL     1      -0.512  11.116  19.989  0.00  0.00    +0.000 A 
ATOM     13  C   UNL     1       0.340  10.084  20.363  0.00  0.00    +0.000 A 
ATOM     14  C   UNL     1       0.995   9.155  19.389  0.00  0.00    +0.000 C 
ATOM     15  H   UNL     1      -1.128  12.271  24.020  0.00  0.00    +0.000 HD
ENDROOT
BRANCH  12  16
ATOM     16  C   UNL     1      -0.810  11.401  18.538  0.00  0.00    +0.000 C 
ATOM     17  O   UNL     1      -0.015  12.079  17.887  0.00  0.00    +0.000 OA
ATOM     18  N   UNL     1      -1.953  10.893  17.936  0.00  0.00    +0.000 N 
ATOM     19  C   UNL     1      -2.993  10.055  18.498  0.00  0.00    +0.000 C 
ATOM     20  C   UNL     1      -3.527   9.307  17.289  0.00  0.00    +0.000 C 
ATOM     21  C   UNL     1      -3.389  10.301  16.141  0.00  0.00    +0.000 C 
ATOM     22  C   UNL     1      -2.269  11.246  16.564  0.00  0.00    +0.000 C 
ENDBRANCH  12  16
BRANCH   1  23
ATOM     23  C   UNL     1       3.347   6.176  19.349  0.00  0.00    +0.000 C 
BRANCH  23  24
ATOM     24  N   UNL     1       2.325   5.214  18.928  0.00  0.00    +0.000 N 
ATOM     25  C   UNL     1       1.586   4.388  19.733  0.00  0.00    +0.000 A 
ATOM     26  C   UNL     1       0.765   3.670  18.901  0.00  0.00    +0.000 A 
ATOM     27  C   UNL     1       1.093   4.116  17.606  0.00  0.00    +0.000 A 
ATOM     28  N   UNL     1       2.047   5.051  17.615  0.00  0.00    +0.000 NA
ENDBRANCH  23  24
BRANCH  23  30
ATOM     29  C   UNL     1       5.532   4.826  19.226  0.00  0.00    +0.000 C 
ATOM     30  C   UNL     1       4.659   5.895  18.581  0.00  0.00    +0.000 C 
ENDBRANCH  23  30
ENDBRANCH   1  23
TORSDOF 4
ENDMDL
MODEL 9
REMARK VINA RESULT:      -6.6      2.501      8.007
REMARK  Name = 
REMARK  6 active torsions:
REMARK  status: ('A' for Active; 'I' for Inactive)
REMARK    1  A    between atoms: C_1  and  C_2
REMARK    2  A    between atoms: C_2  and  C_3
REMARK    3  A    between atoms: C_3  and  C_4
REMARK    4  A    between atoms: C_3  and  N_25
REMARK    5  A    between atoms: N_12  and  C_13
REMARK    6  A    between atoms: C_15  and  C_16
REMARK                            x       y       z     vdW  Elec       q    Type
REMARK                         _______ _______ _______ _____ _____    ______ ____
ROOT
ATOM      1  C   UNL     1       2.593   7.797  18.245  0.00  0.00    +0.000 C 
ATOM      2  O   UNL     1       2.829   8.495  17.252  0.00  0.00    +0.000 OA
ATOM      3  N   UNL     1       1.785   8.283  19.274  0.00  0.00    +0.000 N 
ATOM      4  C   UNL     1       1.492   7.607  20.539  0.00  0.00    +0.000 C 
ATOM      5  C   UNL     1       1.387   8.622  21.683  0.00  0.00    +0.000 C 
ATOM      6  C   UNL     1       0.506   9.794  21.336  0.00  0.00    +0.000 A 
ATOM      7  N   UNL     1       0.010  10.505  22.374  0.00  0.00    +0.000 NA
ATOM      8  C   UNL     1      -0.739  11.582  22.103  0.00  0.00    +0.000 A 
ATOM      9  N   UNL     1      -1.125  12.339  23.190  0.00  0.00    +0.000 N 
ATOM     10  C   UNL     1      -2.397  13.018  23.120  0.00  0.00    +0.000 C 
ATOM     11  N   UNL     1      -1.061  11.961  20.870  0.00  0.00    +0.000 NA
ATOM     12  C   UNL     1      -0.556  11.240  19.845  0.00  0.00    +0.000 A 
ATOM     13  C   UNL     1       0.278  10.142  20.020  0.00  0.00    +0.000 A 
ATOM     14  C   UNL     1       0.860   9.354  18.888  0.00  0.00    +0.000 C 
ATOM     15  H   UNL     1      -0.959  11.792  24.027  0.00  0.00    +0.000 HD
ENDROOT
BRANCH  12  16
ATOM     16  C   UNL     1      -0.908  11.746  18.468  0.00  0.00    +0.000 C 
ATOM     17  O   UNL     1      -0.291  12.708  18.009  0.00  0.00    +0.000 OA
ATOM     18  N   UNL     1      -1.898  11.129  17.717  0.00  0.00    +0.000 N 
ATOM     19  C   UNL     1      -2.716   9.978  18.043  0.00  0.00    +0.000 C 
ATOM     20  C   UNL     1      -3.057   9.399  16.681  0.00  0.00    +0.000 C 
ATOM     21  C   UNL     1      -3.151  10.616  15.768  0.00  0.00    +0.000 C 
ATOM     22  C   UNL     1      -2.284  11.680  16.431  0.00  0.00    +0.000 C 
ENDBRANCH  12  16
BRANCH   1  23
ATOM     23  C   UNL     1       3.112   6.357  18.293  0.00  0.00    +0.000 C 
BRANCH  23  24
ATOM     24  N   UNL     1       4.395   6.337  17.584  0.00  0.00    +0.000 N 
ATOM     25  C   UNL     1       5.531   7.030  17.911  0.00  0.00    +0.000 A 
ATOM     26  C   UNL     1       6.470   6.701  16.967  0.00  0.00    +0.000 A 
ATOM     27  C   UNL     1       5.802   5.819  16.094  0.00  0.00    +0.000 A 
ATOM     28  N   UNL     1       4.537   5.599  16.461  0.00  0.00    +0.000 NA
ENDBRANCH  23  24
BRANCH  23  30
ATOM     29  C   UNL     1       3.262   4.342  19.883  0.00  0.00    +0.000 C 
ATOM     30  C   UNL     1       3.323   5.857  19.741  0.00  0.00    +0.000 C 
ENDBRANCH  23  30
ENDBRANCH   1  23
TORSDOF 4
ENDMDL
