MODEL 1
REMARK VINA RESULT:      -7.8      0.000      0.000
REMARK  Name = 
REMARK  8 active torsions:
REMARK  status: ('A' for Active; 'I' for Inactive)
REMARK    1  A    between atoms: C_1  and  C_2
REMARK    2  A    between atoms: C_5  and  C_6
REMARK    3  A    between atoms: C_12  and  C_13
REMARK    4  A    between atoms: N_15  and  N_16
REMARK    5  A    between atoms: C_17  and  C_18
REMARK    6  A    between atoms: C_21  and  N_22
REMARK    7  A    between atoms: N_22  and  C_23
REMARK    8  A    between atoms: N_22  and  C_24
REMARK                            x       y       z     vdW  Elec       q    Type
REMARK                         _______ _______ _______ _____ _____    ______ ____
ROOT
ATOM      1  C   UNL     1       2.120   6.391  20.012  0.00  0.00    +0.000 C 
ATOM      2  O   UNL     1       1.521   5.674  20.807  0.00  0.00    +0.000 OA
ATOM      3  N   UNL     1       1.904   7.754  19.853  0.00  0.00    +0.000 N 
ATOM      4  H   UNL     1       2.364   8.281  19.122  0.00  0.00    +0.000 HD
ENDROOT
BRANCH   1  16
ATOM      5  C   UNL     1       1.469   4.693  17.592  0.00  0.00    +0.000 C 
ATOM      6  C   UNL     1       2.869   5.056  17.994  0.00  0.00    +0.000 A 
ATOM      7  N   UNL     1       3.836   4.568  17.167  0.00  0.00    +0.000 NA
ATOM      8  C   UNL     1       5.138   4.752  17.458  0.00  0.00    +0.000 A 
ATOM      9  C   UNL     1       6.142   4.245  16.621  0.00  0.00    +0.000 A 
ATOM     10  C   UNL     1       5.809   3.545  15.333  0.00  0.00    +0.000 C 
ATOM     11  C   UNL     1       7.499   4.381  16.970  0.00  0.00    +0.000 A 
ATOM     12  C   UNL     1       7.868   5.048  18.132  0.00  0.00    +0.000 A 
ATOM     13  C   UNL     1       6.885   5.593  18.948  0.00  0.00    +0.000 A 
ATOM     14  C   UNL     1       5.527   5.447  18.620  0.00  0.00    +0.000 A 
ATOM     15  C   UNL     1       4.526   5.982  19.442  0.00  0.00    +0.000 A 
ATOM     16  C   UNL     1       3.171   5.808  19.127  0.00  0.00    +0.000 A 
ENDBRANCH   1  16
BRANCH   3  17
ATOM     17  N   UNL     1       1.031   8.406  20.677  0.00  0.00    +0.000 NA
ATOM     18  C   UNL     1       0.718   9.616  20.337  0.00  0.00    +0.000 C 
BRANCH  18  19
ATOM     19  C   UNL     1      -0.202  10.438  21.148  0.00  0.00    +0.000 A 
ATOM     20  C   UNL     1      -0.447  10.131  22.483  0.00  0.00    +0.000 A 
ATOM     21  C   UNL     1      -1.306  10.938  23.244  0.00  0.00    +0.000 A 
ATOM     22  C   UNL     1      -1.952  12.065  22.706  0.00  0.00    +0.000 A 
ATOM     23  C   UNL     1      -1.693  12.329  21.347  0.00  0.00    +0.000 A 
ATOM     24  C   UNL     1      -0.828  11.539  20.573  0.00  0.00    +0.000 A 
BRANCH  22  25
ATOM     25  N   UNL     1      -2.848  12.842  23.433  0.00  0.00    +0.000 N 
ATOM     26  C   UNL     1      -2.460  14.174  23.902  0.00  0.00    +0.000 C 
ATOM     27  C   UNL     1      -3.936  12.239  24.202  0.00  0.00    +0.000 C 
ENDBRANCH  22  25
ENDBRANCH  18  19
ENDBRANCH   3  17
TORSDOF 4
ENDMDL
MODEL 2
REMARK VINA RESULT:      -7.8      6.595      8.795
REMARK  Name = 
REMARK  8 active torsions:
REMARK  status: ('A' for Active; 'I' for Inactive)
REMARK    1  A    between atoms: C_1  and  C_2
REMARK    2  A    between atoms: C_5  and  C_6
REMARK    3  A    between atoms: C_12  and  C_13
REMARK    4  A    between atoms: N_15  and  N_16
REMARK    5  A    between atoms: C_17  and  C_18
REMARK    6  A    between atoms: C_21  and  N_22
REMARK    7  A    between atoms: N_22  and  C_23
REMARK    8  A    between atoms: N_22  and  C_24
REMARK                            x       y       z     vdW  Elec       q    Type
REMARK                         _______ _______ _______ _____ _____    ______ ____
ROOT
ATOM      1  C   UNL     1       6.312   7.020  17.052  0.00  0.00    +0.000 C 
ATOM      2  O   UNL     1       6.063   7.361  15.900  0.00  0.00    +0.000 OA
ATOM      3  N   UNL     1       7.177   7.689  17.909  0.00  0.00    +0.000 N 
ATOM      4  H   UNL     1       7.415   7.315  18.819  0.00  0.00    +0.000 HD
ENDROOT
BRANCH   1  16
ATOM      5  C   UNL     1       7.878   4.811  18.406  0.00  0.00    +0.000 C 
ATOM      6  C   UNL     1       6.383   4.806  18.280  0.00  0.00    +0.000 A 
ATOM      7  N   UNL     1       5.775   3.723  18.843  0.00  0.00    +0.000 NA
ATOM      8  C   UNL     1       4.443   3.554  18.730  0.00  0.00    +0.000 A 
ATOM      9  C   UNL     1       3.808   2.439  19.295  0.00  0.00    +0.000 A 
ATOM     10  C   UNL     1       4.572   1.431  20.108  0.00  0.00    +0.000 C 
ATOM     11  C   UNL     1       2.428   2.235  19.111  0.00  0.00    +0.000 A 
ATOM     12  C   UNL     1       1.665   3.150  18.397  0.00  0.00    +0.000 A 
ATOM     13  C   UNL     1       2.274   4.283  17.869  0.00  0.00    +0.000 A 
ATOM     14  C   UNL     1       3.654   4.488  18.029  0.00  0.00    +0.000 A 
ATOM     15  C   UNL     1       4.281   5.619  17.491  0.00  0.00    +0.000 A 
ATOM     16  C   UNL     1       5.664   5.805  17.627  0.00  0.00    +0.000 A 
ENDBRANCH   1  16
BRANCH   3  17
ATOM     17  N   UNL     1       7.752   8.864  17.515  0.00  0.00    +0.000 NA
ATOM     18  C   UNL     1       8.400   9.517  18.427  0.00  0.00    +0.000 C 
BRANCH  18  19
ATOM     19  C   UNL     1       9.053  10.809  18.140  0.00  0.00    +0.000 A 
ATOM     20  C   UNL     1      10.424  10.971  18.313  0.00  0.00    +0.000 A 
ATOM     21  C   UNL     1      11.030  12.201  18.013  0.00  0.00    +0.000 A 
ATOM     22  C   UNL     1      10.299  13.305  17.540  0.00  0.00    +0.000 A 
ATOM     23  C   UNL     1       8.911  13.106  17.398  0.00  0.00    +0.000 A 
ATOM     24  C   UNL     1       8.290  11.879  17.683  0.00  0.00    +0.000 A 
BRANCH  22  25
ATOM     25  N   UNL     1      10.877  14.544  17.291  0.00  0.00    +0.000 N 
ATOM     26  C   UNL     1      12.333  14.677  17.205  0.00  0.00    +0.000 C 
ATOM     27  C   UNL     1      10.190  15.792  17.624  0.00  0.00    +0.000 C 
ENDBRANCH  22  25
ENDBRANCH  18  19
ENDBRANCH   3  17
TORSDOF 4
ENDMDL
MODEL 3
REMARK VINA RESULT:      -7.7      0.262      1.152
REMARK  Name = 
REMARK  8 active torsions:
REMARK  status: ('A' for Active; 'I' for Inactive)
REMARK    1  A    between atoms: C_1  and  C_2
REMARK    2  A    between atoms: C_5  and  C_6
REMARK    3  A    between atoms: C_12  and  C_13
REMARK    4  A    between atoms: N_15  and  N_16
REMARK    5  A    between atoms: C_17  and  C_18
REMARK    6  A    between atoms: C_21  and  N_22
REMARK    7  A    between atoms: N_22  and  C_23
REMARK    8  A    between atoms: N_22  and  C_24
REMARK                            x       y       z     vdW  Elec       q    Type
REMARK                         _______ _______ _______ _____ _____    ______ ____
ROOT
ATOM      1  C   UNL     1       2.153   6.430  20.011  0.00  0.00    +0.000 C 
ATOM      2  O   UNL     1       1.591   5.732  20.849  0.00  0.00    +0.000 OA
ATOM      3  N   UNL     1       1.898   7.780  19.802  0.00  0.00    +0.000 N 
ATOM      4  H   UNL     1       2.326   8.288  19.038  0.00  0.00    +0.000 HD
ENDROOT
BRANCH   1  16
ATOM      5  C   UNL     1       1.484   4.713  17.609  0.00  0.00    +0.000 C 
ATOM      6  C   UNL     1       2.886   5.076  18.000  0.00  0.00    +0.000 A 
ATOM      7  N   UNL     1       3.848   4.579  17.172  0.00  0.00    +0.000 NA
ATOM      8  C   UNL     1       5.152   4.762  17.453  0.00  0.00    +0.000 A 
ATOM      9  C   UNL     1       6.150   4.246  16.616  0.00  0.00    +0.000 A 
ATOM     10  C   UNL     1       5.807   3.535  15.335  0.00  0.00    +0.000 C 
ATOM     11  C   UNL     1       7.509   4.382  16.956  0.00  0.00    +0.000 A 
ATOM     12  C   UNL     1       7.886   5.058  18.109  0.00  0.00    +0.000 A 
ATOM     13  C   UNL     1       6.909   5.612  18.927  0.00  0.00    +0.000 A 
ATOM     14  C   UNL     1       5.549   5.467  18.608  0.00  0.00    +0.000 A 
ATOM     15  C   UNL     1       4.554   6.011  19.431  0.00  0.00    +0.000 A 
ATOM     16  C   UNL     1       3.197   5.838  19.125  0.00  0.00    +0.000 A 
ENDBRANCH   1  16
BRANCH   3  17
ATOM     17  N   UNL     1       1.027   8.443  20.619  0.00  0.00    +0.000 NA
ATOM     18  C   UNL     1       0.678   9.631  20.240  0.00  0.00    +0.000 C 
BRANCH  18  19
ATOM     19  C   UNL     1      -0.243  10.463  21.039  0.00  0.00    +0.000 A 
ATOM     20  C   UNL     1      -0.986  11.479  20.447  0.00  0.00    +0.000 A 
ATOM     21  C   UNL     1      -1.873  12.244  21.219  0.00  0.00    +0.000 A 
ATOM     22  C   UNL     1      -2.046  12.031  22.598  0.00  0.00    +0.000 A 
ATOM     23  C   UNL     1      -1.260  11.007  23.163  0.00  0.00    +0.000 A 
ATOM     24  C   UNL     1      -0.376  10.225  22.403  0.00  0.00    +0.000 A 
BRANCH  22  25
ATOM     25  N   UNL     1      -2.880  12.816  23.386  0.00  0.00    +0.000 N 
ATOM     26  C   UNL     1      -4.329  12.799  23.174  0.00  0.00    +0.000 C 
ATOM     27  C   UNL     1      -2.395  14.029  24.044  0.00  0.00    +0.000 C 
ENDBRANCH  22  25
ENDBRANCH  18  19
ENDBRANCH   3  17
TORSDOF 4
ENDMDL
MODEL 4
REMARK VINA RESULT:      -7.6      6.981      9.013
REMARK  Name = 
REMARK  8 active torsions:
REMARK  status: ('A' for Active; 'I' for Inactive)
REMARK    1  A    between atoms: C_1  and  C_2
REMARK    2  A    between atoms: C_5  and  C_6
REMARK    3  A    between atoms: C_12  and  C_13
REMARK    4  A    between atoms: N_15  and  N_16
REMARK    5  A    between atoms: C_17  and  C_18
REMARK    6  A    between atoms: C_21  and  N_22
REMARK    7  A    between atoms: N_22  and  C_23
REMARK    8  A    between atoms: N_22  and  C_24
REMARK                            x       y       z     vdW  Elec       q    Type
REMARK                         _______ _______ _______ _____ _____    ______ ____
ROOT
ATOM      1  C   UNL     1       6.772   7.370  17.499  0.00  0.00    +0.000 C 
ATOM      2  O   UNL     1       6.394   7.949  16.486  0.00  0.00    +0.000 OA
ATOM      3  N   UNL     1       7.818   7.792  18.311  0.00  0.00    +0.000 N 
ATOM      4  H   UNL     1       8.146   7.230  19.086  0.00  0.00    +0.000 HD
ENDROOT
BRANCH   1  16
ATOM      5  C   UNL     1       7.885   5.579  19.672  0.00  0.00    +0.000 C 
ATOM      6  C   UNL     1       6.588   5.312  18.964  0.00  0.00    +0.000 A 
ATOM      7  N   UNL     1       5.934   4.195  19.391  0.00  0.00    +0.000 NA
ATOM      8  C   UNL     1       4.799   3.796  18.785  0.00  0.00    +0.000 A 
ATOM      9  C   UNL     1       4.124   2.643  19.207  0.00  0.00    +0.000 A 
ATOM     10  C   UNL     1       4.595   1.850  20.395  0.00  0.00    +0.000 C 
ATOM     11  C   UNL     1       2.979   2.195  18.523  0.00  0.00    +0.000 A 
ATOM     12  C   UNL     1       2.478   2.906  17.439  0.00  0.00    +0.000 A 
ATOM     13  C   UNL     1       3.112   4.075  17.037  0.00  0.00    +0.000 A 
ATOM     14  C   UNL     1       4.267   4.521  17.700  0.00  0.00    +0.000 A 
ATOM     15  C   UNL     1       4.922   5.692  17.296  0.00  0.00    +0.000 A 
ATOM     16  C   UNL     1       6.092   6.117  17.940  0.00  0.00    +0.000 A 
ENDBRANCH   1  16
BRANCH   3  17
ATOM     17  N   UNL     1       8.448   8.975  18.050  0.00  0.00    +0.000 NA
ATOM     18  C   UNL     1       9.004   9.563  19.062  0.00  0.00    +0.000 C 
BRANCH  18  19
ATOM     19  C   UNL     1       9.702  10.856  18.922  0.00  0.00    +0.000 A 
ATOM     20  C   UNL     1       9.615  11.592  17.746  0.00  0.00    +0.000 A 
ATOM     21  C   UNL     1      10.267  12.830  17.640  0.00  0.00    +0.000 A 
ATOM     22  C   UNL     1      11.028  13.371  18.692  0.00  0.00    +0.000 A 
ATOM     23  C   UNL     1      11.108  12.585  19.858  0.00  0.00    +0.000 A 
ATOM     24  C   UNL     1      10.453  11.349  19.985  0.00  0.00    +0.000 A 
BRANCH  22  25
ATOM     25  N   UNL     1      11.724  14.570  18.583  0.00  0.00    +0.000 N 
ATOM     26  C   UNL     1      11.653  15.566  19.654  0.00  0.00    +0.000 C 
ATOM     27  C   UNL     1      12.090  15.129  17.281  0.00  0.00    +0.000 C 
ENDBRANCH  22  25
ENDBRANCH  18  19
ENDBRANCH   3  17
TORSDOF 4
ENDMDL
MODEL 5
REMARK VINA RESULT:      -7.6      5.769      8.924
REMARK  Name = 
REMARK  8 active torsions:
REMARK  status: ('A' for Active; 'I' for Inactive)
REMARK    1  A    between atoms: C_1  and  C_2
REMARK    2  A    between atoms: C_5  and  C_6
REMARK    3  A    between atoms: C_12  and  C_13
REMARK    4  A    between atoms: N_15  and  N_16
REMARK    5  A    between atoms: C_17  and  C_18
REMARK    6  A    between atoms: C_21  and  N_22
REMARK    7  A    between atoms: N_22  and  C_23
REMARK    8  A    between atoms: N_22  and  C_24
REMARK                            x       y       z     vdW  Elec       q    Type
REMARK                         _______ _______ _______ _____ _____    ______ ____
ROOT
ATOM      1  C   UNL     1       6.568   6.997  17.503  0.00  0.00    +0.000 C 
ATOM      2  O   UNL     1       6.398   7.691  16.507  0.00  0.00    +0.000 OA
ATOM      3  N   UNL     1       7.643   7.111  18.377  0.00  0.00    +0.000 N 
ATOM      4  H   UNL     1       7.782   6.455  19.135  0.00  0.00    +0.000 HD
ENDROOT
BRANCH   1  16
ATOM      5  C   UNL     1       6.597   4.246  16.237  0.00  0.00    +0.000 C 
ATOM      6  C   UNL     1       5.614   4.660  17.294  0.00  0.00    +0.000 A 
ATOM      7  N   UNL     1       4.733   3.684  17.655  0.00  0.00    +0.000 NA
ATOM      8  C   UNL     1       3.747   3.947  18.535  0.00  0.00    +0.000 A 
ATOM      9  C   UNL     1       2.829   2.956  18.905  0.00  0.00    +0.000 A 
ATOM     10  C   UNL     1       2.950   1.545  18.396  0.00  0.00    +0.000 C 
ATOM     11  C   UNL     1       1.760   3.259  19.769  0.00  0.00    +0.000 A 
ATOM     12  C   UNL     1       1.617   4.536  20.297  0.00  0.00    +0.000 A 
ATOM     13  C   UNL     1       2.546   5.517  19.973  0.00  0.00    +0.000 A 
ATOM     14  C   UNL     1       3.605   5.232  19.096  0.00  0.00    +0.000 A 
ATOM     15  C   UNL     1       4.540   6.217  18.752  0.00  0.00    +0.000 A 
ATOM     16  C   UNL     1       5.578   5.936  17.852  0.00  0.00    +0.000 A 
ENDBRANCH   1  16
BRANCH   3  17
ATOM     17  N   UNL     1       8.558   8.110  18.203  0.00  0.00    +0.000 NA
ATOM     18  C   UNL     1       8.414   9.156  18.953  0.00  0.00    +0.000 C 
BRANCH  18  19
ATOM     19  C   UNL     1       9.323  10.315  18.855  0.00  0.00    +0.000 A 
ATOM     20  C   UNL     1       9.576  10.923  17.630  0.00  0.00    +0.000 A 
ATOM     21  C   UNL     1      10.426  12.038  17.560  0.00  0.00    +0.000 A 
ATOM     22  C   UNL     1      11.053  12.578  18.697  0.00  0.00    +0.000 A 
ATOM     23  C   UNL     1      10.787  11.920  19.914  0.00  0.00    +0.000 A 
ATOM     24  C   UNL     1       9.931  10.810  20.004  0.00  0.00    +0.000 A 
BRANCH  22  25
ATOM     25  N   UNL     1      11.939  13.648  18.636  0.00  0.00    +0.000 N 
ATOM     26  C   UNL     1      12.091  14.548  19.781  0.00  0.00    +0.000 C 
ATOM     27  C   UNL     1      12.333  14.244  17.359  0.00  0.00    +0.000 C 
ENDBRANCH  22  25
ENDBRANCH  18  19
ENDBRANCH   3  17
TORSDOF 4
ENDMDL
MODEL 6
REMARK VINA RESULT:      -7.6      5.919      8.804
REMARK  Name = 
REMARK  8 active torsions:
REMARK  status: ('A' for Active; 'I' for Inactive)
REMARK    1  A    between atoms: C_1  and  C_2
REMARK    2  A    between atoms: C_5  and  C_6
REMARK    3  A    between atoms: C_12  and  C_13
REMARK    4  A    between atoms: N_15  and  N_16
REMARK    5  A    between atoms: C_17  and  C_18
REMARK    6  A    between atoms: C_21  and  N_22
REMARK    7  A    between atoms: N_22  and  C_23
REMARK    8  A    between atoms: N_22  and  C_24
REMARK                            x       y       z     vdW  Elec       q    Type
REMARK                         _______ _______ _______ _____ _____    ______ ____
ROOT
ATOM      1  C   UNL     1       6.230   7.208  17.383  0.00  0.00    +0.000 C 
ATOM      2  O   UNL     1       5.811   8.014  16.560  0.00  0.00    +0.000 OA
ATOM      3  N   UNL     1       7.434   7.323  18.067  0.00  0.00    +0.000 N 
ATOM      4  H   UNL     1       7.773   6.586  18.670  0.00  0.00    +0.000 HD
ENDROOT
BRANCH   1  16
ATOM      5  C   UNL     1       7.037   4.419  16.523  0.00  0.00    +0.000 C 
ATOM      6  C   UNL     1       5.817   4.709  17.349  0.00  0.00    +0.000 A 
ATOM      7  N   UNL     1       5.099   3.604  17.698  0.00  0.00    +0.000 NA
ATOM      8  C   UNL     1       3.939   3.729  18.371  0.00  0.00    +0.000 A 
ATOM      9  C   UNL     1       3.186   2.602  18.726  0.00  0.00    +0.000 A 
ATOM     10  C   UNL     1       3.678   1.210  18.439  0.00  0.00    +0.000 C 
ATOM     11  C   UNL     1       1.941   2.747  19.365  0.00  0.00    +0.000 A 
ATOM     12  C   UNL     1       1.452   4.007  19.685  0.00  0.00    +0.000 A 
ATOM     13  C   UNL     1       2.208   5.132  19.378  0.00  0.00    +0.000 A 
ATOM     14  C   UNL     1       3.443   5.001  18.723  0.00  0.00    +0.000 A 
ATOM     15  C   UNL     1       4.208   6.128  18.397  0.00  0.00    +0.000 A 
ATOM     16  C   UNL     1       5.426   5.995  17.716  0.00  0.00    +0.000 A 
ENDBRANCH   1  16
BRANCH   3  17
ATOM     17  N   UNL     1       8.203   8.441  17.907  0.00  0.00    +0.000 NA
ATOM     18  C   UNL     1       8.569   9.044  18.993  0.00  0.00    +0.000 C 
BRANCH  18  19
ATOM     19  C   UNL     1       9.388  10.272  18.961  0.00  0.00    +0.000 A 
ATOM     20  C   UNL     1       9.706  10.949  20.134  0.00  0.00    +0.000 A 
ATOM     21  C   UNL     1      10.505  12.102  20.086  0.00  0.00    +0.000 A 
ATOM     22  C   UNL     1      11.005  12.621  18.879  0.00  0.00    +0.000 A 
ATOM     23  C   UNL     1      10.642  11.918  17.713  0.00  0.00    +0.000 A 
ATOM     24  C   UNL     1       9.853  10.757  17.743  0.00  0.00    +0.000 A 
BRANCH  22  25
ATOM     25  N   UNL     1      11.751  13.792  18.810  0.00  0.00    +0.000 N 
ATOM     26  C   UNL     1      11.551  14.856  19.797  0.00  0.00    +0.000 C 
ATOM     27  C   UNL     1      12.333  14.258  17.551  0.00  0.00    +0.000 C 
ENDBRANCH  22  25
ENDBRANCH  18  19
ENDBRANCH   3  17
TORSDOF 4
ENDMDL
MODEL 7
REMARK VINA RESULT:      -7.3      6.473      9.076
REMARK  Name = 
REMARK  8 active torsions:
REMARK  status: ('A' for Active; 'I' for Inactive)
REMARK    1  A    between atoms: C_1  and  C_2
REMARK    2  A    between atoms: C_5  and  C_6
REMARK    3  A    between atoms: C_12  and  C_13
REMARK    4  A    between atoms: N_15  and  N_16
REMARK    5  A    between atoms: C_17  and  C_18
REMARK    6  A    between atoms: C_21  and  N_22
REMARK    7  A    between atoms: N_22  and  C_23
REMARK    8  A    between atoms: N_22  and  C_24
REMARK                            x       y       z     vdW  Elec       q    Type
REMARK                         _______ _______ _______ _____ _____    ______ ____
ROOT
ATOM      1  C   UNL     1       7.430   7.215  17.437  0.00  0.00    +0.000 C 
ATOM      2  O   UNL     1       7.814   7.270  16.274  0.00  0.00    +0.000 OA
ATOM      3  N   UNL     1       7.804   8.102  18.439  0.00  0.00    +0.000 N 
ATOM      4  H   UNL     1       7.527   7.960  19.402  0.00  0.00    +0.000 HD
ENDROOT
BRANCH   1  16
ATOM      5  C   UNL     1       8.345   4.701  18.854  0.00  0.00    +0.000 C 
ATOM      6  C   UNL     1       6.907   4.998  18.544  0.00  0.00    +0.000 A 
ATOM      7  N   UNL     1       6.032   4.043  18.968  0.00  0.00    +0.000 NA
ATOM      8  C   UNL     1       4.719   4.146  18.684  0.00  0.00    +0.000 A 
ATOM      9  C   UNL     1       3.811   3.166  19.105  0.00  0.00    +0.000 A 
ATOM     10  C   UNL     1       4.251   2.002  19.952  0.00  0.00    +0.000 C 
ATOM     11  C   UNL     1       2.454   3.246  18.742  0.00  0.00    +0.000 A 
ATOM     12  C   UNL     1       1.984   4.315  17.990  0.00  0.00    +0.000 A 
ATOM     13  C   UNL     1       2.865   5.318  17.603  0.00  0.00    +0.000 A 
ATOM     14  C   UNL     1       4.225   5.238  17.942  0.00  0.00    +0.000 A 
ATOM     15  C   UNL     1       5.125   6.237  17.547  0.00  0.00    +0.000 A 
ATOM     16  C   UNL     1       6.488   6.138  17.862  0.00  0.00    +0.000 A 
ENDBRANCH   1  16
BRANCH   3  17
ATOM     17  N   UNL     1       8.588   9.178  18.138  0.00  0.00    +0.000 NA
ATOM     18  C   UNL     1       8.644  10.114  19.032  0.00  0.00    +0.000 C 
BRANCH  18  19
ATOM     19  C   UNL     1       9.441  11.339  18.826  0.00  0.00    +0.000 A 
ATOM     20  C   UNL     1      10.743  11.434  19.306  0.00  0.00    +0.000 A 
ATOM     21  C   UNL     1      11.493  12.599  19.080  0.00  0.00    +0.000 A 
ATOM     22  C   UNL     1      10.975  13.703  18.380  0.00  0.00    +0.000 A 
ATOM     23  C   UNL     1       9.646  13.574  17.929  0.00  0.00    +0.000 A 
ATOM     24  C   UNL     1       8.885  12.412  18.137  0.00  0.00    +0.000 A 
BRANCH  22  25
ATOM     25  N   UNL     1      11.686  14.883  18.196  0.00  0.00    +0.000 N 
ATOM     26  C   UNL     1      12.331  15.165  16.912  0.00  0.00    +0.000 C 
ATOM     27  C   UNL     1      12.274  15.608  19.323  0.00  0.00    +0.000 C 
ENDBRANCH  22  25
ENDBRANCH  18  19
ENDBRANCH   3  17
TORSDOF 4
ENDMDL
MODEL 8
REMARK VINA RESULT:      -7.3      5.833      8.735
REMARK  Name = 
REMARK  8 active torsions:
REMARK  status: ('A' for Active; 'I' for Inactive)
REMARK    1  A    between atoms: C_1  and  C_2
REMARK    2  A    between atoms: C_5  and  C_6
REMARK    3  A    between atoms: C_12  and  C_13
REMARK    4  A    between atoms: N_15  and  N_16
REMARK    5  A    between atoms: C_17  and  C_18
REMARK    6  A    between atoms: C_21  and  N_22
REMARK    7  A    between atoms: N_22  and  C_23
REMARK    8  A    between atoms: N_22  and  C_24
REMARK                            x       y       z     vdW  Elec       q    Type
REMARK                         _______ _______ _______ _____ _____    ______ ____
ROOT
ATOM      1  C   UNL     1       6.390   6.948  17.164  0.00  0.00    +0.000 C 
ATOM      2  O   UNL     1       6.223   7.489  16.076  0.00  0.00    +0.000 OA
ATOM      3  N   UNL     1       7.394   7.272  18.067  0.00  0.00    +0.000 N 
ATOM      4  H   UNL     1       7.540   6.734  18.912  0.00  0.00    +0.000 HD
ENDROOT
BRANCH   1  16
ATOM      5  C   UNL     1       6.608   4.111  16.128  0.00  0.00    +0.000 C 
ATOM      6  C   UNL     1       5.596   4.542  17.149  0.00  0.00    +0.000 A 
ATOM      7  N   UNL     1       4.782   3.542  17.591  0.00  0.00    +0.000 NA
ATOM      8  C   UNL     1       3.778   3.809  18.448  0.00  0.00    +0.000 A 
ATOM      9  C   UNL     1       2.927   2.792  18.901  0.00  0.00    +0.000 A 
ATOM     10  C   UNL     1       3.146   1.356  18.510  0.00  0.00    +0.000 C 
ATOM     11  C   UNL     1       1.838   3.092  19.740  0.00  0.00    +0.000 A 
ATOM     12  C   UNL     1       1.607   4.396  20.161  0.00  0.00    +0.000 A 
ATOM     13  C   UNL     1       2.468   5.407  19.756  0.00  0.00    +0.000 A 
ATOM     14  C   UNL     1       3.547   5.123  18.902  0.00  0.00    +0.000 A 
ATOM     15  C   UNL     1       4.415   6.137  18.477  0.00  0.00    +0.000 A 
ATOM     16  C   UNL     1       5.472   5.855  17.601  0.00  0.00    +0.000 A 
ENDBRANCH   1  16
BRANCH   3  17
ATOM     17  N   UNL     1       8.231   8.320  17.807  0.00  0.00    +0.000 NA
ATOM     18  C   UNL     1       7.852   9.478  18.246  0.00  0.00    +0.000 C 
BRANCH  18  19
ATOM     19  C   UNL     1       8.654  10.696  18.019  0.00  0.00    +0.000 A 
ATOM     20  C   UNL     1       8.043  11.911  17.732  0.00  0.00    +0.000 A 
ATOM     21  C   UNL     1       8.822  13.063  17.543  0.00  0.00    +0.000 A 
ATOM     22  C   UNL     1      10.225  13.044  17.625  0.00  0.00    +0.000 A 
ATOM     23  C   UNL     1      10.806  11.790  17.897  0.00  0.00    +0.000 A 
ATOM     24  C   UNL     1      10.042  10.630  18.100  0.00  0.00    +0.000 A 
BRANCH  22  25
ATOM     25  N   UNL     1      11.012  14.165  17.386  0.00  0.00    +0.000 N 
ATOM     26  C   UNL     1      10.394  15.484  17.230  0.00  0.00    +0.000 C 
ATOM     27  C   UNL     1      12.333  14.057  16.767  0.00  0.00    +0.000 C 
ENDBRANCH  22  25
ENDBRANCH  18  19
ENDBRANCH   3  17
TORSDOF 4
ENDMDL
MODEL 9
REMARK VINA RESULT:      -7.3      1.893     10.658
REMARK  Name = 
REMARK  8 active torsions:
REMARK  status: ('A' for Active; 'I' for Inactive)
REMARK    1  A    between atoms: C_1  and  C_2
REMARK    2  A    between atoms: C_5  and  C_6
REMARK    3  A    between atoms: C_12  and  C_13
REMARK    4  A    between atoms: N_15  and  N_16
REMARK    5  A    between atoms: C_17  and  C_18
REMARK    6  A    between atoms: C_21  and  N_22
REMARK    7  A    between atoms: N_22  and  C_23
REMARK    8  A    between atoms: N_22  and  C_24
REMARK                            x       y       z     vdW  Elec       q    Type
REMARK                         _______ _______ _______ _____ _____    ______ ____
ROOT
ATOM      1  C   UNL     1       0.560  10.864  20.699  0.00  0.00    +0.000 C 
ATOM      2  O   UNL     1       1.664  11.339  20.942  0.00  0.00    +0.000 OA
ATOM      3  N   UNL     1       0.317   9.844  19.787  0.00  0.00    +0.000 N 
ATOM      4  H   UNL     1      -0.624   9.550  19.560  0.00  0.00    +0.000 HD
ENDROOT
BRANCH   1  16
ATOM      5  C   UNL     1      -0.375   9.764  23.361  0.00  0.00    +0.000 C 
ATOM      6  C   UNL     1      -1.056  10.896  22.650  0.00  0.00    +0.000 A 
ATOM      7  N   UNL     1      -2.134  11.407  23.310  0.00  0.00    +0.000 NA
ATOM      8  C   UNL     1      -2.884  12.373  22.745  0.00  0.00    +0.000 A 
ATOM      9  C   UNL     1      -4.000  12.899  23.409  0.00  0.00    +0.000 A 
ATOM     10  C   UNL     1      -4.361  12.463  24.803  0.00  0.00    +0.000 C 
ATOM     11  C   UNL     1      -4.819  13.857  22.782  0.00  0.00    +0.000 A 
ATOM     12  C   UNL     1      -4.516  14.322  21.508  0.00  0.00    +0.000 A 
ATOM     13  C   UNL     1      -3.387  13.842  20.856  0.00  0.00    +0.000 A 
ATOM     14  C   UNL     1      -2.574  12.872  21.464  0.00  0.00    +0.000 A 
ATOM     15  C   UNL     1      -1.440  12.371  20.811  0.00  0.00    +0.000 A 
ATOM     16  C   UNL     1      -0.648  11.381  21.409  0.00  0.00    +0.000 A 
ENDBRANCH   1  16
BRANCH   3  17
ATOM     17  N   UNL     1       1.362   9.237  19.151  0.00  0.00    +0.000 NA
ATOM     18  C   UNL     1       1.589   8.003  19.473  0.00  0.00    +0.000 C 
BRANCH  18  19
ATOM     19  C   UNL     1       2.697   7.234  18.874  0.00  0.00    +0.000 A 
ATOM     20  C   UNL     1       3.345   7.688  17.730  0.00  0.00    +0.000 A 
ATOM     21  C   UNL     1       4.412   6.955  17.189  0.00  0.00    +0.000 A 
ATOM     22  C   UNL     1       4.864   5.751  17.759  0.00  0.00    +0.000 A 
ATOM     23  C   UNL     1       4.168   5.316  18.904  0.00  0.00    +0.000 A 
ATOM     24  C   UNL     1       3.106   6.043  19.465  0.00  0.00    +0.000 A 
BRANCH  22  25
ATOM     25  N   UNL     1       5.884   4.987  17.203  0.00  0.00    +0.000 N 
ATOM     26  C   UNL     1       5.574   3.928  16.240  0.00  0.00    +0.000 C 
ATOM     27  C   UNL     1       7.166   4.807  17.885  0.00  0.00    +0.000 C 
ENDBRANCH  22  25
ENDBRANCH  18  19
ENDBRANCH   3  17
TORSDOF 4
ENDMDL
