MODEL 1
REMARK VINA RESULT:      -9.1      0.000      0.000
REMARK  Name = 
REMARK  10 active torsions:
REMARK  status: ('A' for Active; 'I' for Inactive)
REMARK    1  A    between atoms: C_1  and  C_2
REMARK    2  A    between atoms: C_2  and  C_3
REMARK    3  A    between atoms: C_2  and  C_4
REMARK    4  A    between atoms: C_2  and  C_5
REMARK    5  A    between atoms: C_8  and  C_9
REMARK    6  A    between atoms: C_9  and  C_10
REMARK    7  A    between atoms: C_10  and  N_11
REMARK    8  A    between atoms: C_17  and  S_18
REMARK    9  A    between atoms: S_18  and  N_21
REMARK   10  A    between atoms: N_21  and  C_22
REMARK                            x       y       z     vdW  Elec       q    Type
REMARK                         _______ _______ _______ _____ _____    ______ ____
ROOT
ATOM      1  N   UNL     1       0.625  10.156  21.343  0.00  0.00    +0.000 NA
ATOM      2  C   UNL     1       0.027  10.171  20.000  0.00  0.00    +0.000 C 
ATOM      3  C   UNL     1       1.131   9.962  18.950  0.00  0.00    +0.000 C 
ATOM      4  C   UNL     1       1.758   8.606  19.146  0.00  0.00    +0.000 A 
ATOM      5  C   UNL     1       2.347   7.945  18.064  0.00  0.00    +0.000 A 
ATOM      6  C   UNL     1       2.549   6.574  18.123  0.00  0.00    +0.000 A 
ATOM      7  C   UNL     1       2.130   5.866  19.253  0.00  0.00    +0.000 A 
ATOM      8  C   UNL     1       1.705   6.559  20.415  0.00  0.00    +0.000 A 
ATOM      9  C   UNL     1       1.583   7.967  20.388  0.00  0.00    +0.000 A 
ATOM     10  C   UNL     1       1.271   8.842  21.621  0.00  0.00    +0.000 C 
ENDROOT
BRANCH   7  11
ATOM     11  S   UNL     1       1.777   4.125  18.996  0.00  0.00    +0.000 S 
ATOM     12  O   UNL     1       0.957   3.683  20.106  0.00  0.00    +0.000 OA
ATOM     13  O   UNL     1       1.305   3.954  17.636  0.00  0.00    +0.000 OA
BRANCH  11  14
ATOM     14  N   UNL     1       3.230   3.265  19.120  0.00  0.00    +0.000 N 
ATOM     15  H   UNL     1       2.998   2.297  18.877  0.00  0.00    +0.000 HD
BRANCH  14  16
ATOM     16  C   UNL     1       4.355   3.744  18.376  0.00  0.00    +0.000 A 
ATOM     17  C   UNL     1       4.357   3.503  17.006  0.00  0.00    +0.000 A 
ATOM     18  C   UNL     1       5.428   3.938  16.228  0.00  0.00    +0.000 A 
ATOM     19  C   UNL     1       6.486   4.608  16.832  0.00  0.00    +0.000 A 
ATOM     20  F   UNL     1       7.513   5.025  16.080  0.00  0.00    +0.000 F 
ATOM     21  C   UNL     1       6.493   4.852  18.197  0.00  0.00    +0.000 A 
ATOM     22  C   UNL     1       5.420   4.415  18.986  0.00  0.00    +0.000 A 
ENDBRANCH  14  16
ENDBRANCH  11  14
ENDBRANCH   7  11
BRANCH   1  23
ATOM     23  C   UNL     1      -0.353  10.625  22.355  0.00  0.00    +0.000 C 
BRANCH  23  24
ATOM     24  C   UNL     1      -0.700  12.132  22.324  0.00  0.00    +0.000 C 
BRANCH  24  28
ATOM     25  C   UNL     1      -5.039  12.902  22.535  0.00  0.00    +0.000 A 
ATOM     26  C   UNL     1      -4.330  12.938  21.321  0.00  0.00    +0.000 A 
ATOM     27  C   UNL     1      -2.941  12.704  21.260  0.00  0.00    +0.000 A 
ATOM     28  C   UNL     1      -2.198  12.419  22.409  0.00  0.00    +0.000 A 
ATOM     29  C   UNL     1      -2.889  12.389  23.628  0.00  0.00    +0.000 A 
ATOM     30  C   UNL     1      -4.280  12.625  23.686  0.00  0.00    +0.000 A 
BRANCH  25  32
ATOM     31  C   UNL     1      -7.146  12.950  24.044  0.00  0.00    +0.000 C 
ATOM     32  C   UNL     1      -6.565  13.137  22.621  0.00  0.00    +0.000 C 
ATOM     33  C   UNL     1      -7.323  12.156  21.698  0.00  0.00    +0.000 C 
ATOM     34  C   UNL     1      -6.915  14.579  22.184  0.00  0.00    +0.000 C 
ENDBRANCH  25  32
ENDBRANCH  24  28
ENDBRANCH  23  24
ENDBRANCH   1  23
TORSDOF 7
ENDMDL
MODEL 2
REMARK VINA RESULT:      -9.0      5.871      9.598
REMARK  Name = 
REMARK  10 active torsions:
REMARK  status: ('A' for Active; 'I' for Inactive)
REMARK    1  A    between atoms: C_1  and  C_2
REMARK    2  A    between atoms: C_2  and  C_3
REMARK    3  A    between atoms: C_2  and  C_4
REMARK    4  A    between atoms: C_2  and  C_5
REMARK    5  A    between atoms: C_8  and  C_9
REMARK    6  A    between atoms: C_9  and  C_10
REMARK    7  A    between atoms: C_10  and  N_11
REMARK    8  A    between atoms: C_17  and  S_18
REMARK    9  A    between atoms: S_18  and  N_21
REMARK   10  A    between atoms: N_21  and  C_22
REMARK                            x       y       z     vdW  Elec       q    Type
REMARK                         _______ _______ _______ _____ _____    ______ ____
ROOT
ATOM      1  N   UNL     1       7.491   6.602  17.904  0.00  0.00    +0.000 NA
ATOM      2  C   UNL     1       6.363   6.944  17.025  0.00  0.00    +0.000 C 
ATOM      3  C   UNL     1       5.985   5.715  16.182  0.00  0.00    +0.000 C 
ATOM      4  C   UNL     1       5.523   4.608  17.092  0.00  0.00    +0.000 A 
ATOM      5  C   UNL     1       4.629   3.641  16.619  0.00  0.00    +0.000 A 
ATOM      6  C   UNL     1       3.893   2.886  17.520  0.00  0.00    +0.000 A 
ATOM      7  C   UNL     1       4.031   3.125  18.890  0.00  0.00    +0.000 A 
ATOM      8  C   UNL     1       5.063   3.970  19.369  0.00  0.00    +0.000 A 
ATOM      9  C   UNL     1       5.877   4.674  18.452  0.00  0.00    +0.000 A 
ATOM     10  C   UNL     1       7.117   5.506  18.843  0.00  0.00    +0.000 C 
ENDROOT
BRANCH   7  11
ATOM     11  S   UNL     1       2.626   2.661  19.908  0.00  0.00    +0.000 S 
ATOM     12  O   UNL     1       2.143   1.386  19.419  0.00  0.00    +0.000 OA
ATOM     13  O   UNL     1       3.008   2.803  21.299  0.00  0.00    +0.000 OA
BRANCH  11  14
ATOM     14  N   UNL     1       1.379   3.770  19.628  0.00  0.00    +0.000 N 
ATOM     15  H   UNL     1       0.796   3.746  20.471  0.00  0.00    +0.000 HD
BRANCH  14  16
ATOM     16  C   UNL     1       1.741   5.108  19.272  0.00  0.00    +0.000 A 
ATOM     17  C   UNL     1       1.878   6.024  20.309  0.00  0.00    +0.000 A 
ATOM     18  C   UNL     1       2.222   7.345  20.026  0.00  0.00    +0.000 A 
ATOM     19  C   UNL     1       2.424   7.732  18.706  0.00  0.00    +0.000 A 
ATOM     20  F   UNL     1       2.755   9.002  18.439  0.00  0.00    +0.000 F 
ATOM     21  C   UNL     1       2.290   6.826  17.666  0.00  0.00    +0.000 A 
ATOM     22  C   UNL     1       1.941   5.497  17.944  0.00  0.00    +0.000 A 
ENDBRANCH  14  16
ENDBRANCH  11  14
ENDBRANCH   7  11
BRANCH   1  23
ATOM     23  C   UNL     1       8.059   7.823  18.525  0.00  0.00    +0.000 C 
BRANCH  23  24
ATOM     24  C   UNL     1       8.312   9.020  17.577  0.00  0.00    +0.000 C 
BRANCH  24  28
ATOM     25  C   UNL     1       9.474  12.724  19.671  0.00  0.00    +0.000 A 
ATOM     26  C   UNL     1       8.866  12.740  18.403  0.00  0.00    +0.000 A 
ATOM     27  C   UNL     1       8.507  11.553  17.732  0.00  0.00    +0.000 A 
ATOM     28  C   UNL     1       8.737  10.296  18.299  0.00  0.00    +0.000 A 
ATOM     29  C   UNL     1       9.352  10.264  19.558  0.00  0.00    +0.000 A 
ATOM     30  C   UNL     1       9.710  11.454  20.228  0.00  0.00    +0.000 A 
BRANCH  25  32
ATOM     31  C   UNL     1      11.359  14.380  20.324  0.00  0.00    +0.000 C 
ATOM     32  C   UNL     1       9.858  14.014  20.433  0.00  0.00    +0.000 C 
ATOM     33  C   UNL     1       9.541  13.874  21.939  0.00  0.00    +0.000 C 
ATOM     34  C   UNL     1       9.064  15.222  19.883  0.00  0.00    +0.000 C 
ENDBRANCH  25  32
ENDBRANCH  24  28
ENDBRANCH  23  24
ENDBRANCH   1  23
TORSDOF 7
ENDMDL
MODEL 3
REMARK VINA RESULT:      -8.8      5.851      9.829
REMARK  Name = 
REMARK  10 active torsions:
REMARK  status: ('A' for Active; 'I' for Inactive)
REMARK    1  A    between atoms: C_1  and  C_2
REMARK    2  A    between atoms: C_2  and  C_3
REMARK    3  A    between atoms: C_2  and  C_4
REMARK    4  A    between atoms: C_2  and  C_5
REMARK    5  A    between atoms: C_8  and  C_9
REMARK    6  A    between atoms: C_9  and  C_10
REMARK    7  A    between atoms: C_10  and  N_11
REMARK    8  A    between atoms: C_17  and  S_18
REMARK    9  A    between atoms: S_18  and  N_21
REMARK   10  A    between atoms: N_21  and  C_22
REMARK                            x       y       z     vdW  Elec       q    Type
REMARK                         _______ _______ _______ _____ _____    ______ ____
ROOT
ATOM      1  N   UNL     1       7.053   7.104  17.290  0.00  0.00    +0.000 NA
ATOM      2  C   UNL     1       5.883   7.160  16.401  0.00  0.00    +0.000 C 
ATOM      3  C   UNL     1       5.706   5.799  15.709  0.00  0.00    +0.000 C 
ATOM      4  C   UNL     1       5.429   4.743  16.746  0.00  0.00    +0.000 A 
ATOM      5  C   UNL     1       4.701   3.599  16.403  0.00  0.00    +0.000 A 
ATOM      6  C   UNL     1       4.097   2.843  17.397  0.00  0.00    +0.000 A 
ATOM      7  C   UNL     1       4.197   3.256  18.728  0.00  0.00    +0.000 A 
ATOM      8  C   UNL     1       5.082   4.304  19.089  0.00  0.00    +0.000 A 
ATOM      9  C   UNL     1       5.770   5.019  18.083  0.00  0.00    +0.000 A 
ATOM     10  C   UNL     1       6.861   6.077  18.354  0.00  0.00    +0.000 C 
ENDROOT
BRANCH   7  11
ATOM     11  S   UNL     1       2.887   2.693  19.819  0.00  0.00    +0.000 S 
ATOM     12  O   UNL     1       2.456   1.395  19.341  0.00  0.00    +0.000 OA
ATOM     13  O   UNL     1       3.340   2.845  21.188  0.00  0.00    +0.000 OA
BRANCH  11  14
ATOM     14  N   UNL     1       1.558   3.724  19.628  0.00  0.00    +0.000 N 
ATOM     15  H   UNL     1       0.995   3.606  20.476  0.00  0.00    +0.000 HD
BRANCH  14  16
ATOM     16  C   UNL     1       1.817   5.103  19.351  0.00  0.00    +0.000 A 
ATOM     17  C   UNL     1       1.959   5.464  18.015  0.00  0.00    +0.000 A 
ATOM     18  C   UNL     1       2.220   6.792  17.680  0.00  0.00    +0.000 A 
ATOM     19  C   UNL     1       2.336   7.742  18.689  0.00  0.00    +0.000 A 
ATOM     20  F   UNL     1       2.586   9.017  18.362  0.00  0.00    +0.000 F 
ATOM     21  C   UNL     1       2.196   7.392  20.022  0.00  0.00    +0.000 A 
ATOM     22  C   UNL     1       1.937   6.058  20.366  0.00  0.00    +0.000 A 
ENDBRANCH  14  16
ENDBRANCH  11  14
ENDBRANCH   7  11
BRANCH   1  23
ATOM     23  C   UNL     1       7.419   8.463  17.760  0.00  0.00    +0.000 C 
BRANCH  23  24
ATOM     24  C   UNL     1       8.694   8.566  18.630  0.00  0.00    +0.000 C 
BRANCH  24  28
ATOM     25  C   UNL     1       9.979  12.690  19.523  0.00  0.00    +0.000 A 
ATOM     26  C   UNL     1       9.690  11.760  20.537  0.00  0.00    +0.000 A 
ATOM     27  C   UNL     1       9.268  10.446  20.247  0.00  0.00    +0.000 A 
ATOM     28  C   UNL     1       9.118  10.002  18.931  0.00  0.00    +0.000 A 
ATOM     29  C   UNL     1       9.394  10.921  17.909  0.00  0.00    +0.000 A 
ATOM     30  C   UNL     1       9.816  12.236  18.202  0.00  0.00    +0.000 A 
BRANCH  25  32
ATOM     31  C   UNL     1      10.257  14.567  21.290  0.00  0.00    +0.000 C 
ATOM     32  C   UNL     1      10.462  14.130  19.819  0.00  0.00    +0.000 C 
ATOM     33  C   UNL     1       9.705  15.151  18.941  0.00  0.00    +0.000 C 
ATOM     34  C   UNL     1      11.973  14.265  19.520  0.00  0.00    +0.000 C 
ENDBRANCH  25  32
ENDBRANCH  24  28
ENDBRANCH  23  24
ENDBRANCH   1  23
TORSDOF 7
ENDMDL
MODEL 4
REMARK VINA RESULT:      -8.8      3.029      4.865
REMARK  Name = 
REMARK  10 active torsions:
REMARK  status: ('A' for Active; 'I' for Inactive)
REMARK    1  A    between atoms: C_1  and  C_2
REMARK    2  A    between atoms: C_2  and  C_3
REMARK    3  A    between atoms: C_2  and  C_4
REMARK    4  A    between atoms: C_2  and  C_5
REMARK    5  A    between atoms: C_8  and  C_9
REMARK    6  A    between atoms: C_9  and  C_10
REMARK    7  A    between atoms: C_10  and  N_11
REMARK    8  A    between atoms: C_17  and  S_18
REMARK    9  A    between atoms: S_18  and  N_21
REMARK   10  A    between atoms: N_21  and  C_22
REMARK                            x       y       z     vdW  Elec       q    Type
REMARK                         _______ _______ _______ _____ _____    ______ ____
ROOT
ATOM      1  N   UNL     1       1.487   5.921  20.364  0.00  0.00    +0.000 NA
ATOM      2  C   UNL     1       2.249   4.914  21.118  0.00  0.00    +0.000 C 
ATOM      3  C   UNL     1       2.486   3.684  20.226  0.00  0.00    +0.000 C 
ATOM      4  C   UNL     1       3.324   4.082  19.039  0.00  0.00    +0.000 A 
ATOM      5  C   UNL     1       4.132   3.133  18.404  0.00  0.00    +0.000 A 
ATOM      6  C   UNL     1       5.187   3.552  17.606  0.00  0.00    +0.000 A 
ATOM      7  C   UNL     1       5.447   4.918  17.474  0.00  0.00    +0.000 A 
ATOM      8  C   UNL     1       4.522   5.874  17.965  0.00  0.00    +0.000 A 
ATOM      9  C   UNL     1       3.396   5.446  18.703  0.00  0.00    +0.000 A 
ATOM     10  C   UNL     1       2.249   6.372  19.164  0.00  0.00    +0.000 C 
ENDROOT
BRANCH   7  11
ATOM     11  S   UNL     1       7.138   5.353  17.052  0.00  0.00    +0.000 S 
ATOM     12  O   UNL     1       7.535   6.438  17.926  0.00  0.00    +0.000 OA
ATOM     13  O   UNL     1       7.922   4.134  17.010  0.00  0.00    +0.000 OA
BRANCH  11  14
ATOM     14  N   UNL     1       7.145   5.991  15.484  0.00  0.00    +0.000 N 
ATOM     15  H   UNL     1       8.078   6.395  15.357  0.00  0.00    +0.000 HD
BRANCH  14  16
ATOM     16  C   UNL     1       6.793   5.119  14.406  0.00  0.00    +0.000 A 
ATOM     17  C   UNL     1       5.556   4.487  14.482  0.00  0.00    +0.000 A 
ATOM     18  C   UNL     1       5.158   3.620  13.466  0.00  0.00    +0.000 A 
ATOM     19  C   UNL     1       6.005   3.396  12.386  0.00  0.00    +0.000 A 
ATOM     20  F   UNL     1       5.617   2.562  11.412  0.00  0.00    +0.000 F 
ATOM     21  C   UNL     1       7.239   4.021  12.302  0.00  0.00    +0.000 A 
ATOM     22  C   UNL     1       7.647   4.892  13.323  0.00  0.00    +0.000 A 
ENDBRANCH  14  16
ENDBRANCH  11  14
ENDBRANCH   7  11
BRANCH   1  23
ATOM     23  C   UNL     1       1.004   6.995  21.266  0.00  0.00    +0.000 C 
BRANCH  23  24
ATOM     24  C   UNL     1       1.554   8.415  20.996  0.00  0.00    +0.000 C 
BRANCH  24  28
ATOM     25  C   UNL     1      -1.149  11.631  22.339  0.00  0.00    +0.000 A 
ATOM     26  C   UNL     1      -0.397  11.732  21.156  0.00  0.00    +0.000 A 
ATOM     27  C   UNL     1       0.475  10.707  20.736  0.00  0.00    +0.000 A 
ATOM     28  C   UNL     1       0.633   9.533  21.479  0.00  0.00    +0.000 A 
ATOM     29  C   UNL     1      -0.104   9.422  22.667  0.00  0.00    +0.000 A 
ATOM     30  C   UNL     1      -0.976  10.451  23.085  0.00  0.00    +0.000 A 
BRANCH  25  32
ATOM     31  C   UNL     1      -3.208  12.234  23.796  0.00  0.00    +0.000 C 
ATOM     32  C   UNL     1      -2.126  12.736  22.808  0.00  0.00    +0.000 C 
ATOM     33  C   UNL     1      -2.874  13.351  21.604  0.00  0.00    +0.000 C 
ATOM     34  C   UNL     1      -1.356  13.868  23.527  0.00  0.00    +0.000 C 
ENDBRANCH  25  32
ENDBRANCH  24  28
ENDBRANCH  23  24
ENDBRANCH   1  23
TORSDOF 7
ENDMDL
MODEL 5
REMARK VINA RESULT:      -8.7      3.229      4.389
REMARK  Name = 
REMARK  10 active torsions:
REMARK  status: ('A' for Active; 'I' for Inactive)
REMARK    1  A    between atoms: C_1  and  C_2
REMARK    2  A    between atoms: C_2  and  C_3
REMARK    3  A    between atoms: C_2  and  C_4
REMARK    4  A    between atoms: C_2  and  C_5
REMARK    5  A    between atoms: C_8  and  C_9
REMARK    6  A    between atoms: C_9  and  C_10
REMARK    7  A    between atoms: C_10  and  N_11
REMARK    8  A    between atoms: C_17  and  S_18
REMARK    9  A    between atoms: S_18  and  N_21
REMARK   10  A    between atoms: N_21  and  C_22
REMARK                            x       y       z     vdW  Elec       q    Type
REMARK                         _______ _______ _______ _____ _____    ______ ____
ROOT
ATOM      1  N   UNL     1       1.120   8.393  19.235  0.00  0.00    +0.000 NA
ATOM      2  C   UNL     1       1.668   7.964  20.530  0.00  0.00    +0.000 C 
ATOM      3  C   UNL     1       1.919   6.447  20.498  0.00  0.00    +0.000 C 
ATOM      4  C   UNL     1       2.955   6.135  19.449  0.00  0.00    +0.000 A 
ATOM      5  C   UNL     1       3.757   4.997  19.576  0.00  0.00    +0.000 A 
ATOM      6  C   UNL     1       4.951   4.915  18.875  0.00  0.00    +0.000 A 
ATOM      7  C   UNL     1       5.352   5.989  18.075  0.00  0.00    +0.000 A 
ATOM      8  C   UNL     1       4.457   7.054  17.806  0.00  0.00    +0.000 A 
ATOM      9  C   UNL     1       3.200   7.095  18.450  0.00  0.00    +0.000 A 
ATOM     10  C   UNL     1       2.088   8.118  18.134  0.00  0.00    +0.000 C 
ENDROOT
BRANCH   7  11
ATOM     11  S   UNL     1       7.119   6.128  17.785  0.00  0.00    +0.000 S 
ATOM     12  O   UNL     1       7.322   7.251  16.893  0.00  0.00    +0.000 OA
ATOM     13  O   UNL     1       7.793   6.093  19.068  0.00  0.00    +0.000 OA
BRANCH  11  14
ATOM     14  N   UNL     1       7.626   4.757  16.931  0.00  0.00    +0.000 N 
ATOM     15  H   UNL     1       7.503   3.971  17.576  0.00  0.00    +0.000 HD
BRANCH  14  16
ATOM     16  C   UNL     1       7.021   4.500  15.660  0.00  0.00    +0.000 A 
ATOM     17  C   UNL     1       5.849   3.751  15.657  0.00  0.00    +0.000 A 
ATOM     18  C   UNL     1       5.216   3.461  14.450  0.00  0.00    +0.000 A 
ATOM     19  C   UNL     1       5.766   3.923  13.259  0.00  0.00    +0.000 A 
ATOM     20  F   UNL     1       5.154   3.642  12.102  0.00  0.00    +0.000 F 
ATOM     21  C   UNL     1       6.934   4.670  13.253  0.00  0.00    +0.000 A 
ATOM     22  C   UNL     1       7.577   4.963  14.464  0.00  0.00    +0.000 A 
ENDBRANCH  14  16
ENDBRANCH  11  14
ENDBRANCH   7  11
BRANCH   1  23
ATOM     23  C   UNL     1       0.610   9.783  19.317  0.00  0.00    +0.000 C 
BRANCH  23  24
ATOM     24  C   UNL     1      -0.010  10.363  18.024  0.00  0.00    +0.000 C 
BRANCH  24  28
ATOM     25  C   UNL     1      -4.286  11.356  18.457  0.00  0.00    +0.000 A 
ATOM     26  C   UNL     1      -3.848  10.237  17.728  0.00  0.00    +0.000 A 
ATOM     27  C   UNL     1      -2.480   9.930  17.582  0.00  0.00    +0.000 A 
ATOM     28  C   UNL     1      -1.487  10.726  18.160  0.00  0.00    +0.000 A 
ATOM     29  C   UNL     1      -1.908  11.852  18.882  0.00  0.00    +0.000 A 
ATOM     30  C   UNL     1      -3.279  12.157  19.027  0.00  0.00    +0.000 A 
BRANCH  25  32
ATOM     31  C   UNL     1      -6.715  10.465  18.625  0.00  0.00    +0.000 C 
ATOM     32  C   UNL     1      -5.783  11.701  18.646  0.00  0.00    +0.000 C 
ATOM     33  C   UNL     1      -6.271  12.647  17.526  0.00  0.00    +0.000 C 
ATOM     34  C   UNL     1      -6.007  12.406  20.004  0.00  0.00    +0.000 C 
ENDBRANCH  25  32
ENDBRANCH  24  28
ENDBRANCH  23  24
ENDBRANCH   1  23
TORSDOF 7
ENDMDL
MODEL 6
REMARK VINA RESULT:      -8.7      5.137     10.047
REMARK  Name = 
REMARK  10 active torsions:
REMARK  status: ('A' for Active; 'I' for Inactive)
REMARK    1  A    between atoms: C_1  and  C_2
REMARK    2  A    between atoms: C_2  and  C_3
REMARK    3  A    between atoms: C_2  and  C_4
REMARK    4  A    between atoms: C_2  and  C_5
REMARK    5  A    between atoms: C_8  and  C_9
REMARK    6  A    between atoms: C_9  and  C_10
REMARK    7  A    between atoms: C_10  and  N_11
REMARK    8  A    between atoms: C_17  and  S_18
REMARK    9  A    between atoms: S_18  and  N_21
REMARK   10  A    between atoms: N_21  and  C_22
REMARK                            x       y       z     vdW  Elec       q    Type
REMARK                         _______ _______ _______ _____ _____    ______ ____
ROOT
ATOM      1  N   UNL     1       7.517   6.300  17.362  0.00  0.00    +0.000 NA
ATOM      2  C   UNL     1       6.423   6.479  16.396  0.00  0.00    +0.000 C 
ATOM      3  C   UNL     1       5.814   5.109  16.059  0.00  0.00    +0.000 C 
ATOM      4  C   UNL     1       5.216   4.507  17.304  0.00  0.00    +0.000 A 
ATOM      5  C   UNL     1       4.157   3.599  17.203  0.00  0.00    +0.000 A 
ATOM      6  C   UNL     1       3.347   3.363  18.304  0.00  0.00    +0.000 A 
ATOM      7  C   UNL     1       3.580   4.062  19.491  0.00  0.00    +0.000 A 
ATOM      8  C   UNL     1       4.757   4.838  19.645  0.00  0.00    +0.000 A 
ATOM      9  C   UNL     1       5.634   5.009  18.550  0.00  0.00    +0.000 A 
ATOM     10  C   UNL     1       7.009   5.706  18.632  0.00  0.00    +0.000 C 
ENDROOT
BRANCH   7  11
ATOM     11  S   UNL     1       2.163   4.247  20.578  0.00  0.00    +0.000 S 
ATOM     12  O   UNL     1       0.974   4.113  19.763  0.00  0.00    +0.000 OA
ATOM     13  O   UNL     1       2.356   3.380  21.724  0.00  0.00    +0.000 OA
BRANCH  11  14
ATOM     14  N   UNL     1       2.149   5.835  21.165  0.00  0.00    +0.000 N 
ATOM     15  H   UNL     1       3.009   5.933  21.712  0.00  0.00    +0.000 HD
BRANCH  14  16
ATOM     16  C   UNL     1       1.999   6.896  20.218  0.00  0.00    +0.000 A 
ATOM     17  C   UNL     1       1.312   8.030  20.641  0.00  0.00    +0.000 A 
ATOM     18  C   UNL     1       1.126   9.096  19.762  0.00  0.00    +0.000 A 
ATOM     19  C   UNL     1       1.629   9.012  18.469  0.00  0.00    +0.000 A 
ATOM     20  F   UNL     1       1.449  10.039  17.628  0.00  0.00    +0.000 F 
ATOM     21  C   UNL     1       2.314   7.886  18.038  0.00  0.00    +0.000 A 
ATOM     22  C   UNL     1       2.502   6.810  18.916  0.00  0.00    +0.000 A 
ENDBRANCH  14  16
ENDBRANCH  11  14
ENDBRANCH   7  11
BRANCH   1  23
ATOM     23  C   UNL     1       8.303   7.550  17.501  0.00  0.00    +0.000 C 
BRANCH  23  24
ATOM     24  C   UNL     1       7.502   8.827  17.851  0.00  0.00    +0.000 C 
BRANCH  24  28
ATOM     25  C   UNL     1       9.978  12.288  19.013  0.00  0.00    +0.000 A 
ATOM     26  C   UNL     1       9.100  12.330  17.916  0.00  0.00    +0.000 A 
ATOM     27  C   UNL     1       8.319  11.218  17.541  0.00  0.00    +0.000 A 
ATOM     28  C   UNL     1       8.379  10.013  18.247  0.00  0.00    +0.000 A 
ATOM     29  C   UNL     1       9.258   9.952  19.337  0.00  0.00    +0.000 A 
ATOM     30  C   UNL     1      10.039  11.068  19.710  0.00  0.00    +0.000 A 
BRANCH  25  32
ATOM     31  C   UNL     1      10.508  14.004  20.882  0.00  0.00    +0.000 C 
ATOM     32  C   UNL     1      10.829  13.502  19.453  0.00  0.00    +0.000 C 
ATOM     33  C   UNL     1      10.608  14.699  18.500  0.00  0.00    +0.000 C 
ATOM     34  C   UNL     1      12.333  13.143  19.435  0.00  0.00    +0.000 C 
ENDBRANCH  25  32
ENDBRANCH  24  28
ENDBRANCH  23  24
ENDBRANCH   1  23
TORSDOF 7
ENDMDL
MODEL 7
REMARK VINA RESULT:      -8.6      2.794      3.968
REMARK  Name = 
REMARK  10 active torsions:
REMARK  status: ('A' for Active; 'I' for Inactive)
REMARK    1  A    between atoms: C_1  and  C_2
REMARK    2  A    between atoms: C_2  and  C_3
REMARK    3  A    between atoms: C_2  and  C_4
REMARK    4  A    between atoms: C_2  and  C_5
REMARK    5  A    between atoms: C_8  and  C_9
REMARK    6  A    between atoms: C_9  and  C_10
REMARK    7  A    between atoms: C_10  and  N_11
REMARK    8  A    between atoms: C_17  and  S_18
REMARK    9  A    between atoms: S_18  and  N_21
REMARK   10  A    between atoms: N_21  and  C_22
REMARK                            x       y       z     vdW  Elec       q    Type
REMARK                         _______ _______ _______ _____ _____    ______ ____
ROOT
ATOM      1  N   UNL     1       1.159   8.655  18.730  0.00  0.00    +0.000 NA
ATOM      2  C   UNL     1       1.674   8.397  20.083  0.00  0.00    +0.000 C 
ATOM      3  C   UNL     1       1.913   6.887  20.256  0.00  0.00    +0.000 C 
ATOM      4  C   UNL     1       2.968   6.433  19.281  0.00  0.00    +0.000 A 
ATOM      5  C   UNL     1       3.757   5.317  19.574  0.00  0.00    +0.000 A 
ATOM      6  C   UNL     1       4.965   5.137  18.917  0.00  0.00    +0.000 A 
ATOM      7  C   UNL     1       5.393   6.094  17.993  0.00  0.00    +0.000 A 
ATOM      8  C   UNL     1       4.513   7.120  17.566  0.00  0.00    +0.000 A 
ATOM      9  C   UNL     1       3.243   7.253  18.170  0.00  0.00    +0.000 A 
ATOM     10  C   UNL     1       2.147   8.232  17.697  0.00  0.00    +0.000 C 
ENDROOT
BRANCH   7  11
ATOM     11  S   UNL     1       7.167   6.183  17.727  0.00  0.00    +0.000 S 
ATOM     12  O   UNL     1       7.413   7.292  16.828  0.00  0.00    +0.000 OA
ATOM     13  O   UNL     1       7.821   6.141  19.020  0.00  0.00    +0.000 OA
BRANCH  11  14
ATOM     14  N   UNL     1       7.649   4.791  16.892  0.00  0.00    +0.000 N 
ATOM     15  H   UNL     1       7.530   4.019  17.555  0.00  0.00    +0.000 HD
BRANCH  14  16
ATOM     16  C   UNL     1       7.021   4.514  15.637  0.00  0.00    +0.000 A 
ATOM     17  C   UNL     1       5.842   3.776  15.669  0.00  0.00    +0.000 A 
ATOM     18  C   UNL     1       5.186   3.467  14.478  0.00  0.00    +0.000 A 
ATOM     19  C   UNL     1       5.721   3.899  13.270  0.00  0.00    +0.000 A 
ATOM     20  F   UNL     1       5.087   3.600  12.128  0.00  0.00    +0.000 F 
ATOM     21  C   UNL     1       6.895   4.634  13.229  0.00  0.00    +0.000 A 
ATOM     22  C   UNL     1       7.561   4.946  14.422  0.00  0.00    +0.000 A 
ENDBRANCH  14  16
ENDBRANCH  11  14
ENDBRANCH   7  11
BRANCH   1  23
ATOM     23  C   UNL     1       0.659  10.047  18.618  0.00  0.00    +0.000 C 
BRANCH  23  24
ATOM     24  C   UNL     1       0.993  10.991  19.797  0.00  0.00    +0.000 C 
BRANCH  24  28
ATOM     25  C   UNL     1      -2.523  12.469  22.014  0.00  0.00    +0.000 A 
ATOM     26  C   UNL     1      -1.405  11.917  22.664  0.00  0.00    +0.000 A 
ATOM     27  C   UNL     1      -0.289  11.435  21.952  0.00  0.00    +0.000 A 
ATOM     28  C   UNL     1      -0.237  11.485  20.556  0.00  0.00    +0.000 A 
ATOM     29  C   UNL     1      -1.348  12.024  19.892  0.00  0.00    +0.000 A 
ATOM     30  C   UNL     1      -2.465  12.506  20.609  0.00  0.00    +0.000 A 
BRANCH  25  32
ATOM     31  C   UNL     1      -3.965  12.372  24.166  0.00  0.00    +0.000 C 
ATOM     32  C   UNL     1      -3.750  13.021  22.778  0.00  0.00    +0.000 C 
ATOM     33  C   UNL     1      -5.047  12.787  21.970  0.00  0.00    +0.000 C 
ATOM     34  C   UNL     1      -3.598  14.542  23.015  0.00  0.00    +0.000 C 
ENDBRANCH  25  32
ENDBRANCH  24  28
ENDBRANCH  23  24
ENDBRANCH   1  23
TORSDOF 7
ENDMDL
MODEL 8
REMARK VINA RESULT:      -8.6      6.100      9.968
REMARK  Name = 
REMARK  10 active torsions:
REMARK  status: ('A' for Active; 'I' for Inactive)
REMARK    1  A    between atoms: C_1  and  C_2
REMARK    2  A    between atoms: C_2  and  C_3
REMARK    3  A    between atoms: C_2  and  C_4
REMARK    4  A    between atoms: C_2  and  C_5
REMARK    5  A    between atoms: C_8  and  C_9
REMARK    6  A    between atoms: C_9  and  C_10
REMARK    7  A    between atoms: C_10  and  N_11
REMARK    8  A    between atoms: C_17  and  S_18
REMARK    9  A    between atoms: S_18  and  N_21
REMARK   10  A    between atoms: N_21  and  C_22
REMARK                            x       y       z     vdW  Elec       q    Type
REMARK                         _______ _______ _______ _____ _____    ______ ____
ROOT
ATOM      1  N   UNL     1       7.286   6.208  17.766  0.00  0.00    +0.000 NA
ATOM      2  C   UNL     1       6.108   6.539  16.950  0.00  0.00    +0.000 C 
ATOM      3  C   UNL     1       5.609   5.270  16.241  0.00  0.00    +0.000 C 
ATOM      4  C   UNL     1       5.171   4.261  17.270  0.00  0.00    +0.000 A 
ATOM      5  C   UNL     1       4.200   3.308  16.947  0.00  0.00    +0.000 A 
ATOM      6  C   UNL     1       3.504   2.664  17.959  0.00  0.00    +0.000 A 
ATOM      7  C   UNL     1       3.761   3.001  19.291  0.00  0.00    +0.000 A 
ATOM      8  C   UNL     1       4.866   3.827  19.620  0.00  0.00    +0.000 A 
ATOM      9  C   UNL     1       5.635   4.414  18.590  0.00  0.00    +0.000 A 
ATOM     10  C   UNL     1       6.939   5.209  18.817  0.00  0.00    +0.000 C 
ENDROOT
BRANCH   7  11
ATOM     11  S   UNL     1       2.422   2.691  20.446  0.00  0.00    +0.000 S 
ATOM     12  O   UNL     1       1.610   1.628  19.889  0.00  0.00    +0.000 OA
ATOM     13  O   UNL     1       2.992   2.545  21.771  0.00  0.00    +0.000 OA
BRANCH  11  14
ATOM     14  N   UNL     1       1.430   4.061  20.490  0.00  0.00    +0.000 N 
ATOM     15  H   UNL     1       1.374   4.329  21.477  0.00  0.00    +0.000 HD
BRANCH  14  16
ATOM     16  C   UNL     1       1.786   5.171  19.659  0.00  0.00    +0.000 A 
ATOM     17  C   UNL     1       2.298   6.298  20.294  0.00  0.00    +0.000 A 
ATOM     18  C   UNL     1       2.657   7.414  19.541  0.00  0.00    +0.000 A 
ATOM     19  C   UNL     1       2.496   7.389  18.160  0.00  0.00    +0.000 A 
ATOM     20  F   UNL     1       2.843   8.464  17.440  0.00  0.00    +0.000 F 
ATOM     21  C   UNL     1       1.986   6.271  17.519  0.00  0.00    +0.000 A 
ATOM     22  C   UNL     1       1.621   5.145  18.271  0.00  0.00    +0.000 A 
ENDBRANCH  14  16
ENDBRANCH  11  14
ENDBRANCH   7  11
BRANCH   1  23
ATOM     23  C   UNL     1       7.957   7.443  18.242  0.00  0.00    +0.000 C 
BRANCH  23  24
ATOM     24  C   UNL     1       7.413   8.777  17.678  0.00  0.00    +0.000 C 
BRANCH  24  28
ATOM     25  C   UNL     1       9.981  12.240  18.613  0.00  0.00    +0.000 A 
ATOM     26  C   UNL     1      10.214  10.965  19.159  0.00  0.00    +0.000 A 
ATOM     27  C   UNL     1       9.384   9.864  18.867  0.00  0.00    +0.000 A 
ATOM     28  C   UNL     1       8.284   9.986  18.014  0.00  0.00    +0.000 A 
ATOM     29  C   UNL     1       8.032  11.253  17.469  0.00  0.00    +0.000 A 
ATOM     30  C   UNL     1       8.866  12.354  17.764  0.00  0.00    +0.000 A 
BRANCH  25  32
ATOM     31  C   UNL     1      10.143  14.657  19.535  0.00  0.00    +0.000 C 
ATOM     32  C   UNL     1      10.890  13.457  18.905  0.00  0.00    +0.000 C 
ATOM     33  C   UNL     1      11.546  13.973  17.605  0.00  0.00    +0.000 C 
ATOM     34  C   UNL     1      12.016  13.065  19.891  0.00  0.00    +0.000 C 
ENDBRANCH  25  32
ENDBRANCH  24  28
ENDBRANCH  23  24
ENDBRANCH   1  23
TORSDOF 7
ENDMDL
MODEL 9
REMARK VINA RESULT:      -8.5      4.944      9.867
REMARK  Name = 
REMARK  10 active torsions:
REMARK  status: ('A' for Active; 'I' for Inactive)
REMARK    1  A    between atoms: C_1  and  C_2
REMARK    2  A    between atoms: C_2  and  C_3
REMARK    3  A    between atoms: C_2  and  C_4
REMARK    4  A    between atoms: C_2  and  C_5
REMARK    5  A    between atoms: C_8  and  C_9
REMARK    6  A    between atoms: C_9  and  C_10
REMARK    7  A    between atoms: C_10  and  N_11
REMARK    8  A    between atoms: C_17  and  S_18
REMARK    9  A    between atoms: S_18  and  N_21
REMARK   10  A    between atoms: N_21  and  C_22
REMARK                            x       y       z     vdW  Elec       q    Type
REMARK                         _______ _______ _______ _____ _____    ______ ____
ROOT
ATOM      1  N   UNL     1       7.019   6.258  17.038  0.00  0.00    +0.000 NA
ATOM      2  C   UNL     1       5.841   6.454  16.180  0.00  0.00    +0.000 C 
ATOM      3  C   UNL     1       5.170   5.096  15.921  0.00  0.00    +0.000 C 
ATOM      4  C   UNL     1       4.682   4.522  17.226  0.00  0.00    +0.000 A 
ATOM      5  C   UNL     1       3.598   3.639  17.240  0.00  0.00    +0.000 A 
ATOM      6  C   UNL     1       2.894   3.434  18.417  0.00  0.00    +0.000 A 
ATOM      7  C   UNL     1       3.258   4.140  19.567  0.00  0.00    +0.000 A 
ATOM      8  C   UNL     1       4.461   4.888  19.596  0.00  0.00    +0.000 A 
ATOM      9  C   UNL     1       5.232   5.026  18.419  0.00  0.00    +0.000 A 
ATOM     10  C   UNL     1       6.624   5.690  18.359  0.00  0.00    +0.000 C 
ENDROOT
BRANCH   7  11
ATOM     11  S   UNL     1       1.958   4.370  20.785  0.00  0.00    +0.000 S 
ATOM     12  O   UNL     1       0.696   4.368  20.073  0.00  0.00    +0.000 OA
ATOM     13  O   UNL     1       2.180   3.432  21.867  0.00  0.00    +0.000 OA
BRANCH  11  14
ATOM     14  N   UNL     1       2.119   5.921  21.444  0.00  0.00    +0.000 N 
ATOM     15  H   UNL     1       3.077   5.969  21.802  0.00  0.00    +0.000 HD
BRANCH  14  16
ATOM     16  C   UNL     1       1.808   7.039  20.607  0.00  0.00    +0.000 A 
ATOM     17  C   UNL     1       2.356   7.043  19.328  0.00  0.00    +0.000 A 
ATOM     18  C   UNL     1       2.097   8.108  18.467  0.00  0.00    +0.000 A 
ATOM     19  C   UNL     1       1.293   9.157  18.898  0.00  0.00    +0.000 A 
ATOM     20  F   UNL     1       1.047  10.178  18.066  0.00  0.00    +0.000 F 
ATOM     21  C   UNL     1       0.744   9.162  20.170  0.00  0.00    +0.000 A 
ATOM     22  C   UNL     1       1.003   8.095  21.043  0.00  0.00    +0.000 A 
ENDBRANCH  14  16
ENDBRANCH  11  14
ENDBRANCH   7  11
BRANCH   1  23
ATOM     23  C   UNL     1       7.844   7.491  17.083  0.00  0.00    +0.000 C 
BRANCH  23  24
ATOM     24  C   UNL     1       8.299   7.958  18.486  0.00  0.00    +0.000 C 
BRANCH  24  28
ATOM     25  C   UNL     1       9.401  12.226  18.663  0.00  0.00    +0.000 A 
ATOM     26  C   UNL     1       9.862  11.294  19.609  0.00  0.00    +0.000 A 
ATOM     27  C   UNL     1       9.498   9.933  19.556  0.00  0.00    +0.000 A 
ATOM     28  C   UNL     1       8.658   9.441  18.553  0.00  0.00    +0.000 A 
ATOM     29  C   UNL     1       8.181  10.360  17.608  0.00  0.00    +0.000 A 
ATOM     30  C   UNL     1       8.548  11.723  17.664  0.00  0.00    +0.000 A 
BRANCH  25  32
ATOM     31  C   UNL     1      10.688  14.150  17.497  0.00  0.00    +0.000 C 
ATOM     32  C   UNL     1       9.803  13.719  18.692  0.00  0.00    +0.000 C 
ATOM     33  C   UNL     1      10.599  14.046  19.976  0.00  0.00    +0.000 C 
ATOM     34  C   UNL     1       8.546  14.618  18.662  0.00  0.00    +0.000 C 
ENDBRANCH  25  32
ENDBRANCH  24  28
ENDBRANCH  23  24
ENDBRANCH   1  23
TORSDOF 7
ENDMDL
