MODEL 1
REMARK VINA RESULT:      -7.3      0.000      0.000
REMARK  Name = 
REMARK  3 active torsions:
REMARK  status: ('A' for Active; 'I' for Inactive)
REMARK    1  A    between atoms: C_1  and  C_2
REMARK    2  A    between atoms: C_7  and  C_8
REMARK    3  A    between atoms: C_8  and  N_9
REMARK                            x       y       z     vdW  Elec       q    Type
REMARK                         _______ _______ _______ _____ _____    ______ ____
ROOT
ATOM      1  N   UNL     1       4.413   3.352  17.360  0.00  0.00    +0.000 N 
ATOM      2  C   UNL     1       4.980   3.178  18.703  0.00  0.00    +0.000 C 
ATOM      3  C   UNL     1       5.997   4.239  19.168  0.00  0.00    +0.000 C 
ATOM      4  N   UNL     1       6.225   5.364  18.251  0.00  0.00    +0.000 N 
ATOM      5  C   UNL     1       7.338   6.257  18.578  0.00  0.00    +0.000 C 
ATOM      6  C   UNL     1       7.526   7.281  17.463  0.00  0.00    +0.000 C 
ATOM      7  O   UNL     1       7.882   6.637  16.232  0.00  0.00    +0.000 OA
ATOM      8  C   UNL     1       7.002   5.621  15.926  0.00  0.00    +0.000 A 
ATOM      9  C   UNL     1       6.987   5.219  14.591  0.00  0.00    +0.000 A 
ATOM     10  C   UNL     1       6.091   4.239  14.175  0.00  0.00    +0.000 A 
ATOM     11  C   UNL     1       5.215   3.663  15.095  0.00  0.00    +0.000 A 
ATOM     12  C   UNL     1       5.254   4.012  16.457  0.00  0.00    +0.000 A 
ATOM     13  C   UNL     1       6.182   4.990  16.888  0.00  0.00    +0.000 A 
ENDROOT
BRANCH   1  14
ATOM     14  C   UNL     1       2.969   3.618  17.271  0.00  0.00    +0.000 C 
BRANCH  14  21
ATOM     15  C   UNL     1       1.406   8.707  21.576  0.00  0.00    +0.000 C 
ATOM     16  C   UNL     1       1.672   7.651  20.540  0.00  0.00    +0.000 C 
ATOM     17  O   UNL     1       2.053   7.976  19.416  0.00  0.00    +0.000 OA
ATOM     18  N   UNL     1       1.414   6.378  20.992  0.00  0.00    +0.000 N 
ATOM     19  C   UNL     1       1.594   5.298  20.171  0.00  0.00    +0.000 A 
ATOM     20  N   UNL     1       2.274   5.226  19.057  0.00  0.00    +0.000 NA
ATOM     21  C   UNL     1       2.167   3.950  18.509  0.00  0.00    +0.000 A 
ATOM     22  C   UNL     1       1.370   3.089  19.244  0.00  0.00    +0.000 A 
ATOM     23  S   UNL     1       0.837   3.860  20.687  0.00  0.00    +0.000 S 
ATOM     24  H   UNL     1       0.945   6.219  21.872  0.00  0.00    +0.000 HD
ENDBRANCH  14  21
ENDBRANCH   1  14
TORSDOF 2
ENDMDL
MODEL 2
REMARK VINA RESULT:      -7.3      3.265      5.504
REMARK  Name = 
REMARK  3 active torsions:
REMARK  status: ('A' for Active; 'I' for Inactive)
REMARK    1  A    between atoms: C_1  and  C_2
REMARK    2  A    between atoms: C_7  and  C_8
REMARK    3  A    between atoms: C_8  and  N_9
REMARK                            x       y       z     vdW  Elec       q    Type
REMARK                         _______ _______ _______ _____ _____    ______ ____
ROOT
ATOM      1  N   UNL     1       3.116   7.089  18.357  0.00  0.00    +0.000 N 
ATOM      2  C   UNL     1       4.334   6.904  17.558  0.00  0.00    +0.000 C 
ATOM      3  C   UNL     1       4.615   5.478  17.044  0.00  0.00    +0.000 C 
ATOM      4  N   UNL     1       3.586   4.470  17.334  0.00  0.00    +0.000 N 
ATOM      5  C   UNL     1       3.936   3.079  17.044  0.00  0.00    +0.000 C 
ATOM      6  C   UNL     1       2.824   2.153  17.527  0.00  0.00    +0.000 C 
ATOM      7  O   UNL     1       2.671   2.236  18.950  0.00  0.00    +0.000 OA
ATOM      8  C   UNL     1       2.539   3.544  19.363  0.00  0.00    +0.000 A 
ATOM      9  C   UNL     1       1.971   3.722  20.624  0.00  0.00    +0.000 A 
ATOM     10  C   UNL     1       1.745   5.009  21.104  0.00  0.00    +0.000 A 
ATOM     11  C   UNL     1       2.088   6.112  20.323  0.00  0.00    +0.000 A 
ATOM     12  C   UNL     1       2.715   5.955  19.073  0.00  0.00    +0.000 A 
ATOM     13  C   UNL     1       2.970   4.647  18.594  0.00  0.00    +0.000 A 
ENDROOT
BRANCH   1  14
ATOM     14  C   UNL     1       2.065   7.947  17.790  0.00  0.00    +0.000 C 
BRANCH  14  21
ATOM     15  C   UNL     1      -1.143  10.822  23.111  0.00  0.00    +0.000 C 
ATOM     16  C   UNL     1      -0.344  10.151  22.029  0.00  0.00    +0.000 C 
ATOM     17  O   UNL     1       0.015   8.982  22.167  0.00  0.00    +0.000 OA
ATOM     18  N   UNL     1      -0.073  10.983  20.968  0.00  0.00    +0.000 N 
ATOM     19  C   UNL     1       0.655  10.532  19.900  0.00  0.00    +0.000 A 
ATOM     20  N   UNL     1       0.918   9.299  19.555  0.00  0.00    +0.000 NA
ATOM     21  C   UNL     1       1.730   9.279  18.423  0.00  0.00    +0.000 A 
ATOM     22  C   UNL     1       2.074  10.536  17.956  0.00  0.00    +0.000 A 
ATOM     23  S   UNL     1       1.286  11.750  18.887  0.00  0.00    +0.000 S 
ATOM     24  H   UNL     1      -0.263  11.973  21.015  0.00  0.00    +0.000 HD
ENDBRANCH  14  21
ENDBRANCH   1  14
TORSDOF 2
ENDMDL
MODEL 3
REMARK VINA RESULT:      -7.2      1.464      1.555
REMARK  Name = 
REMARK  3 active torsions:
REMARK  status: ('A' for Active; 'I' for Inactive)
REMARK    1  A    between atoms: C_1  and  C_2
REMARK    2  A    between atoms: C_7  and  C_8
REMARK    3  A    between atoms: C_8  and  N_9
REMARK                            x       y       z     vdW  Elec       q    Type
REMARK                         _______ _______ _______ _____ _____    ______ ____
ROOT
ATOM      1  N   UNL     1       4.207   3.662  17.779  0.00  0.00    +0.000 N 
ATOM      2  C   UNL     1       4.858   3.517  19.087  0.00  0.00    +0.000 C 
ATOM      3  C   UNL     1       5.985   4.516  19.414  0.00  0.00    +0.000 C 
ATOM      4  N   UNL     1       6.231   5.566  18.416  0.00  0.00    +0.000 N 
ATOM      5  C   UNL     1       7.430   6.382  18.609  0.00  0.00    +0.000 C 
ATOM      6  C   UNL     1       7.613   7.325  17.423  0.00  0.00    +0.000 C 
ATOM      7  O   UNL     1       7.826   6.587  16.212  0.00  0.00    +0.000 OA
ATOM      8  C   UNL     1       6.850   5.631  16.031  0.00  0.00    +0.000 A 
ATOM      9  C   UNL     1       6.703   5.159  14.727  0.00  0.00    +0.000 A 
ATOM     10  C   UNL     1       5.706   4.233  14.436  0.00  0.00    +0.000 A 
ATOM     11  C   UNL     1       4.859   3.782  15.448  0.00  0.00    +0.000 A 
ATOM     12  C   UNL     1       5.027   4.201  16.780  0.00  0.00    +0.000 A 
ATOM     13  C   UNL     1       6.057   5.123  17.084  0.00  0.00    +0.000 A 
ENDROOT
BRANCH   1  14
ATOM     14  C   UNL     1       2.786   4.040  17.775  0.00  0.00    +0.000 C 
BRANCH  14  21
ATOM     15  C   UNL     1       1.798  10.774  18.519  0.00  0.00    +0.000 C 
ATOM     16  C   UNL     1       1.913   9.296  18.268  0.00  0.00    +0.000 C 
ATOM     17  O   UNL     1       1.996   8.875  17.114  0.00  0.00    +0.000 OA
ATOM     18  N   UNL     1       1.881   8.551  19.423  0.00  0.00    +0.000 N 
ATOM     19  C   UNL     1       1.966   7.186  19.373  0.00  0.00    +0.000 A 
ATOM     20  N   UNL     1       2.376   6.431  18.388  0.00  0.00    +0.000 NA
ATOM     21  C   UNL     1       2.262   5.086  18.733  0.00  0.00    +0.000 A 
ATOM     22  C   UNL     1       1.735   4.873  19.996  0.00  0.00    +0.000 A 
ATOM     23  S   UNL     1       1.479   6.377  20.793  0.00  0.00    +0.000 S 
ATOM     24  H   UNL     1       1.643   8.969  20.310  0.00  0.00    +0.000 HD
ENDBRANCH  14  21
ENDBRANCH   1  14
TORSDOF 2
ENDMDL
MODEL 4
REMARK VINA RESULT:      -7.0      2.707      5.860
REMARK  Name = 
REMARK  3 active torsions:
REMARK  status: ('A' for Active; 'I' for Inactive)
REMARK    1  A    between atoms: C_1  and  C_2
REMARK    2  A    between atoms: C_7  and  C_8
REMARK    3  A    between atoms: C_8  and  N_9
REMARK                            x       y       z     vdW  Elec       q    Type
REMARK                         _______ _______ _______ _____ _____    ______ ____
ROOT
ATOM      1  N   UNL     1       3.670   5.453  17.180  0.00  0.00    +0.000 N 
ATOM      2  C   UNL     1       3.153   6.709  17.736  0.00  0.00    +0.000 C 
ATOM      3  C   UNL     1       2.660   6.670  19.196  0.00  0.00    +0.000 C 
ATOM      4  N   UNL     1       2.841   5.396  19.907  0.00  0.00    +0.000 N 
ATOM      5  C   UNL     1       2.187   5.278  21.210  0.00  0.00    +0.000 C 
ATOM      6  C   UNL     1       2.354   3.861  21.749  0.00  0.00    +0.000 C 
ATOM      7  O   UNL     1       1.709   2.909  20.893  0.00  0.00    +0.000 OA
ATOM      8  C   UNL     1       2.102   3.068  19.582  0.00  0.00    +0.000 A 
ATOM      9  C   UNL     1       1.887   1.969  18.751  0.00  0.00    +0.000 A 
ATOM     10  C   UNL     1       2.303   2.014  17.424  0.00  0.00    +0.000 A 
ATOM     11  C   UNL     1       2.932   3.157  16.932  0.00  0.00    +0.000 A 
ATOM     12  C   UNL     1       3.107   4.298  17.736  0.00  0.00    +0.000 A 
ATOM     13  C   UNL     1       2.661   4.264  19.079  0.00  0.00    +0.000 A 
ENDROOT
BRANCH   1  14
ATOM     14  C   UNL     1       5.095   5.414  16.820  0.00  0.00    +0.000 C 
BRANCH  14  21
ATOM     15  C   UNL     1       9.554  10.273  18.661  0.00  0.00    +0.000 C 
ATOM     16  C   UNL     1       8.478   9.286  18.302  0.00  0.00    +0.000 C 
ATOM     17  O   UNL     1       7.514   9.648  17.626  0.00  0.00    +0.000 OA
ATOM     18  N   UNL     1       8.699   8.035  18.827  0.00  0.00    +0.000 N 
ATOM     19  C   UNL     1       7.809   7.019  18.603  0.00  0.00    +0.000 A 
ATOM     20  N   UNL     1       6.872   6.942  17.696  0.00  0.00    +0.000 NA
ATOM     21  C   UNL     1       6.159   5.755  17.839  0.00  0.00    +0.000 A 
ATOM     22  C   UNL     1       6.587   4.967  18.894  0.00  0.00    +0.000 A 
ATOM     23  S   UNL     1       7.963   5.678  19.645  0.00  0.00    +0.000 S 
ATOM     24  H   UNL     1       9.428   7.872  19.506  0.00  0.00    +0.000 HD
ENDBRANCH  14  21
ENDBRANCH   1  14
TORSDOF 2
ENDMDL
MODEL 5
REMARK VINA RESULT:      -6.7      4.001      8.571
REMARK  Name = 
REMARK  3 active torsions:
REMARK  status: ('A' for Active; 'I' for Inactive)
REMARK    1  A    between atoms: C_1  and  C_2
REMARK    2  A    between atoms: C_7  and  C_8
REMARK    3  A    between atoms: C_8  and  N_9
REMARK                            x       y       z     vdW  Elec       q    Type
REMARK                         _______ _______ _______ _____ _____    ______ ____
ROOT
ATOM      1  N   UNL     1       0.222   9.597  19.127  0.00  0.00    +0.000 N 
ATOM      2  C   UNL     1      -0.698  10.104  18.102  0.00  0.00    +0.000 C 
ATOM      3  C   UNL     1      -1.451  11.408  18.431  0.00  0.00    +0.000 C 
ATOM      4  N   UNL     1      -1.102  12.055  19.703  0.00  0.00    +0.000 N 
ATOM      5  C   UNL     1      -1.956  13.165  20.127  0.00  0.00    +0.000 C 
ATOM      6  C   UNL     1      -1.547  13.632  21.520  0.00  0.00    +0.000 C 
ATOM      7  O   UNL     1      -1.742  12.590  22.486  0.00  0.00    +0.000 OA
ATOM      8  C   UNL     1      -1.143  11.416  22.083  0.00  0.00    +0.000 A 
ATOM      9  C   UNL     1      -0.898  10.487  23.094  0.00  0.00    +0.000 A 
ATOM     10  C   UNL     1      -0.246   9.295  22.792  0.00  0.00    +0.000 A 
ATOM     11  C   UNL     1       0.159   9.036  21.484  0.00  0.00    +0.000 A 
ATOM     12  C   UNL     1      -0.130   9.933  20.439  0.00  0.00    +0.000 A 
ATOM     13  C   UNL     1      -0.816  11.135  20.738  0.00  0.00    +0.000 A 
ENDROOT
BRANCH   1  14
ATOM     14  C   UNL     1       1.654   9.569  18.788  0.00  0.00    +0.000 C 
BRANCH  14  21
ATOM     15  C   UNL     1       2.448   3.165  21.079  0.00  0.00    +0.000 C 
ATOM     16  C   UNL     1       2.149   4.536  20.539  0.00  0.00    +0.000 C 
ATOM     17  O   UNL     1       1.130   5.128  20.895  0.00  0.00    +0.000 OA
ATOM     18  N   UNL     1       3.092   4.976  19.639  0.00  0.00    +0.000 N 
ATOM     19  C   UNL     1       2.966   6.202  19.044  0.00  0.00    +0.000 A 
ATOM     20  N   UNL     1       2.217   7.210  19.405  0.00  0.00    +0.000 NA
ATOM     21  C   UNL     1       2.353   8.259  18.499  0.00  0.00    +0.000 A 
ATOM     22  C   UNL     1       3.210   7.985  17.447  0.00  0.00    +0.000 A 
ATOM     23  S   UNL     1       3.929   6.436  17.656  0.00  0.00    +0.000 S 
ATOM     24  H   UNL     1       3.804   4.357  19.281  0.00  0.00    +0.000 HD
ENDBRANCH  14  21
ENDBRANCH   1  14
TORSDOF 2
ENDMDL
MODEL 6
REMARK VINA RESULT:      -6.7      3.922      5.947
REMARK  Name = 
REMARK  3 active torsions:
REMARK  status: ('A' for Active; 'I' for Inactive)
REMARK    1  A    between atoms: C_1  and  C_2
REMARK    2  A    between atoms: C_7  and  C_8
REMARK    3  A    between atoms: C_8  and  N_9
REMARK                            x       y       z     vdW  Elec       q    Type
REMARK                         _______ _______ _______ _____ _____    ______ ____
ROOT
ATOM      1  N   UNL     1       2.922   7.552  18.172  0.00  0.00    +0.000 N 
ATOM      2  C   UNL     1       4.184   7.386  17.441  0.00  0.00    +0.000 C 
ATOM      3  C   UNL     1       4.572   5.947  17.048  0.00  0.00    +0.000 C 
ATOM      4  N   UNL     1       3.592   4.900  17.369  0.00  0.00    +0.000 N 
ATOM      5  C   UNL     1       4.037   3.516  17.200  0.00  0.00    +0.000 C 
ATOM      6  C   UNL     1       2.960   2.560  17.703  0.00  0.00    +0.000 C 
ATOM      7  O   UNL     1       2.736   2.736  19.108  0.00  0.00    +0.000 OA
ATOM      8  C   UNL     1       2.507   4.060  19.416  0.00  0.00    +0.000 A 
ATOM      9  C   UNL     1       1.871   4.294  20.635  0.00  0.00    +0.000 A 
ATOM     10  C   UNL     1       1.548   5.596  21.006  0.00  0.00    +0.000 A 
ATOM     11  C   UNL     1       1.861   6.658  20.160  0.00  0.00    +0.000 A 
ATOM     12  C   UNL     1       2.555   6.450  18.953  0.00  0.00    +0.000 A 
ATOM     13  C   UNL     1       2.908   5.130  18.585  0.00  0.00    +0.000 A 
ENDROOT
BRANCH   1  14
ATOM     14  C   UNL     1       1.850   8.300  17.497  0.00  0.00    +0.000 C 
BRANCH  14  21
ATOM     15  C   UNL     1      -4.152  11.545  18.076  0.00  0.00    +0.000 C 
ATOM     16  C   UNL     1      -2.888  10.732  18.019  0.00  0.00    +0.000 C 
ATOM     17  O   UNL     1      -2.927   9.562  17.637  0.00  0.00    +0.000 OA
ATOM     18  N   UNL     1      -1.783  11.426  18.454  0.00  0.00    +0.000 N 
ATOM     19  C   UNL     1      -0.551  10.829  18.476  0.00  0.00    +0.000 A 
ATOM     20  N   UNL     1      -0.160   9.744  17.861  0.00  0.00    +0.000 NA
ATOM     21  C   UNL     1       1.163   9.457  18.187  0.00  0.00    +0.000 A 
ATOM     22  C   UNL     1       1.729  10.353  19.078  0.00  0.00    +0.000 A 
ATOM     23  S   UNL     1       0.621  11.623  19.426  0.00  0.00    +0.000 S 
ATOM     24  H   UNL     1      -1.872  12.324  18.906  0.00  0.00    +0.000 HD
ENDBRANCH  14  21
ENDBRANCH   1  14
TORSDOF 2
ENDMDL
MODEL 7
REMARK VINA RESULT:      -6.7      3.430      8.465
REMARK  Name = 
REMARK  3 active torsions:
REMARK  status: ('A' for Active; 'I' for Inactive)
REMARK    1  A    between atoms: C_1  and  C_2
REMARK    2  A    between atoms: C_7  and  C_8
REMARK    3  A    between atoms: C_8  and  N_9
REMARK                            x       y       z     vdW  Elec       q    Type
REMARK                         _______ _______ _______ _____ _____    ______ ____
ROOT
ATOM      1  N   UNL     1       0.530   9.318  19.199  0.00  0.00    +0.000 N 
ATOM      2  C   UNL     1      -0.234   9.934  18.107  0.00  0.00    +0.000 C 
ATOM      3  C   UNL     1      -0.788  11.350  18.363  0.00  0.00    +0.000 C 
ATOM      4  N   UNL     1      -0.416  11.970  19.642  0.00  0.00    +0.000 N 
ATOM      5  C   UNL     1      -1.106  13.213  19.989  0.00  0.00    +0.000 C 
ATOM      6  C   UNL     1      -0.713  13.650  21.397  0.00  0.00    +0.000 C 
ATOM      7  O   UNL     1      -1.129  12.680  22.367  0.00  0.00    +0.000 OA
ATOM      8  C   UNL     1      -0.702  11.415  22.026  0.00  0.00    +0.000 A 
ATOM      9  C   UNL     1      -0.671  10.489  23.068  0.00  0.00    +0.000 A 
ATOM     10  C   UNL     1      -0.201   9.200  22.832  0.00  0.00    +0.000 A 
ATOM     11  C   UNL     1       0.236   8.842  21.557  0.00  0.00    +0.000 A 
ATOM     12  C   UNL     1       0.158   9.743  20.479  0.00  0.00    +0.000 A 
ATOM     13  C   UNL     1      -0.344  11.046  20.710  0.00  0.00    +0.000 A 
ENDROOT
BRANCH   1  14
ATOM     14  C   UNL     1       1.956   9.053  18.953  0.00  0.00    +0.000 C 
BRANCH  14  21
ATOM     15  C   UNL     1       5.802   4.781  15.234  0.00  0.00    +0.000 C 
ATOM     16  C   UNL     1       5.071   5.781  16.086  0.00  0.00    +0.000 C 
ATOM     17  O   UNL     1       5.278   6.985  15.933  0.00  0.00    +0.000 OA
ATOM     18  N   UNL     1       4.234   5.193  17.005  0.00  0.00    +0.000 N 
ATOM     19  C   UNL     1       3.500   5.961  17.868  0.00  0.00    +0.000 A 
ATOM     20  N   UNL     1       3.220   7.235  17.788  0.00  0.00    +0.000 NA
ATOM     21  C   UNL     1       2.480   7.636  18.898  0.00  0.00    +0.000 A 
ATOM     22  C   UNL     1       2.241   6.621  19.809  0.00  0.00    +0.000 A 
ATOM     23  S   UNL     1       2.862   5.131  19.214  0.00  0.00    +0.000 S 
ATOM     24  H   UNL     1       4.254   4.198  17.171  0.00  0.00    +0.000 HD
ENDBRANCH  14  21
ENDBRANCH   1  14
TORSDOF 2
ENDMDL
MODEL 8
REMARK VINA RESULT:      -6.6      4.528      8.710
REMARK  Name = 
REMARK  3 active torsions:
REMARK  status: ('A' for Active; 'I' for Inactive)
REMARK    1  A    between atoms: C_1  and  C_2
REMARK    2  A    between atoms: C_7  and  C_8
REMARK    3  A    between atoms: C_8  and  N_9
REMARK                            x       y       z     vdW  Elec       q    Type
REMARK                         _______ _______ _______ _____ _____    ______ ____
ROOT
ATOM      1  N   UNL     1       0.581  10.514  19.209  0.00  0.00    +0.000 N 
ATOM      2  C   UNL     1       1.092  11.780  19.748  0.00  0.00    +0.000 C 
ATOM      3  C   UNL     1       0.046  12.770  20.299  0.00  0.00    +0.000 C 
ATOM      4  N   UNL     1      -1.347  12.303  20.307  0.00  0.00    +0.000 N 
ATOM      5  C   UNL     1      -2.368  13.303  20.622  0.00  0.00    +0.000 C 
ATOM      6  C   UNL     1      -3.758  12.697  20.453  0.00  0.00    +0.000 C 
ATOM      7  O   UNL     1      -3.986  12.312  19.091  0.00  0.00    +0.000 OA
ATOM      8  C   UNL     1      -2.961  11.522  18.617  0.00  0.00    +0.000 A 
ATOM      9  C   UNL     1      -3.263  10.755  17.492  0.00  0.00    +0.000 A 
ATOM     10  C   UNL     1      -2.309   9.883  16.974  0.00  0.00    +0.000 A 
ATOM     11  C   UNL     1      -1.058   9.782  17.581  0.00  0.00    +0.000 A 
ATOM     12  C   UNL     1      -0.713  10.588  18.680  0.00  0.00    +0.000 A 
ATOM     13  C   UNL     1      -1.672  11.495  19.193  0.00  0.00    +0.000 A 
ENDROOT
BRANCH   1  14
ATOM     14  C   UNL     1       0.961   9.281  19.916  0.00  0.00    +0.000 C 
BRANCH  14  21
ATOM     15  C   UNL     1       3.234   2.850  20.510  0.00  0.00    +0.000 C 
ATOM     16  C   UNL     1       2.614   4.211  20.352  0.00  0.00    +0.000 C 
ATOM     17  O   UNL     1       1.584   4.491  20.965  0.00  0.00    +0.000 OA
ATOM     18  N   UNL     1       3.297   5.012  19.468  0.00  0.00    +0.000 N 
ATOM     19  C   UNL     1       2.861   6.282  19.200  0.00  0.00    +0.000 A 
ATOM     20  N   UNL     1       2.022   7.016  19.881  0.00  0.00    +0.000 NA
ATOM     21  C   UNL     1       1.816   8.234  19.239  0.00  0.00    +0.000 A 
ATOM     22  C   UNL     1       2.514   8.367  18.051  0.00  0.00    +0.000 A 
ATOM     23  S   UNL     1       3.516   6.992  17.795  0.00  0.00    +0.000 S 
ATOM     24  H   UNL     1       4.033   4.642  18.885  0.00  0.00    +0.000 HD
ENDBRANCH  14  21
ENDBRANCH   1  14
TORSDOF 2
ENDMDL
MODEL 9
REMARK VINA RESULT:      -6.6      3.212      5.072
REMARK  Name = 
REMARK  3 active torsions:
REMARK  status: ('A' for Active; 'I' for Inactive)
REMARK    1  A    between atoms: C_1  and  C_2
REMARK    2  A    between atoms: C_7  and  C_8
REMARK    3  A    between atoms: C_8  and  N_9
REMARK                            x       y       z     vdW  Elec       q    Type
REMARK                         _______ _______ _______ _____ _____    ______ ____
ROOT
ATOM      1  N   UNL     1       1.839   6.153  19.653  0.00  0.00    +0.000 N 
ATOM      2  C   UNL     1       0.831   5.271  20.255  0.00  0.00    +0.000 C 
ATOM      3  C   UNL     1       1.319   3.892  20.740  0.00  0.00    +0.000 C 
ATOM      4  N   UNL     1       2.762   3.638  20.628  0.00  0.00    +0.000 N 
ATOM      5  C   UNL     1       3.205   2.266  20.879  0.00  0.00    +0.000 C 
ATOM      6  C   UNL     1       4.697   2.141  20.589  0.00  0.00    +0.000 C 
ATOM      7  O   UNL     1       4.973   2.401  19.207  0.00  0.00    +0.000 OA
ATOM      8  C   UNL     1       4.414   3.593  18.800  0.00  0.00    +0.000 A 
ATOM      9  C   UNL     1       4.955   4.148  17.641  0.00  0.00    +0.000 A 
ATOM     10  C   UNL     1       4.494   5.379  17.184  0.00  0.00    +0.000 A 
ATOM     11  C   UNL     1       3.494   6.051  17.887  0.00  0.00    +0.000 A 
ATOM     12  C   UNL     1       2.894   5.483  19.025  0.00  0.00    +0.000 A 
ATOM     13  C   UNL     1       3.343   4.218  19.477  0.00  0.00    +0.000 A 
ENDROOT
BRANCH   1  14
ATOM     14  C   UNL     1       2.149   7.402  20.366  0.00  0.00    +0.000 C 
BRANCH  14  21
ATOM     15  C   UNL     1      -1.988  12.083  23.169  0.00  0.00    +0.000 C 
ATOM     16  C   UNL     1      -0.980  11.109  22.626  0.00  0.00    +0.000 C 
ATOM     17  O   UNL     1      -0.269  10.467  23.399  0.00  0.00    +0.000 OA
ATOM     18  N   UNL     1      -0.955  11.072  21.251  0.00  0.00    +0.000 N 
ATOM     19  C   UNL     1      -0.086  10.244  20.593  0.00  0.00    +0.000 A 
ATOM     20  N   UNL     1       0.570   9.215  21.060  0.00  0.00    +0.000 NA
ATOM     21  C   UNL     1       1.383   8.671  20.068  0.00  0.00    +0.000 A 
ATOM     22  C   UNL     1       1.320   9.345  18.860  0.00  0.00    +0.000 A 
ATOM     23  S   UNL     1       0.153  10.607  18.944  0.00  0.00    +0.000 S 
ATOM     24  H   UNL     1      -1.454  11.754  20.699  0.00  0.00    +0.000 HD
ENDBRANCH  14  21
ENDBRANCH   1  14
TORSDOF 2
ENDMDL
