MODEL 1
REMARK VINA RESULT:      -7.7      0.000      0.000
REMARK  Name = 
REMARK  8 active torsions:
REMARK  status: ('A' for Active; 'I' for Inactive)
REMARK    1  A    between atoms: C_1  and  O_2
REMARK    2  A    between atoms: O_2  and  C_3
REMARK    3  A    between atoms: C_3  and  C_4
REMARK    4  A    between atoms: C_6  and  C_7
REMARK    5  A    between atoms: N_10  and  C_11
REMARK    6  A    between atoms: C_13  and  C_14
REMARK    7  A    between atoms: C_17  and  C_18
REMARK    8  A    between atoms: C_19  and  C_20
REMARK                            x       y       z     vdW  Elec       q    Type
REMARK                         _______ _______ _______ _____ _____    ______ ____
ROOT
ATOM      1  C   UNL     1       2.880   4.919  19.967  0.00  0.00    +0.000 A 
ATOM      2  C   UNL     1       2.520   6.152  19.408  0.00  0.00    +0.000 A 
ATOM      3  C   UNL     1       3.045   6.521  18.184  0.00  0.00    +0.000 A 
ATOM      4  C   UNL     1       2.766   7.866  17.584  0.00  0.00    +0.000 C 
ATOM      5  N   UNL     1       3.853   5.706  17.477  0.00  0.00    +0.000 NA
ATOM      6  C   UNL     1       4.208   4.500  17.984  0.00  0.00    +0.000 A 
ATOM      7  N   UNL     1       5.053   3.663  17.205  0.00  0.00    +0.000 N 
ATOM      8  C   UNL     1       3.776   4.097  19.254  0.00  0.00    +0.000 A 
ATOM      9  H   UNL     1       4.643   2.745  17.090  0.00  0.00    +0.000 HD
ENDROOT
BRANCH   7  10
ATOM     10  C   UNL     1       5.770   4.092  16.060  0.00  0.00    +0.000 A 
ATOM     11  C   UNL     1       5.341   3.661  14.791  0.00  0.00    +0.000 A 
ATOM     12  C   UNL     1       6.041   3.976  13.625  0.00  0.00    +0.000 A 
ATOM     13  C   UNL     1       5.600   3.424  12.304  0.00  0.00    +0.000 C 
ATOM     14  C   UNL     1       7.176   4.780  13.722  0.00  0.00    +0.000 A 
ATOM     15  C   UNL     1       7.604   5.246  14.967  0.00  0.00    +0.000 A 
ATOM     16  C   UNL     1       6.914   4.907  16.147  0.00  0.00    +0.000 A 
ATOM     17  C   UNL     1       7.462   5.390  17.462  0.00  0.00    +0.000 C 
ENDBRANCH   7  10
BRANCH   8  18
ATOM     18  C   UNL     1       4.308   2.903  19.840  0.00  0.00    +0.000 C 
ATOM     19  N   UNL     1       4.780   1.948  20.301  0.00  0.00    +0.000 NA
ENDBRANCH   8  18
BRANCH   1  20
ATOM     20  C   UNL     1       2.289   4.533  21.301  0.00  0.00    +0.000 C 
BRANCH  20  22
ATOM     21  C   UNL     1       1.318   2.446  21.816  0.00  0.00    +0.000 C 
ATOM     22  O   UNL     1       1.207   3.637  21.049  0.00  0.00    +0.000 OA
ENDBRANCH  20  22
ENDBRANCH   1  20
TORSDOF 4
ENDMDL
MODEL 2
REMARK VINA RESULT:      -6.4      2.051      3.606
REMARK  Name = 
REMARK  8 active torsions:
REMARK  status: ('A' for Active; 'I' for Inactive)
REMARK    1  A    between atoms: C_1  and  O_2
REMARK    2  A    between atoms: O_2  and  C_3
REMARK    3  A    between atoms: C_3  and  C_4
REMARK    4  A    between atoms: C_6  and  C_7
REMARK    5  A    between atoms: N_10  and  C_11
REMARK    6  A    between atoms: C_13  and  C_14
REMARK    7  A    between atoms: C_17  and  C_18
REMARK    8  A    between atoms: C_19  and  C_20
REMARK                            x       y       z     vdW  Elec       q    Type
REMARK                         _______ _______ _______ _____ _____    ______ ____
ROOT
ATOM      1  C   UNL     1       1.919   6.669  19.993  0.00  0.00    +0.000 A 
ATOM      2  C   UNL     1       2.168   5.378  20.478  0.00  0.00    +0.000 A 
ATOM      3  C   UNL     1       3.160   4.613  19.894  0.00  0.00    +0.000 A 
ATOM      4  C   UNL     1       3.406   3.196  20.312  0.00  0.00    +0.000 C 
ATOM      5  N   UNL     1       3.941   5.090  18.904  0.00  0.00    +0.000 NA
ATOM      6  C   UNL     1       3.735   6.341  18.423  0.00  0.00    +0.000 A 
ATOM      7  N   UNL     1       4.585   6.813  17.387  0.00  0.00    +0.000 N 
ATOM      8  C   UNL     1       2.695   7.140  18.915  0.00  0.00    +0.000 A 
ATOM      9  H   UNL     1       5.001   7.701  17.639  0.00  0.00    +0.000 HD
ENDROOT
BRANCH   7  10
ATOM     10  C   UNL     1       5.460   5.992  16.631  0.00  0.00    +0.000 A 
ATOM     11  C   UNL     1       4.994   5.437  15.424  0.00  0.00    +0.000 A 
ATOM     12  C   UNL     1       5.768   4.556  14.666  0.00  0.00    +0.000 A 
ATOM     13  C   UNL     1       5.203   3.921  13.434  0.00  0.00    +0.000 C 
ATOM     14  C   UNL     1       7.058   4.253  15.101  0.00  0.00    +0.000 A 
ATOM     15  C   UNL     1       7.553   4.816  16.279  0.00  0.00    +0.000 A 
ATOM     16  C   UNL     1       6.765   5.683  17.059  0.00  0.00    +0.000 A 
ATOM     17  C   UNL     1       7.334   6.205  18.350  0.00  0.00    +0.000 C 
ENDBRANCH   7  10
BRANCH   8  18
ATOM     18  C   UNL     1       2.386   8.381  18.270  0.00  0.00    +0.000 C 
ATOM     19  N   UNL     1       2.150   9.368  17.708  0.00  0.00    +0.000 NA
ENDBRANCH   8  18
BRANCH   1  20
ATOM     20  C   UNL     1       0.836   7.489  20.650  0.00  0.00    +0.000 C 
BRANCH  20  22
ATOM     21  C   UNL     1       0.546   9.279  22.159  0.00  0.00    +0.000 C 
ATOM     22  O   UNL     1       1.464   8.348  21.601  0.00  0.00    +0.000 OA
ENDBRANCH  20  22
ENDBRANCH   1  20
TORSDOF 4
ENDMDL
MODEL 3
REMARK VINA RESULT:      -6.1      3.036      6.057
REMARK  Name = 
REMARK  8 active torsions:
REMARK  status: ('A' for Active; 'I' for Inactive)
REMARK    1  A    between atoms: C_1  and  O_2
REMARK    2  A    between atoms: O_2  and  C_3
REMARK    3  A    between atoms: C_3  and  C_4
REMARK    4  A    between atoms: C_6  and  C_7
REMARK    5  A    between atoms: N_10  and  C_11
REMARK    6  A    between atoms: C_13  and  C_14
REMARK    7  A    between atoms: C_17  and  C_18
REMARK    8  A    between atoms: C_19  and  C_20
REMARK                            x       y       z     vdW  Elec       q    Type
REMARK                         _______ _______ _______ _____ _____    ______ ____
ROOT
ATOM      1  C   UNL     1       6.273   7.129  17.477  0.00  0.00    +0.000 A 
ATOM      2  C   UNL     1       5.129   7.934  17.403  0.00  0.00    +0.000 A 
ATOM      3  C   UNL     1       3.907   7.415  17.788  0.00  0.00    +0.000 A 
ATOM      4  C   UNL     1       2.640   8.202  17.643  0.00  0.00    +0.000 C 
ATOM      5  N   UNL     1       3.786   6.169  18.289  0.00  0.00    +0.000 NA
ATOM      6  C   UNL     1       4.876   5.371  18.387  0.00  0.00    +0.000 A 
ATOM      7  N   UNL     1       4.711   4.068  18.930  0.00  0.00    +0.000 N 
ATOM      8  C   UNL     1       6.131   5.806  17.942  0.00  0.00    +0.000 A 
ATOM      9  H   UNL     1       5.356   3.912  19.694  0.00  0.00    +0.000 HD
ENDROOT
BRANCH   7  10
ATOM     10  C   UNL     1       3.457   3.437  19.132  0.00  0.00    +0.000 A 
ATOM     11  C   UNL     1       2.958   3.325  20.444  0.00  0.00    +0.000 A 
ATOM     12  C   UNL     1       1.771   2.648  20.730  0.00  0.00    +0.000 A 
ATOM     13  C   UNL     1       1.321   2.477  22.148  0.00  0.00    +0.000 C 
ATOM     14  C   UNL     1       1.038   2.106  19.675  0.00  0.00    +0.000 A 
ATOM     15  C   UNL     1       1.497   2.231  18.362  0.00  0.00    +0.000 A 
ATOM     16  C   UNL     1       2.707   2.890  18.074  0.00  0.00    +0.000 A 
ATOM     17  C   UNL     1       3.177   2.936  16.646  0.00  0.00    +0.000 C 
ENDBRANCH   7  10
BRANCH   8  18
ATOM     18  C   UNL     1       7.226   4.884  17.890  0.00  0.00    +0.000 C 
ATOM     19  N   UNL     1       8.107   4.134  17.803  0.00  0.00    +0.000 NA
ENDBRANCH   8  18
BRANCH   1  20
ATOM     20  C   UNL     1       7.598   7.719  17.060  0.00  0.00    +0.000 C 
BRANCH  20  22
ATOM     21  C   UNL     1       8.512   9.560  18.217  0.00  0.00    +0.000 C 
ATOM     22  O   UNL     1       8.264   8.160  18.242  0.00  0.00    +0.000 OA
ENDBRANCH  20  22
ENDBRANCH   1  20
TORSDOF 4
ENDMDL
MODEL 4
REMARK VINA RESULT:      -5.9      2.892      6.816
REMARK  Name = 
REMARK  8 active torsions:
REMARK  status: ('A' for Active; 'I' for Inactive)
REMARK    1  A    between atoms: C_1  and  O_2
REMARK    2  A    between atoms: O_2  and  C_3
REMARK    3  A    between atoms: C_3  and  C_4
REMARK    4  A    between atoms: C_6  and  C_7
REMARK    5  A    between atoms: N_10  and  C_11
REMARK    6  A    between atoms: C_13  and  C_14
REMARK    7  A    between atoms: C_17  and  C_18
REMARK    8  A    between atoms: C_19  and  C_20
REMARK                            x       y       z     vdW  Elec       q    Type
REMARK                         _______ _______ _______ _____ _____    ______ ____
ROOT
ATOM      1  C   UNL     1       4.539   4.466  16.858  0.00  0.00    +0.000 A 
ATOM      2  C   UNL     1       3.443   3.641  17.144  0.00  0.00    +0.000 A 
ATOM      3  C   UNL     1       2.325   4.183  17.749  0.00  0.00    +0.000 A 
ATOM      4  C   UNL     1       1.163   3.329  18.159  0.00  0.00    +0.000 C 
ATOM      5  N   UNL     1       2.228   5.499  18.025  0.00  0.00    +0.000 NA
ATOM      6  C   UNL     1       3.265   6.326  17.746  0.00  0.00    +0.000 A 
ATOM      7  N   UNL     1       3.122   7.709  18.041  0.00  0.00    +0.000 N 
ATOM      8  C   UNL     1       4.458   5.829  17.206  0.00  0.00    +0.000 A 
ATOM      9  H   UNL     1       3.324   8.274  17.226  0.00  0.00    +0.000 HD
ENDROOT
BRANCH   7  10
ATOM     10  C   UNL     1       2.089   8.255  18.844  0.00  0.00    +0.000 A 
ATOM     11  C   UNL     1       1.366   9.361  18.360  0.00  0.00    +0.000 A 
ATOM     12  C   UNL     1       0.390  10.001  19.126  0.00  0.00    +0.000 A 
ATOM     13  C   UNL     1      -0.294  11.229  18.607  0.00  0.00    +0.000 C 
ATOM     14  C   UNL     1       0.094   9.498  20.392  0.00  0.00    +0.000 A 
ATOM     15  C   UNL     1       0.776   8.382  20.882  0.00  0.00    +0.000 A 
ATOM     16  C   UNL     1       1.780   7.751  20.122  0.00  0.00    +0.000 A 
ATOM     17  C   UNL     1       2.520   6.593  20.732  0.00  0.00    +0.000 C 
ENDBRANCH   7  10
BRANCH   8  18
ATOM     18  C   UNL     1       5.598   6.689  17.090  0.00  0.00    +0.000 C 
ATOM     19  N   UNL     1       6.494   7.421  17.006  0.00  0.00    +0.000 NA
ENDBRANCH   8  18
BRANCH   1  20
ATOM     20  C   UNL     1       5.746   3.855  16.191  0.00  0.00    +0.000 C 
BRANCH  20  22
ATOM     21  C   UNL     1       6.720   4.690  14.211  0.00  0.00    +0.000 C 
ATOM     22  O   UNL     1       5.596   4.034  14.783  0.00  0.00    +0.000 OA
ENDBRANCH  20  22
ENDBRANCH   1  20
TORSDOF 4
ENDMDL
MODEL 5
REMARK VINA RESULT:      -5.9      7.619     10.381
REMARK  Name = 
REMARK  8 active torsions:
REMARK  status: ('A' for Active; 'I' for Inactive)
REMARK    1  A    between atoms: C_1  and  O_2
REMARK    2  A    between atoms: O_2  and  C_3
REMARK    3  A    between atoms: C_3  and  C_4
REMARK    4  A    between atoms: C_6  and  C_7
REMARK    5  A    between atoms: N_10  and  C_11
REMARK    6  A    between atoms: C_13  and  C_14
REMARK    7  A    between atoms: C_17  and  C_18
REMARK    8  A    between atoms: C_19  and  C_20
REMARK                            x       y       z     vdW  Elec       q    Type
REMARK                         _______ _______ _______ _____ _____    ______ ____
ROOT
ATOM      1  C   UNL     1      -5.095  11.920  18.176  0.00  0.00    +0.000 A 
ATOM      2  C   UNL     1      -4.921  11.432  16.874  0.00  0.00    +0.000 A 
ATOM      3  C   UNL     1      -3.654  11.090  16.440  0.00  0.00    +0.000 A 
ATOM      4  C   UNL     1      -3.399  10.650  15.031  0.00  0.00    +0.000 C 
ATOM      5  N   UNL     1      -2.579  11.156  17.252  0.00  0.00    +0.000 NA
ATOM      6  C   UNL     1      -2.717  11.610  18.521  0.00  0.00    +0.000 A 
ATOM      7  N   UNL     1      -1.563  11.655  19.350  0.00  0.00    +0.000 N 
ATOM      8  C   UNL     1      -3.958  12.048  18.999  0.00  0.00    +0.000 A 
ATOM      9  H   UNL     1      -1.725  11.163  20.220  0.00  0.00    +0.000 HD
ENDROOT
BRANCH   7  10
ATOM     10  C   UNL     1      -0.233  11.516  18.880  0.00  0.00    +0.000 A 
ATOM     11  C   UNL     1       0.244  10.230  18.565  0.00  0.00    +0.000 A 
ATOM     12  C   UNL     1       1.565  10.004  18.173  0.00  0.00    +0.000 A 
ATOM     13  C   UNL     1       2.055   8.610  17.932  0.00  0.00    +0.000 C 
ATOM     14  C   UNL     1       2.422  11.096  18.048  0.00  0.00    +0.000 A 
ATOM     15  C   UNL     1       1.964  12.386  18.324  0.00  0.00    +0.000 A 
ATOM     16  C   UNL     1       0.640  12.613  18.746  0.00  0.00    +0.000 A 
ATOM     17  C   UNL     1       0.226  14.017  19.088  0.00  0.00    +0.000 C 
ENDBRANCH   7  10
BRANCH   8  18
ATOM     18  C   UNL     1      -4.042  12.688  20.278  0.00  0.00    +0.000 C 
ATOM     19  N   UNL     1      -4.098  13.245  21.294  0.00  0.00    +0.000 NA
ENDBRANCH   8  18
BRANCH   1  20
ATOM     20  C   UNL     1      -6.488  12.280  18.630  0.00  0.00    +0.000 C 
BRANCH  20  22
ATOM     21  C   UNL     1      -7.199  10.573  20.094  0.00  0.00    +0.000 C 
ATOM     22  O   UNL     1      -7.225  11.065  18.761  0.00  0.00    +0.000 OA
ENDBRANCH  20  22
ENDBRANCH   1  20
TORSDOF 4
ENDMDL
MODEL 6
REMARK VINA RESULT:      -5.8      7.838     10.696
REMARK  Name = 
REMARK  8 active torsions:
REMARK  status: ('A' for Active; 'I' for Inactive)
REMARK    1  A    between atoms: C_1  and  O_2
REMARK    2  A    between atoms: O_2  and  C_3
REMARK    3  A    between atoms: C_3  and  C_4
REMARK    4  A    between atoms: C_6  and  C_7
REMARK    5  A    between atoms: N_10  and  C_11
REMARK    6  A    between atoms: C_13  and  C_14
REMARK    7  A    between atoms: C_17  and  C_18
REMARK    8  A    between atoms: C_19  and  C_20
REMARK                            x       y       z     vdW  Elec       q    Type
REMARK                         _______ _______ _______ _____ _____    ______ ____
ROOT
ATOM      1  C   UNL     1      -5.156  11.627  17.802  0.00  0.00    +0.000 A 
ATOM      2  C   UNL     1      -4.871  11.149  16.516  0.00  0.00    +0.000 A 
ATOM      3  C   UNL     1      -3.559  10.901  16.159  0.00  0.00    +0.000 A 
ATOM      4  C   UNL     1      -3.190  10.477  14.770  0.00  0.00    +0.000 C 
ATOM      5  N   UNL     1      -2.540  11.050  17.030  0.00  0.00    +0.000 NA
ATOM      6  C   UNL     1      -2.785  11.496  18.286  0.00  0.00    +0.000 A 
ATOM      7  N   UNL     1      -1.688  11.630  19.180  0.00  0.00    +0.000 N 
ATOM      8  C   UNL     1      -4.082  11.842  18.689  0.00  0.00    +0.000 A 
ATOM      9  H   UNL     1      -1.863  11.130  20.043  0.00  0.00    +0.000 HD
ENDROOT
BRANCH   7  10
ATOM     10  C   UNL     1      -0.326  11.589  18.788  0.00  0.00    +0.000 A 
ATOM     11  C   UNL     1       0.258  10.342  18.498  0.00  0.00    +0.000 A 
ATOM     12  C   UNL     1       1.613  10.214  18.183  0.00  0.00    +0.000 A 
ATOM     13  C   UNL     1       2.214   8.859  17.966  0.00  0.00    +0.000 C 
ATOM     14  C   UNL     1       2.396  11.365  18.113  0.00  0.00    +0.000 A 
ATOM     15  C   UNL     1       1.832  12.617  18.367  0.00  0.00    +0.000 A 
ATOM     16  C   UNL     1       0.472  12.746  18.711  0.00  0.00    +0.000 A 
ATOM     17  C   UNL     1      -0.059  14.115  19.033  0.00  0.00    +0.000 C 
ENDBRANCH   7  10
BRANCH   8  18
ATOM     18  C   UNL     1      -4.287  12.477  19.955  0.00  0.00    +0.000 C 
ATOM     19  N   UNL     1      -4.416  13.017  20.975  0.00  0.00    +0.000 NA
ENDBRANCH   8  18
BRANCH   1  20
ATOM     20  C   UNL     1      -6.596  11.883  18.172  0.00  0.00    +0.000 C 
BRANCH  20  22
ATOM     21  C   UNL     1      -7.863  13.845  17.840  0.00  0.00    +0.000 C 
ATOM     22  O   UNL     1      -7.129  12.799  17.217  0.00  0.00    +0.000 OA
ENDBRANCH  20  22
ENDBRANCH   1  20
TORSDOF 4
ENDMDL
MODEL 7
REMARK VINA RESULT:      -5.7      2.178      2.844
REMARK  Name = 
REMARK  8 active torsions:
REMARK  status: ('A' for Active; 'I' for Inactive)
REMARK    1  A    between atoms: C_1  and  O_2
REMARK    2  A    between atoms: O_2  and  C_3
REMARK    3  A    between atoms: C_3  and  C_4
REMARK    4  A    between atoms: C_6  and  C_7
REMARK    5  A    between atoms: N_10  and  C_11
REMARK    6  A    between atoms: C_13  and  C_14
REMARK    7  A    between atoms: C_17  and  C_18
REMARK    8  A    between atoms: C_19  and  C_20
REMARK                            x       y       z     vdW  Elec       q    Type
REMARK                         _______ _______ _______ _____ _____    ______ ____
ROOT
ATOM      1  C   UNL     1       1.540   7.175  20.266  0.00  0.00    +0.000 A 
ATOM      2  C   UNL     1       1.683   8.289  19.428  0.00  0.00    +0.000 A 
ATOM      3  C   UNL     1       2.572   8.234  18.371  0.00  0.00    +0.000 A 
ATOM      4  C   UNL     1       2.830   9.426  17.500  0.00  0.00    +0.000 C 
ATOM      5  N   UNL     1       3.270   7.117  18.082  0.00  0.00    +0.000 NA
ATOM      6  C   UNL     1       3.143   6.019  18.865  0.00  0.00    +0.000 A 
ATOM      7  N   UNL     1       3.887   4.857  18.522  0.00  0.00    +0.000 N 
ATOM      8  C   UNL     1       2.320   6.032  19.998  0.00  0.00    +0.000 A 
ATOM      9  H   UNL     1       3.280   4.051  18.445  0.00  0.00    +0.000 HD
ENDROOT
BRANCH   7  10
ATOM     10  C   UNL     1       4.952   4.835  17.586  0.00  0.00    +0.000 A 
ATOM     11  C   UNL     1       4.669   4.510  16.246  0.00  0.00    +0.000 A 
ATOM     12  C   UNL     1       5.675   4.391  15.284  0.00  0.00    +0.000 A 
ATOM     13  C   UNL     1       5.340   3.958  13.890  0.00  0.00    +0.000 C 
ATOM     14  C   UNL     1       6.993   4.644  15.659  0.00  0.00    +0.000 A 
ATOM     15  C   UNL     1       7.295   4.998  16.976  0.00  0.00    +0.000 A 
ATOM     16  C   UNL     1       6.286   5.093  17.953  0.00  0.00    +0.000 A 
ATOM     17  C   UNL     1       6.684   5.417  19.366  0.00  0.00    +0.000 C 
ENDBRANCH   7  10
BRANCH   8  18
ATOM     18  C   UNL     1       2.342   4.925  20.905  0.00  0.00    +0.000 C 
ATOM     19  N   UNL     1       2.323   4.010  21.620  0.00  0.00    +0.000 NA
ENDBRANCH   8  18
BRANCH   1  20
ATOM     20  C   UNL     1       0.559   7.255  21.410  0.00  0.00    +0.000 C 
BRANCH  20  22
ATOM     21  C   UNL     1      -0.038   9.209  22.587  0.00  0.00    +0.000 C 
ATOM     22  O   UNL     1      -0.080   8.529  21.340  0.00  0.00    +0.000 OA
ENDBRANCH  20  22
ENDBRANCH   1  20
TORSDOF 4
ENDMDL
MODEL 8
REMARK VINA RESULT:      -5.7      1.295      2.729
REMARK  Name = 
REMARK  8 active torsions:
REMARK  status: ('A' for Active; 'I' for Inactive)
REMARK    1  A    between atoms: C_1  and  O_2
REMARK    2  A    between atoms: O_2  and  C_3
REMARK    3  A    between atoms: C_3  and  C_4
REMARK    4  A    between atoms: C_6  and  C_7
REMARK    5  A    between atoms: N_10  and  C_11
REMARK    6  A    between atoms: C_13  and  C_14
REMARK    7  A    between atoms: C_17  and  C_18
REMARK    8  A    between atoms: C_19  and  C_20
REMARK                            x       y       z     vdW  Elec       q    Type
REMARK                         _______ _______ _______ _____ _____    ______ ____
ROOT
ATOM      1  C   UNL     1       2.619   3.943  20.702  0.00  0.00    +0.000 A 
ATOM      2  C   UNL     1       2.079   5.210  20.442  0.00  0.00    +0.000 A 
ATOM      3  C   UNL     1       2.703   6.039  19.530  0.00  0.00    +0.000 A 
ATOM      4  C   UNL     1       2.221   7.437  19.282  0.00  0.00    +0.000 C 
ATOM      5  N   UNL     1       3.789   5.647  18.833  0.00  0.00    +0.000 NA
ATOM      6  C   UNL     1       4.326   4.422  19.051  0.00  0.00    +0.000 A 
ATOM      7  N   UNL     1       5.464   4.040  18.290  0.00  0.00    +0.000 N 
ATOM      8  C   UNL     1       3.791   3.562  20.018  0.00  0.00    +0.000 A 
ATOM      9  H   UNL     1       5.308   3.153  17.829  0.00  0.00    +0.000 HD
ENDROOT
BRANCH   7  10
ATOM     10  C   UNL     1       6.244   4.933  17.512  0.00  0.00    +0.000 A 
ATOM     11  C   UNL     1       6.842   6.038  18.146  0.00  0.00    +0.000 A 
ATOM     12  C   UNL     1       7.558   7.003  17.434  0.00  0.00    +0.000 A 
ATOM     13  C   UNL     1       8.103   8.210  18.133  0.00  0.00    +0.000 C 
ATOM     14  C   UNL     1       7.720   6.838  16.059  0.00  0.00    +0.000 A 
ATOM     15  C   UNL     1       7.162   5.733  15.413  0.00  0.00    +0.000 A 
ATOM     16  C   UNL     1       6.417   4.773  16.124  0.00  0.00    +0.000 A 
ATOM     17  C   UNL     1       5.791   3.640  15.360  0.00  0.00    +0.000 C 
ENDBRANCH   7  10
BRANCH   8  18
ATOM     18  C   UNL     1       4.481   2.353  20.354  0.00  0.00    +0.000 C 
ATOM     19  N   UNL     1       5.045   1.365  20.582  0.00  0.00    +0.000 NA
ENDBRANCH   8  18
BRANCH   1  20
ATOM     20  C   UNL     1       1.916   3.051  21.696  0.00  0.00    +0.000 C 
BRANCH  20  22
ATOM     21  C   UNL     1       0.780   2.293  19.772  0.00  0.00    +0.000 C 
ATOM     22  O   UNL     1       0.657   2.687  21.133  0.00  0.00    +0.000 OA
ENDBRANCH  20  22
ENDBRANCH   1  20
TORSDOF 4
ENDMDL
MODEL 9
REMARK VINA RESULT:      -5.6      1.259      2.757
REMARK  Name = 
REMARK  8 active torsions:
REMARK  status: ('A' for Active; 'I' for Inactive)
REMARK    1  A    between atoms: C_1  and  O_2
REMARK    2  A    between atoms: O_2  and  C_3
REMARK    3  A    between atoms: C_3  and  C_4
REMARK    4  A    between atoms: C_6  and  C_7
REMARK    5  A    between atoms: N_10  and  C_11
REMARK    6  A    between atoms: C_13  and  C_14
REMARK    7  A    between atoms: C_17  and  C_18
REMARK    8  A    between atoms: C_19  and  C_20
REMARK                            x       y       z     vdW  Elec       q    Type
REMARK                         _______ _______ _______ _____ _____    ______ ____
ROOT
ATOM      1  C   UNL     1       2.302   4.171  19.299  0.00  0.00    +0.000 A 
ATOM      2  C   UNL     1       2.685   2.825  19.225  0.00  0.00    +0.000 A 
ATOM      3  C   UNL     1       3.644   2.441  18.306  0.00  0.00    +0.000 A 
ATOM      4  C   UNL     1       4.024   1.003  18.122  0.00  0.00    +0.000 C 
ATOM      5  N   UNL     1       4.270   3.333  17.512  0.00  0.00    +0.000 NA
ATOM      6  C   UNL     1       3.933   4.644  17.570  0.00  0.00    +0.000 A 
ATOM      7  N   UNL     1       4.622   5.556  16.726  0.00  0.00    +0.000 N 
ATOM      8  C   UNL     1       2.913   5.089  18.422  0.00  0.00    +0.000 A 
ATOM      9  H   UNL     1       5.011   6.321  17.262  0.00  0.00    +0.000 HD
ENDROOT
BRANCH   7  10
ATOM     10  C   UNL     1       5.447   5.173  15.637  0.00  0.00    +0.000 A 
ATOM     11  C   UNL     1       4.849   4.578  14.511  0.00  0.00    +0.000 A 
ATOM     12  C   UNL     1       5.603   4.103  13.436  0.00  0.00    +0.000 A 
ATOM     13  C   UNL     1       4.935   3.397  12.297  0.00  0.00    +0.000 C 
ATOM     14  C   UNL     1       6.987   4.265  13.465  0.00  0.00    +0.000 A 
ATOM     15  C   UNL     1       7.601   4.881  14.558  0.00  0.00    +0.000 A 
ATOM     16  C   UNL     1       6.845   5.337  15.655  0.00  0.00    +0.000 A 
ATOM     17  C   UNL     1       7.571   5.935  16.829  0.00  0.00    +0.000 C 
ENDBRANCH   7  10
BRANCH   8  18
ATOM     18  C   UNL     1       2.455   6.443  18.335  0.00  0.00    +0.000 C 
ATOM     19  N   UNL     1       2.110   7.546  18.229  0.00  0.00    +0.000 NA
ENDBRANCH   8  18
BRANCH   1  20
ATOM     20  C   UNL     1       1.259   4.568  20.315  0.00  0.00    +0.000 C 
BRANCH  20  22
ATOM     21  C   UNL     1       1.387   2.817  21.890  0.00  0.00    +0.000 C 
ATOM     22  O   UNL     1       0.657   3.370  20.804  0.00  0.00    +0.000 OA
ENDBRANCH  20  22
ENDBRANCH   1  20
TORSDOF 4
ENDMDL
