MODEL 1
REMARK VINA RESULT:      -6.5      0.000      0.000
REMARK  Name = 
REMARK  16 active torsions:
REMARK  status: ('A' for Active; 'I' for Inactive)
REMARK    1  A    between atoms: C_1  and  O_2
REMARK    2  A    between atoms: O_2  and  C_3
REMARK    3  A    between atoms: C_3  and  C_4
REMARK    4  A    between atoms: C_4  and  N_5
REMARK    5  A    between atoms: N_5  and  C_6
REMARK    6  A    between atoms: N_5  and  C_17
REMARK    7  A    between atoms: C_6  and  C_7
REMARK    8  A    between atoms: C_10  and  O_11
REMARK    9  A    between atoms: O_11  and  C_12
REMARK   10  A    between atoms: C_13  and  O_14
REMARK   11  A    between atoms: O_14  and  C_15
REMARK   12  A    between atoms: C_17  and  C_18
REMARK   13  A    between atoms: N_21  and  C_22
REMARK   14  A    between atoms: C_22  and  C_23
REMARK   15  A    between atoms: C_28  and  O_29
REMARK   16  A    between atoms: O_29  and  C_30
REMARK                            x       y       z     vdW  Elec       q    Type
REMARK                         _______ _______ _______ _____ _____    ______ ____
ROOT
ATOM      1  N   UNL     1       2.673   5.437  19.279  0.00  0.00    +0.000 NA
ENDROOT
BRANCH   1   2
ATOM      2  C   UNL     1       1.802   4.272  18.983  0.00  0.00    +0.000 C 
BRANCH   2   3
ATOM      3  C   UNL     1       1.931   3.750  17.534  0.00  0.00    +0.000 C 
BRANCH   3   5
ATOM      4  C   UNL     1       2.480   1.829  18.758  0.00  0.00    +0.000 C 
ATOM      5  O   UNL     1       2.023   2.323  17.500  0.00  0.00    +0.000 OA
ENDBRANCH   3   5
ENDBRANCH   2   3
ENDBRANCH   1   2
BRANCH   1   6
ATOM      6  C   UNL     1       2.189   6.128  20.505  0.00  0.00    +0.000 C 
BRANCH   6   7
ATOM      7  C   UNL     1       1.676   7.530  20.262  0.00  0.00    +0.000 A 
ATOM      8  C   UNL     1       1.931   8.180  19.053  0.00  0.00    +0.000 A 
ATOM      9  C   UNL     1       1.336   9.412  18.793  0.00  0.00    +0.000 A 
ATOM     10  C   UNL     1       0.503  10.030  19.737  0.00  0.00    +0.000 A 
ATOM     11  C   UNL     1       0.339   9.434  20.998  0.00  0.00    +0.000 A 
ATOM     12  C   UNL     1       0.902   8.175  21.238  0.00  0.00    +0.000 A 
BRANCH  10  13
ATOM     13  O   UNL     1      -0.040  11.199  19.273  0.00  0.00    +0.000 OA
ATOM     14  C   UNL     1      -1.333  11.143  18.691  0.00  0.00    +0.000 C 
ENDBRANCH  10  13
BRANCH  11  15
ATOM     15  O   UNL     1      -0.405  10.071  21.957  0.00  0.00    +0.000 OA
ATOM     16  C   UNL     1      -0.112   9.691  23.299  0.00  0.00    +0.000 C 
ENDBRANCH  11  15
ENDBRANCH   6   7
ENDBRANCH   1   6
BRANCH   1  17
ATOM     17  C   UNL     1       4.085   5.024  19.474  0.00  0.00    +0.000 C 
BRANCH  17  18
ATOM     18  C   UNL     1       5.232   5.983  19.047  0.00  0.00    +0.000 C 
ATOM     19  C   UNL     1       4.836   6.726  17.759  0.00  0.00    +0.000 C 
ATOM     20  C   UNL     1       4.787   5.799  16.536  0.00  0.00    +0.000 C 
ATOM     21  N   UNL     1       6.024   5.034  16.305  0.00  0.00    +0.000 NA
ATOM     22  C   UNL     1       6.521   4.384  17.535  0.00  0.00    +0.000 C 
ATOM     23  C   UNL     1       6.575   5.304  18.757  0.00  0.00    +0.000 C 
BRANCH  21  24
ATOM     24  C   UNL     1       5.822   3.988  15.258  0.00  0.00    +0.000 C 
BRANCH  24  25
ATOM     25  C   UNL     1       6.509   4.265  13.937  0.00  0.00    +0.000 A 
ATOM     26  C   UNL     1       7.495   5.276  13.932  0.00  0.00    +0.000 A 
ATOM     27  C   UNL     1       8.197   5.623  12.775  0.00  0.00    +0.000 A 
ATOM     28  C   UNL     1       7.916   4.967  11.587  0.00  0.00    +0.000 A 
ATOM     29  C   UNL     1       6.923   3.988  11.559  0.00  0.00    +0.000 A 
ATOM     30  C   UNL     1       6.216   3.629  12.720  0.00  0.00    +0.000 A 
BRANCH  30  31
ATOM     31  O   UNL     1       5.179   2.768  12.479  0.00  0.00    +0.000 OA
ATOM     32  C   UNL     1       4.230   3.166  11.494  0.00  0.00    +0.000 C 
ENDBRANCH  30  31
ENDBRANCH  24  25
ENDBRANCH  21  24
ENDBRANCH  17  18
ENDBRANCH   1  17
TORSDOF 12
ENDMDL
MODEL 2
REMARK VINA RESULT:      -6.4      2.635      9.309
REMARK  Name = 
REMARK  16 active torsions:
REMARK  status: ('A' for Active; 'I' for Inactive)
REMARK    1  A    between atoms: C_1  and  O_2
REMARK    2  A    between atoms: O_2  and  C_3
REMARK    3  A    between atoms: C_3  and  C_4
REMARK    4  A    between atoms: C_4  and  N_5
REMARK    5  A    between atoms: N_5  and  C_6
REMARK    6  A    between atoms: N_5  and  C_17
REMARK    7  A    between atoms: C_6  and  C_7
REMARK    8  A    between atoms: C_10  and  O_11
REMARK    9  A    between atoms: O_11  and  C_12
REMARK   10  A    between atoms: C_13  and  O_14
REMARK   11  A    between atoms: O_14  and  C_15
REMARK   12  A    between atoms: C_17  and  C_18
REMARK   13  A    between atoms: N_21  and  C_22
REMARK   14  A    between atoms: C_22  and  C_23
REMARK   15  A    between atoms: C_28  and  O_29
REMARK   16  A    between atoms: O_29  and  C_30
REMARK                            x       y       z     vdW  Elec       q    Type
REMARK                         _______ _______ _______ _____ _____    ______ ____
ROOT
ATOM      1  N   UNL     1       2.420   6.572  19.871  0.00  0.00    +0.000 NA
ENDROOT
BRANCH   1   2
ATOM      2  C   UNL     1       1.741   5.611  20.777  0.00  0.00    +0.000 C 
BRANCH   2   3
ATOM      3  C   UNL     1       2.353   4.193  20.752  0.00  0.00    +0.000 C 
BRANCH   3   5
ATOM      4  C   UNL     1       1.538   2.244  19.739  0.00  0.00    +0.000 C 
ATOM      5  O   UNL     1       1.339   3.186  20.793  0.00  0.00    +0.000 OA
ENDBRANCH   3   5
ENDBRANCH   2   3
ENDBRANCH   1   2
BRANCH   1   6
ATOM      6  C   UNL     1       2.275   6.120  18.460  0.00  0.00    +0.000 C 
BRANCH   6   7
ATOM      7  C   UNL     1       3.575   5.700  17.810  0.00  0.00    +0.000 A 
ATOM      8  C   UNL     1       3.740   4.400  17.328  0.00  0.00    +0.000 A 
ATOM      9  C   UNL     1       4.888   4.071  16.611  0.00  0.00    +0.000 A 
ATOM     10  C   UNL     1       5.900   5.015  16.387  0.00  0.00    +0.000 A 
ATOM     11  C   UNL     1       5.789   6.288  16.970  0.00  0.00    +0.000 A 
ATOM     12  C   UNL     1       4.614   6.628  17.650  0.00  0.00    +0.000 A 
BRANCH  10  13
ATOM     13  O   UNL     1       6.913   4.523  15.608  0.00  0.00    +0.000 OA
ATOM     14  C   UNL     1       6.835   4.737  14.206  0.00  0.00    +0.000 C 
ENDBRANCH  10  13
BRANCH  11  15
ATOM     15  O   UNL     1       6.811   7.190  16.827  0.00  0.00    +0.000 OA
ATOM     16  C   UNL     1       7.702   7.273  17.936  0.00  0.00    +0.000 C 
ENDBRANCH  11  15
ENDBRANCH   6   7
ENDBRANCH   1   6
BRANCH   1  17
ATOM     17  C   UNL     1       1.858   7.938  20.008  0.00  0.00    +0.000 C 
BRANCH  17  18
ATOM     18  C   UNL     1       1.210   8.371  21.354  0.00  0.00    +0.000 C 
ATOM     19  C   UNL     1      -0.324   8.332  21.228  0.00  0.00    +0.000 C 
ATOM     20  C   UNL     1      -0.866   9.428  20.300  0.00  0.00    +0.000 C 
ATOM     21  N   UNL     1      -0.434  10.791  20.652  0.00  0.00    +0.000 NA
ATOM     22  C   UNL     1       1.022  10.874  20.897  0.00  0.00    +0.000 C 
ATOM     23  C   UNL     1       1.568   9.786  21.824  0.00  0.00    +0.000 C 
BRANCH  21  24
ATOM     24  C   UNL     1      -0.795  11.764  19.579  0.00  0.00    +0.000 C 
BRANCH  24  25
ATOM     25  C   UNL     1      -2.282  11.932  19.342  0.00  0.00    +0.000 A 
ATOM     26  C   UNL     1      -3.013  12.608  20.343  0.00  0.00    +0.000 A 
ATOM     27  C   UNL     1      -4.389  12.823  20.241  0.00  0.00    +0.000 A 
ATOM     28  C   UNL     1      -5.070  12.352  19.129  0.00  0.00    +0.000 A 
ATOM     29  C   UNL     1      -4.376  11.652  18.143  0.00  0.00    +0.000 A 
ATOM     30  C   UNL     1      -2.990  11.437  18.236  0.00  0.00    +0.000 A 
BRANCH  30  31
ATOM     31  O   UNL     1      -2.505  10.603  17.264  0.00  0.00    +0.000 OA
ATOM     32  C   UNL     1      -2.697  11.011  15.914  0.00  0.00    +0.000 C 
ENDBRANCH  30  31
ENDBRANCH  24  25
ENDBRANCH  21  24
ENDBRANCH  17  18
ENDBRANCH   1  17
TORSDOF 12
ENDMDL
MODEL 3
REMARK VINA RESULT:      -6.4      2.229      9.023
REMARK  Name = 
REMARK  16 active torsions:
REMARK  status: ('A' for Active; 'I' for Inactive)
REMARK    1  A    between atoms: C_1  and  O_2
REMARK    2  A    between atoms: O_2  and  C_3
REMARK    3  A    between atoms: C_3  and  C_4
REMARK    4  A    between atoms: C_4  and  N_5
REMARK    5  A    between atoms: N_5  and  C_6
REMARK    6  A    between atoms: N_5  and  C_17
REMARK    7  A    between atoms: C_6  and  C_7
REMARK    8  A    between atoms: C_10  and  O_11
REMARK    9  A    between atoms: O_11  and  C_12
REMARK   10  A    between atoms: C_13  and  O_14
REMARK   11  A    between atoms: O_14  and  C_15
REMARK   12  A    between atoms: C_17  and  C_18
REMARK   13  A    between atoms: N_21  and  C_22
REMARK   14  A    between atoms: C_22  and  C_23
REMARK   15  A    between atoms: C_28  and  O_29
REMARK   16  A    between atoms: O_29  and  C_30
REMARK                            x       y       z     vdW  Elec       q    Type
REMARK                         _______ _______ _______ _____ _____    ______ ____
ROOT
ATOM      1  N   UNL     1       4.131   3.711  18.811  0.00  0.00    +0.000 NA
ENDROOT
BRANCH   1   2
ATOM      2  C   UNL     1       3.581   2.512  19.492  0.00  0.00    +0.000 C 
BRANCH   2   3
ATOM      3  C   UNL     1       4.179   2.263  20.895  0.00  0.00    +0.000 C 
BRANCH   3   5
ATOM      4  C   UNL     1       1.875   2.266  21.325  0.00  0.00    +0.000 C 
ATOM      5  O   UNL     1       3.175   2.339  21.911  0.00  0.00    +0.000 OA
ENDBRANCH   3   5
ENDBRANCH   2   3
ENDBRANCH   1   2
BRANCH   1   6
ATOM      6  C   UNL     1       3.934   3.590  17.340  0.00  0.00    +0.000 C 
BRANCH   6   7
ATOM      7  C   UNL     1       5.111   4.066  16.519  0.00  0.00    +0.000 A 
ATOM      8  C   UNL     1       5.395   3.485  15.281  0.00  0.00    +0.000 A 
ATOM      9  C   UNL     1       6.396   4.027  14.478  0.00  0.00    +0.000 A 
ATOM     10  C   UNL     1       7.147   5.133  14.901  0.00  0.00    +0.000 A 
ATOM     11  C   UNL     1       6.942   5.646  16.192  0.00  0.00    +0.000 A 
ATOM     12  C   UNL     1       5.905   5.128  16.977  0.00  0.00    +0.000 A 
BRANCH  10  13
ATOM     13  O   UNL     1       8.033   5.561  13.949  0.00  0.00    +0.000 OA
ATOM     14  C   UNL     1       7.795   5.179  12.602  0.00  0.00    +0.000 C 
ENDBRANCH  10  13
BRANCH  11  15
ATOM     15  O   UNL     1       7.727   6.674  16.646  0.00  0.00    +0.000 OA
ATOM     16  C   UNL     1       7.712   6.866  18.058  0.00  0.00    +0.000 C 
ENDBRANCH  11  15
ENDBRANCH   6   7
ENDBRANCH   1   6
BRANCH   1  17
ATOM     17  C   UNL     1       3.479   4.955  19.291  0.00  0.00    +0.000 C 
BRANCH  17  18
ATOM     18  C   UNL     1       1.983   5.216  18.959  0.00  0.00    +0.000 C 
ATOM     19  C   UNL     1       1.847   6.528  18.166  0.00  0.00    +0.000 C 
ATOM     20  C   UNL     1       2.156   7.766  19.020  0.00  0.00    +0.000 C 
ATOM     21  N   UNL     1       1.372   7.857  20.263  0.00  0.00    +0.000 NA
ATOM     22  C   UNL     1       1.369   6.588  21.020  0.00  0.00    +0.000 C 
ATOM     23  C   UNL     1       1.059   5.350  20.175  0.00  0.00    +0.000 C 
BRANCH  21  24
ATOM     24  C   UNL     1       1.891   8.942  21.148  0.00  0.00    +0.000 C 
BRANCH  24  25
ATOM     25  C   UNL     1       0.840   9.898  21.671  0.00  0.00    +0.000 A 
ATOM     26  C   UNL     1       0.041   9.442  22.742  0.00  0.00    +0.000 A 
ATOM     27  C   UNL     1      -0.963  10.231  23.309  0.00  0.00    +0.000 A 
ATOM     28  C   UNL     1      -1.197  11.500  22.804  0.00  0.00    +0.000 A 
ATOM     29  C   UNL     1      -0.443  11.960  21.724  0.00  0.00    +0.000 A 
ATOM     30  C   UNL     1       0.572  11.174  21.152  0.00  0.00    +0.000 A 
BRANCH  30  31
ATOM     31  O   UNL     1       1.100  11.718  20.011  0.00  0.00    +0.000 OA
ATOM     32  C   UNL     1       0.196  11.962  18.939  0.00  0.00    +0.000 C 
ENDBRANCH  30  31
ENDBRANCH  24  25
ENDBRANCH  21  24
ENDBRANCH  17  18
ENDBRANCH   1  17
TORSDOF 12
ENDMDL
MODEL 4
REMARK VINA RESULT:      -6.3      3.573      9.308
REMARK  Name = 
REMARK  16 active torsions:
REMARK  status: ('A' for Active; 'I' for Inactive)
REMARK    1  A    between atoms: C_1  and  O_2
REMARK    2  A    between atoms: O_2  and  C_3
REMARK    3  A    between atoms: C_3  and  C_4
REMARK    4  A    between atoms: C_4  and  N_5
REMARK    5  A    between atoms: N_5  and  C_6
REMARK    6  A    between atoms: N_5  and  C_17
REMARK    7  A    between atoms: C_6  and  C_7
REMARK    8  A    between atoms: C_10  and  O_11
REMARK    9  A    between atoms: O_11  and  C_12
REMARK   10  A    between atoms: C_13  and  O_14
REMARK   11  A    between atoms: O_14  and  C_15
REMARK   12  A    between atoms: C_17  and  C_18
REMARK   13  A    between atoms: N_21  and  C_22
REMARK   14  A    between atoms: C_22  and  C_23
REMARK   15  A    between atoms: C_28  and  O_29
REMARK   16  A    between atoms: O_29  and  C_30
REMARK                            x       y       z     vdW  Elec       q    Type
REMARK                         _______ _______ _______ _____ _____    ______ ____
ROOT
ATOM      1  N   UNL     1       2.428   7.191  19.563  0.00  0.00    +0.000 NA
ENDROOT
BRANCH   1   2
ATOM      2  C   UNL     1       1.745   6.364  20.590  0.00  0.00    +0.000 C 
BRANCH   2   3
ATOM      3  C   UNL     1       1.969   4.845  20.415  0.00  0.00    +0.000 C 
BRANCH   3   5
ATOM      4  C   UNL     1       0.993   2.851  19.666  0.00  0.00    +0.000 C 
ATOM      5  O   UNL     1       0.738   4.160  20.174  0.00  0.00    +0.000 OA
ENDBRANCH   3   5
ENDBRANCH   2   3
ENDBRANCH   1   2
BRANCH   1   6
ATOM      6  C   UNL     1       2.325   6.529  18.233  0.00  0.00    +0.000 C 
BRANCH   6   7
ATOM      7  C   UNL     1       3.657   6.127  17.639  0.00  0.00    +0.000 A 
ATOM      8  C   UNL     1       3.853   4.837  17.143  0.00  0.00    +0.000 A 
ATOM      9  C   UNL     1       5.037   4.527  16.476  0.00  0.00    +0.000 A 
ATOM     10  C   UNL     1       6.051   5.481  16.317  0.00  0.00    +0.000 A 
ATOM     11  C   UNL     1       5.904   6.743  16.916  0.00  0.00    +0.000 A 
ATOM     12  C   UNL     1       4.696   7.065  17.545  0.00  0.00    +0.000 A 
BRANCH  10  13
ATOM     13  O   UNL     1       7.104   5.010  15.578  0.00  0.00    +0.000 OA
ATOM     14  C   UNL     1       6.824   4.465  14.297  0.00  0.00    +0.000 C 
ENDBRANCH  10  13
BRANCH  11  15
ATOM     15  O   UNL     1       6.926   7.654  16.837  0.00  0.00    +0.000 OA
ATOM     16  C   UNL     1       7.855   7.612  17.916  0.00  0.00    +0.000 C 
ENDBRANCH  11  15
ENDBRANCH   6   7
ENDBRANCH   1   6
BRANCH   1  17
ATOM     17  C   UNL     1       1.839   8.550  19.479  0.00  0.00    +0.000 C 
BRANCH  17  18
ATOM     18  C   UNL     1       1.397   9.112  18.098  0.00  0.00    +0.000 C 
ATOM     19  C   UNL     1       2.345  10.248  17.672  0.00  0.00    +0.000 C 
ATOM     20  C   UNL     1       2.187  11.503  18.540  0.00  0.00    +0.000 C 
ATOM     21  N   UNL     1       0.809  12.016  18.622  0.00  0.00    +0.000 NA
ATOM     22  C   UNL     1      -0.170  10.949  18.920  0.00  0.00    +0.000 C 
ATOM     23  C   UNL     1      -0.020   9.695  18.055  0.00  0.00    +0.000 C 
BRANCH  21  24
ATOM     24  C   UNL     1       0.691  13.079  19.663  0.00  0.00    +0.000 C 
BRANCH  24  25
ATOM     25  C   UNL     1       0.846  14.496  19.150  0.00  0.00    +0.000 A 
ATOM     26  C   UNL     1      -0.341  15.189  18.828  0.00  0.00    +0.000 A 
ATOM     27  C   UNL     1      -0.328  16.500  18.345  0.00  0.00    +0.000 A 
ATOM     28  C   UNL     1       0.885  17.145  18.161  0.00  0.00    +0.000 A 
ATOM     29  C   UNL     1       2.073  16.469  18.441  0.00  0.00    +0.000 A 
ATOM     30  C   UNL     1       2.067  15.152  18.933  0.00  0.00    +0.000 A 
BRANCH  30  31
ATOM     31  O   UNL     1       3.317  14.595  19.003  0.00  0.00    +0.000 OA
ATOM     32  C   UNL     1       4.163  15.047  20.054  0.00  0.00    +0.000 C 
ENDBRANCH  30  31
ENDBRANCH  24  25
ENDBRANCH  21  24
ENDBRANCH  17  18
ENDBRANCH   1  17
TORSDOF 12
ENDMDL
MODEL 5
REMARK VINA RESULT:      -6.2      3.901      9.866
REMARK  Name = 
REMARK  16 active torsions:
REMARK  status: ('A' for Active; 'I' for Inactive)
REMARK    1  A    between atoms: C_1  and  O_2
REMARK    2  A    between atoms: O_2  and  C_3
REMARK    3  A    between atoms: C_3  and  C_4
REMARK    4  A    between atoms: C_4  and  N_5
REMARK    5  A    between atoms: N_5  and  C_6
REMARK    6  A    between atoms: N_5  and  C_17
REMARK    7  A    between atoms: C_6  and  C_7
REMARK    8  A    between atoms: C_10  and  O_11
REMARK    9  A    between atoms: O_11  and  C_12
REMARK   10  A    between atoms: C_13  and  O_14
REMARK   11  A    between atoms: O_14  and  C_15
REMARK   12  A    between atoms: C_17  and  C_18
REMARK   13  A    between atoms: N_21  and  C_22
REMARK   14  A    between atoms: C_22  and  C_23
REMARK   15  A    between atoms: C_28  and  O_29
REMARK   16  A    between atoms: O_29  and  C_30
REMARK                            x       y       z     vdW  Elec       q    Type
REMARK                         _______ _______ _______ _____ _____    ______ ____
ROOT
ATOM      1  N   UNL     1       1.039   8.726  20.823  0.00  0.00    +0.000 NA
ENDROOT
BRANCH   1   2
ATOM      2  C   UNL     1       1.343   9.297  22.159  0.00  0.00    +0.000 C 
BRANCH   2   3
ATOM      3  C   UNL     1       0.101   9.454  23.065  0.00  0.00    +0.000 C 
BRANCH   3   5
ATOM      4  C   UNL     1      -1.499  11.166  23.082  0.00  0.00    +0.000 C 
ATOM      5  O   UNL     1      -0.145  10.827  23.380  0.00  0.00    +0.000 OA
ENDBRANCH   3   5
ENDBRANCH   2   3
ENDBRANCH   1   2
BRANCH   1   6
ATOM      6  C   UNL     1       0.617   7.305  20.967  0.00  0.00    +0.000 C 
BRANCH   6   7
ATOM      7  C   UNL     1       1.649   6.303  20.500  0.00  0.00    +0.000 A 
ATOM      8  C   UNL     1       1.581   4.970  20.907  0.00  0.00    +0.000 A 
ATOM      9  C   UNL     1       2.456   4.035  20.359  0.00  0.00    +0.000 A 
ATOM     10  C   UNL     1       3.429   4.413  19.423  0.00  0.00    +0.000 A 
ATOM     11  C   UNL     1       3.576   5.772  19.100  0.00  0.00    +0.000 A 
ATOM     12  C   UNL     1       2.666   6.700  19.618  0.00  0.00    +0.000 A 
BRANCH  10  13
ATOM     13  O   UNL     1       4.146   3.346  18.952  0.00  0.00    +0.000 OA
ATOM     14  C   UNL     1       4.470   2.309  19.866  0.00  0.00    +0.000 C 
ENDBRANCH  10  13
BRANCH  11  15
ATOM     15  O   UNL     1       4.578   6.162  18.250  0.00  0.00    +0.000 OA
ATOM     16  C   UNL     1       4.186   7.090  17.241  0.00  0.00    +0.000 C 
ENDBRANCH  11  15
ENDBRANCH   6   7
ENDBRANCH   1   6
BRANCH   1  17
ATOM     17  C   UNL     1      -0.032   9.488  20.136  0.00  0.00    +0.000 C 
BRANCH  17  18
ATOM     18  C   UNL     1       0.162   9.925  18.656  0.00  0.00    +0.000 C 
ATOM     19  C   UNL     1       1.537  10.597  18.490  0.00  0.00    +0.000 C 
ATOM     20  C   UNL     1       1.613  11.962  19.188  0.00  0.00    +0.000 C 
ATOM     21  N   UNL     1       0.551  12.904  18.797  0.00  0.00    +0.000 NA
ATOM     22  C   UNL     1      -0.790  12.284  18.828  0.00  0.00    +0.000 C 
ATOM     23  C   UNL     1      -0.873  10.925  18.131  0.00  0.00    +0.000 C 
BRANCH  21  24
ATOM     24  C   UNL     1       0.544  14.106  19.683  0.00  0.00    +0.000 C 
BRANCH  24  25
ATOM     25  C   UNL     1       0.716  15.429  18.968  0.00  0.00    +0.000 A 
ATOM     26  C   UNL     1      -0.464  16.092  18.564  0.00  0.00    +0.000 A 
ATOM     27  C   UNL     1      -0.436  17.317  17.894  0.00  0.00    +0.000 A 
ATOM     28  C   UNL     1       0.785  17.905  17.602  0.00  0.00    +0.000 A 
ATOM     29  C   UNL     1       1.965  17.254  17.961  0.00  0.00    +0.000 A 
ATOM     30  C   UNL     1       1.945  16.023  18.640  0.00  0.00    +0.000 A 
BRANCH  30  31
ATOM     31  O   UNL     1       3.185  15.458  18.774  0.00  0.00    +0.000 OA
ATOM     32  C   UNL     1       3.946  15.290  17.582  0.00  0.00    +0.000 C 
ENDBRANCH  30  31
ENDBRANCH  24  25
ENDBRANCH  21  24
ENDBRANCH  17  18
ENDBRANCH   1  17
TORSDOF 12
ENDMDL
MODEL 6
REMARK VINA RESULT:      -6.2      2.912     10.042
REMARK  Name = 
REMARK  16 active torsions:
REMARK  status: ('A' for Active; 'I' for Inactive)
REMARK    1  A    between atoms: C_1  and  O_2
REMARK    2  A    between atoms: O_2  and  C_3
REMARK    3  A    between atoms: C_3  and  C_4
REMARK    4  A    between atoms: C_4  and  N_5
REMARK    5  A    between atoms: N_5  and  C_6
REMARK    6  A    between atoms: N_5  and  C_17
REMARK    7  A    between atoms: C_6  and  C_7
REMARK    8  A    between atoms: C_10  and  O_11
REMARK    9  A    between atoms: O_11  and  C_12
REMARK   10  A    between atoms: C_13  and  O_14
REMARK   11  A    between atoms: O_14  and  C_15
REMARK   12  A    between atoms: C_17  and  C_18
REMARK   13  A    between atoms: N_21  and  C_22
REMARK   14  A    between atoms: C_22  and  C_23
REMARK   15  A    between atoms: C_28  and  O_29
REMARK   16  A    between atoms: O_29  and  C_30
REMARK                            x       y       z     vdW  Elec       q    Type
REMARK                         _______ _______ _______ _____ _____    ______ ____
ROOT
ATOM      1  N   UNL     1       2.334   7.106  19.611  0.00  0.00    +0.000 NA
ENDROOT
BRANCH   1   2
ATOM      2  C   UNL     1       1.577   6.249  20.558  0.00  0.00    +0.000 C 
BRANCH   2   3
ATOM      3  C   UNL     1       2.281   4.913  20.887  0.00  0.00    +0.000 C 
BRANCH   3   5
ATOM      4  C   UNL     1       0.964   3.365  19.721  0.00  0.00    +0.000 C 
ATOM      5  O   UNL     1       1.339   3.845  21.012  0.00  0.00    +0.000 OA
ENDBRANCH   3   5
ENDBRANCH   2   3
ENDBRANCH   1   2
BRANCH   1   6
ATOM      6  C   UNL     1       2.207   6.564  18.230  0.00  0.00    +0.000 C 
BRANCH   6   7
ATOM      7  C   UNL     1       3.490   5.988  17.673  0.00  0.00    +0.000 A 
ATOM      8  C   UNL     1       3.598   4.622  17.404  0.00  0.00    +0.000 A 
ATOM      9  C   UNL     1       4.735   4.132  16.765  0.00  0.00    +0.000 A 
ATOM     10  C   UNL     1       5.790   4.983  16.407  0.00  0.00    +0.000 A 
ATOM     11  C   UNL     1       5.734   6.337  16.780  0.00  0.00    +0.000 A 
ATOM     12  C   UNL     1       4.572   6.833  17.381  0.00  0.00    +0.000 A 
BRANCH  10  13
ATOM     13  O   UNL     1       6.785   4.330  15.730  0.00  0.00    +0.000 OA
ATOM     14  C   UNL     1       6.954   4.627  14.351  0.00  0.00    +0.000 C 
ENDBRANCH  10  13
BRANCH  11  15
ATOM     15  O   UNL     1       6.797   7.158  16.509  0.00  0.00    +0.000 OA
ATOM     16  C   UNL     1       7.539   7.580  17.651  0.00  0.00    +0.000 C 
ENDBRANCH  11  15
ENDBRANCH   6   7
ENDBRANCH   1   6
BRANCH   1  17
ATOM     17  C   UNL     1       1.844   8.506  19.634  0.00  0.00    +0.000 C 
BRANCH  17  18
ATOM     18  C   UNL     1       1.286   9.146  18.331  0.00  0.00    +0.000 C 
ATOM     19  C   UNL     1       1.975  10.500  18.080  0.00  0.00    +0.000 C 
ATOM     20  C   UNL     1       1.565  11.567  19.105  0.00  0.00    +0.000 C 
ATOM     21  N   UNL     1       0.111  11.768  19.224  0.00  0.00    +0.000 NA
ATOM     22  C   UNL     1      -0.623  10.492  19.355  0.00  0.00    +0.000 C 
ATOM     23  C   UNL     1      -0.221   9.425  18.335  0.00  0.00    +0.000 C 
BRANCH  21  24
ATOM     24  C   UNL     1      -0.218  12.633  20.395  0.00  0.00    +0.000 C 
BRANCH  24  25
ATOM     25  C   UNL     1      -1.680  12.641  20.793  0.00  0.00    +0.000 A 
ATOM     26  C   UNL     1      -2.624  12.680  19.745  0.00  0.00    +0.000 A 
ATOM     27  C   UNL     1      -4.000  12.693  19.984  0.00  0.00    +0.000 A 
ATOM     28  C   UNL     1      -4.463  12.679  21.291  0.00  0.00    +0.000 A 
ATOM     29  C   UNL     1      -3.549  12.675  22.344  0.00  0.00    +0.000 A 
ATOM     30  C   UNL     1      -2.163  12.656  22.111  0.00  0.00    +0.000 A 
BRANCH  30  31
ATOM     31  O   UNL     1      -1.420  12.810  23.251  0.00  0.00    +0.000 OA
ATOM     32  C   UNL     1      -1.257  14.139  23.736  0.00  0.00    +0.000 C 
ENDBRANCH  30  31
ENDBRANCH  24  25
ENDBRANCH  21  24
ENDBRANCH  17  18
ENDBRANCH   1  17
TORSDOF 12
ENDMDL
MODEL 7
REMARK VINA RESULT:      -6.2      3.908     11.087
REMARK  Name = 
REMARK  16 active torsions:
REMARK  status: ('A' for Active; 'I' for Inactive)
REMARK    1  A    between atoms: C_1  and  O_2
REMARK    2  A    between atoms: O_2  and  C_3
REMARK    3  A    between atoms: C_3  and  C_4
REMARK    4  A    between atoms: C_4  and  N_5
REMARK    5  A    between atoms: N_5  and  C_6
REMARK    6  A    between atoms: N_5  and  C_17
REMARK    7  A    between atoms: C_6  and  C_7
REMARK    8  A    between atoms: C_10  and  O_11
REMARK    9  A    between atoms: O_11  and  C_12
REMARK   10  A    between atoms: C_13  and  O_14
REMARK   11  A    between atoms: O_14  and  C_15
REMARK   12  A    between atoms: C_17  and  C_18
REMARK   13  A    between atoms: N_21  and  C_22
REMARK   14  A    between atoms: C_22  and  C_23
REMARK   15  A    between atoms: C_28  and  O_29
REMARK   16  A    between atoms: O_29  and  C_30
REMARK                            x       y       z     vdW  Elec       q    Type
REMARK                         _______ _______ _______ _____ _____    ______ ____
ROOT
ATOM      1  N   UNL     1       0.704   9.883  20.198  0.00  0.00    +0.000 NA
ENDROOT
BRANCH   1   2
ATOM      2  C   UNL     1       0.758  10.660  21.462  0.00  0.00    +0.000 C 
BRANCH   2   3
ATOM      3  C   UNL     1      -0.614  11.208  21.916  0.00  0.00    +0.000 C 
BRANCH   3   5
ATOM      4  C   UNL     1      -0.094   9.615  23.554  0.00  0.00    +0.000 C 
ATOM      5  O   UNL     1      -1.065  10.562  23.109  0.00  0.00    +0.000 OA
ENDBRANCH   3   5
ENDBRANCH   2   3
ENDBRANCH   1   2
BRANCH   1   6
ATOM      6  C   UNL     1       1.052   8.460  20.466  0.00  0.00    +0.000 C 
BRANCH   6   7
ATOM      7  C   UNL     1       1.917   7.825  19.401  0.00  0.00    +0.000 A 
ATOM      8  C   UNL     1       2.410   8.585  18.339  0.00  0.00    +0.000 A 
ATOM      9  C   UNL     1       3.316   8.018  17.445  0.00  0.00    +0.000 A 
ATOM     10  C   UNL     1       3.723   6.683  17.575  0.00  0.00    +0.000 A 
ATOM     11  C   UNL     1       3.140   5.883  18.572  0.00  0.00    +0.000 A 
ATOM     12  C   UNL     1       2.266   6.469  19.494  0.00  0.00    +0.000 A 
BRANCH  10  13
ATOM     13  O   UNL     1       4.665   6.329  16.645  0.00  0.00    +0.000 OA
ATOM     14  C   UNL     1       6.031   6.528  16.977  0.00  0.00    +0.000 C 
ENDBRANCH  10  13
BRANCH  11  15
ATOM     15  O   UNL     1       3.470   4.555  18.653  0.00  0.00    +0.000 OA
ATOM     16  C   UNL     1       3.635   4.055  19.978  0.00  0.00    +0.000 C 
ENDBRANCH  11  15
ENDBRANCH   6   7
ENDBRANCH   1   6
BRANCH   1  17
ATOM     17  C   UNL     1      -0.642   9.949  19.577  0.00  0.00    +0.000 C 
BRANCH  17  18
ATOM     18  C   UNL     1      -0.829  10.695  18.225  0.00  0.00    +0.000 C 
ATOM     19  C   UNL     1      -1.590  12.012  18.460  0.00  0.00    +0.000 C 
ATOM     20  C   UNL     1      -3.057  11.782  18.849  0.00  0.00    +0.000 C 
ATOM     21  N   UNL     1      -3.810  10.938  17.906  0.00  0.00    +0.000 NA
ATOM     22  C   UNL     1      -3.080   9.703  17.551  0.00  0.00    +0.000 C 
ATOM     23  C   UNL     1      -1.617   9.926  17.159  0.00  0.00    +0.000 C 
BRANCH  21  24
ATOM     24  C   UNL     1      -5.142  10.562  18.466  0.00  0.00    +0.000 C 
BRANCH  24  25
ATOM     25  C   UNL     1      -6.122  11.708  18.610  0.00  0.00    +0.000 A 
ATOM     26  C   UNL     1      -6.457  12.410  17.432  0.00  0.00    +0.000 A 
ATOM     27  C   UNL     1      -7.347  13.487  17.436  0.00  0.00    +0.000 A 
ATOM     28  C   UNL     1      -7.917  13.893  18.633  0.00  0.00    +0.000 A 
ATOM     29  C   UNL     1      -7.575  13.237  19.815  0.00  0.00    +0.000 A 
ATOM     30  C   UNL     1      -6.685  12.149  19.818  0.00  0.00    +0.000 A 
BRANCH  30  31
ATOM     31  O   UNL     1      -6.347  11.729  21.077  0.00  0.00    +0.000 OA
ATOM     32  C   UNL     1      -6.664  12.605  22.153  0.00  0.00    +0.000 C 
ENDBRANCH  30  31
ENDBRANCH  24  25
ENDBRANCH  21  24
ENDBRANCH  17  18
ENDBRANCH   1  17
TORSDOF 12
ENDMDL
MODEL 8
REMARK VINA RESULT:      -6.2      3.754      9.097
REMARK  Name = 
REMARK  16 active torsions:
REMARK  status: ('A' for Active; 'I' for Inactive)
REMARK    1  A    between atoms: C_1  and  O_2
REMARK    2  A    between atoms: O_2  and  C_3
REMARK    3  A    between atoms: C_3  and  C_4
REMARK    4  A    between atoms: C_4  and  N_5
REMARK    5  A    between atoms: N_5  and  C_6
REMARK    6  A    between atoms: N_5  and  C_17
REMARK    7  A    between atoms: C_6  and  C_7
REMARK    8  A    between atoms: C_10  and  O_11
REMARK    9  A    between atoms: O_11  and  C_12
REMARK   10  A    between atoms: C_13  and  O_14
REMARK   11  A    between atoms: O_14  and  C_15
REMARK   12  A    between atoms: C_17  and  C_18
REMARK   13  A    between atoms: N_21  and  C_22
REMARK   14  A    between atoms: C_22  and  C_23
REMARK   15  A    between atoms: C_28  and  O_29
REMARK   16  A    between atoms: O_29  and  C_30
REMARK                            x       y       z     vdW  Elec       q    Type
REMARK                         _______ _______ _______ _____ _____    ______ ____
ROOT
ATOM      1  N   UNL     1       2.408   6.970  19.726  0.00  0.00    +0.000 NA
ENDROOT
BRANCH   1   2
ATOM      2  C   UNL     1       1.480   6.292  20.666  0.00  0.00    +0.000 C 
BRANCH   2   3
ATOM      3  C   UNL     1       1.462   4.753  20.521  0.00  0.00    +0.000 C 
BRANCH   3   5
ATOM      4  C   UNL     1       1.827   2.756  21.691  0.00  0.00    +0.000 C 
ATOM      5  O   UNL     1       2.219   4.123  21.557  0.00  0.00    +0.000 OA
ENDBRANCH   3   5
ENDBRANCH   2   3
ENDBRANCH   1   2
BRANCH   1   6
ATOM      6  C   UNL     1       2.184   6.463  18.344  0.00  0.00    +0.000 C 
BRANCH   6   7
ATOM      7  C   UNL     1       3.399   5.812  17.721  0.00  0.00    +0.000 A 
ATOM      8  C   UNL     1       3.406   4.445  17.438  0.00  0.00    +0.000 A 
ATOM      9  C   UNL     1       4.477   3.890  16.740  0.00  0.00    +0.000 A 
ATOM     10  C   UNL     1       5.566   4.676  16.338  0.00  0.00    +0.000 A 
ATOM     11  C   UNL     1       5.615   6.026  16.722  0.00  0.00    +0.000 A 
ATOM     12  C   UNL     1       4.517   6.589  17.383  0.00  0.00    +0.000 A 
BRANCH  10  13
ATOM     13  O   UNL     1       6.482   3.967  15.608  0.00  0.00    +0.000 OA
ATOM     14  C   UNL     1       6.370   3.999  14.193  0.00  0.00    +0.000 C 
ENDBRANCH  10  13
BRANCH  11  15
ATOM     15  O   UNL     1       6.714   6.781  16.405  0.00  0.00    +0.000 OA
ATOM     16  C   UNL     1       7.178   7.636  17.447  0.00  0.00    +0.000 C 
ENDBRANCH  11  15
ENDBRANCH   6   7
ENDBRANCH   1   6
BRANCH   1  17
ATOM     17  C   UNL     1       2.220   8.442  19.744  0.00  0.00    +0.000 C 
BRANCH  17  18
ATOM     18  C   UNL     1       1.000   9.069  19.012  0.00  0.00    +0.000 C 
ATOM     19  C   UNL     1       1.488   9.944  17.843  0.00  0.00    +0.000 C 
ATOM     20  C   UNL     1       2.203  11.216  18.319  0.00  0.00    +0.000 C 
ATOM     21  N   UNL     1       1.421  12.038  19.257  0.00  0.00    +0.000 NA
ATOM     22  C   UNL     1       0.828  11.235  20.347  0.00  0.00    +0.000 C 
ATOM     23  C   UNL     1       0.110   9.967  19.879  0.00  0.00    +0.000 C 
BRANCH  21  24
ATOM     24  C   UNL     1       2.261  13.116  19.858  0.00  0.00    +0.000 C 
BRANCH  24  25
ATOM     25  C   UNL     1       2.160  14.462  19.171  0.00  0.00    +0.000 A 
ATOM     26  C   UNL     1       0.929  15.144  19.286  0.00  0.00    +0.000 A 
ATOM     27  C   UNL     1       0.713  16.392  18.695  0.00  0.00    +0.000 A 
ATOM     28  C   UNL     1       1.730  16.982  17.962  0.00  0.00    +0.000 A 
ATOM     29  C   UNL     1       2.944  16.313  17.806  0.00  0.00    +0.000 A 
ATOM     30  C   UNL     1       3.171  15.060  18.403  0.00  0.00    +0.000 A 
BRANCH  30  31
ATOM     31  O   UNL     1       4.352  14.484  18.019  0.00  0.00    +0.000 OA
ATOM     32  C   UNL     1       5.543  15.026  18.579  0.00  0.00    +0.000 C 
ENDBRANCH  30  31
ENDBRANCH  24  25
ENDBRANCH  21  24
ENDBRANCH  17  18
ENDBRANCH   1  17
TORSDOF 12
ENDMDL
MODEL 9
REMARK VINA RESULT:      -6.1      1.295      1.972
REMARK  Name = 
REMARK  16 active torsions:
REMARK  status: ('A' for Active; 'I' for Inactive)
REMARK    1  A    between atoms: C_1  and  O_2
REMARK    2  A    between atoms: O_2  and  C_3
REMARK    3  A    between atoms: C_3  and  C_4
REMARK    4  A    between atoms: C_4  and  N_5
REMARK    5  A    between atoms: N_5  and  C_6
REMARK    6  A    between atoms: N_5  and  C_17
REMARK    7  A    between atoms: C_6  and  C_7
REMARK    8  A    between atoms: C_10  and  O_11
REMARK    9  A    between atoms: O_11  and  C_12
REMARK   10  A    between atoms: C_13  and  O_14
REMARK   11  A    between atoms: O_14  and  C_15
REMARK   12  A    between atoms: C_17  and  C_18
REMARK   13  A    between atoms: N_21  and  C_22
REMARK   14  A    between atoms: C_22  and  C_23
REMARK   15  A    between atoms: C_28  and  O_29
REMARK   16  A    between atoms: O_29  and  C_30
REMARK                            x       y       z     vdW  Elec       q    Type
REMARK                         _______ _______ _______ _____ _____    ______ ____
ROOT
ATOM      1  N   UNL     1       3.852   5.417  18.516  0.00  0.00    +0.000 NA
ENDROOT
BRANCH   1   2
ATOM      2  C   UNL     1       3.193   4.271  17.840  0.00  0.00    +0.000 C 
BRANCH   2   3
ATOM      3  C   UNL     1       3.715   2.892  18.302  0.00  0.00    +0.000 C 
BRANCH   3   5
ATOM      4  C   UNL     1       1.762   2.326  19.467  0.00  0.00    +0.000 C 
ATOM      5  O   UNL     1       2.650   1.944  18.417  0.00  0.00    +0.000 OA
ENDBRANCH   3   5
ENDBRANCH   2   3
ENDBRANCH   1   2
BRANCH   1   6
ATOM      6  C   UNL     1       2.996   5.901  19.634  0.00  0.00    +0.000 C 
BRANCH   6   7
ATOM      7  C   UNL     1       2.372   7.257  19.391  0.00  0.00    +0.000 A 
ATOM      8  C   UNL     1       2.397   7.833  18.119  0.00  0.00    +0.000 A 
ATOM      9  C   UNL     1       1.699   9.015  17.883  0.00  0.00    +0.000 A 
ATOM     10  C   UNL     1       0.990   9.657  18.909  0.00  0.00    +0.000 A 
ATOM     11  C   UNL     1       1.060   9.142  20.214  0.00  0.00    +0.000 A 
ATOM     12  C   UNL     1       1.724   7.931  20.437  0.00  0.00    +0.000 A 
BRANCH  10  13
ATOM     13  O   UNL     1       0.316  10.764  18.467  0.00  0.00    +0.000 OA
ATOM     14  C   UNL     1      -1.102  10.696  18.407  0.00  0.00    +0.000 C 
ENDBRANCH  10  13
BRANCH  11  15
ATOM     15  O   UNL     1       0.440   9.809  21.239  0.00  0.00    +0.000 OA
ATOM     16  C   UNL     1      -0.389   9.000  22.070  0.00  0.00    +0.000 C 
ENDBRANCH  11  15
ENDBRANCH   6   7
ENDBRANCH   1   6
BRANCH   1  17
ATOM     17  C   UNL     1       5.185   5.041  19.047  0.00  0.00    +0.000 C 
BRANCH  17  18
ATOM     18  C   UNL     1       6.467   5.632  18.395  0.00  0.00    +0.000 C 
ATOM     19  C   UNL     1       6.089   6.812  17.482  0.00  0.00    +0.000 C 
ATOM     20  C   UNL     1       5.327   6.364  16.227  0.00  0.00    +0.000 C 
ATOM     21  N   UNL     1       6.014   5.329  15.437  0.00  0.00    +0.000 NA
ATOM     22  C   UNL     1       6.504   4.214  16.275  0.00  0.00    +0.000 C 
ATOM     23  C   UNL     1       7.267   4.654  17.526  0.00  0.00    +0.000 C 
BRANCH  21  24
ATOM     24  C   UNL     1       5.117   4.775  14.379  0.00  0.00    +0.000 C 
BRANCH  24  25
ATOM     25  C   UNL     1       5.825   4.039  13.261  0.00  0.00    +0.000 A 
ATOM     26  C   UNL     1       5.120   2.979  12.651  0.00  0.00    +0.000 A 
ATOM     27  C   UNL     1       5.667   2.223  11.611  0.00  0.00    +0.000 A 
ATOM     28  C   UNL     1       6.948   2.509  11.164  0.00  0.00    +0.000 A 
ATOM     29  C   UNL     1       7.677   3.530  11.774  0.00  0.00    +0.000 A 
ATOM     30  C   UNL     1       7.131   4.298  12.817  0.00  0.00    +0.000 A 
BRANCH  30  31
ATOM     31  O   UNL     1       8.037   5.146  13.396  0.00  0.00    +0.000 OA
ATOM     32  C   UNL     1       8.629   6.127  12.552  0.00  0.00    +0.000 C 
ENDBRANCH  30  31
ENDBRANCH  24  25
ENDBRANCH  21  24
ENDBRANCH  17  18
ENDBRANCH   1  17
TORSDOF 12
ENDMDL
