MODEL 1
REMARK VINA RESULT:      -8.6      0.000      0.000
REMARK  Name = 
REMARK  5 active torsions:
REMARK  status: ('A' for Active; 'I' for Inactive)
REMARK    1  A    between atoms: N_2  and  C_4
REMARK    2  A    between atoms: C_7  and  N_8
REMARK    3  A    between atoms: N_11  and  S_12
REMARK    4  A    between atoms: S_12  and  C_15
REMARK    5  A    between atoms: C_24  and  N_25
REMARK                            x       y       z     vdW  Elec       q    Type
REMARK                         _______ _______ _______ _____ _____    ______ ____
ROOT
ATOM      1  C   UNL     1       2.653   4.233  19.993  0.00  0.00    +0.000 A 
ATOM      2  C   UNL     1       1.542   4.758  20.673  0.00  0.00    +0.000 A 
ATOM      3  C   UNL     1       1.310   6.132  20.646  0.00  0.00    +0.000 A 
ATOM      4  C   UNL     1       2.152   6.992  19.932  0.00  0.00    +0.000 A 
ATOM      5  C   UNL     1       3.252   6.421  19.269  0.00  0.00    +0.000 A 
ATOM      6  C   UNL     1       3.554   5.039  19.278  0.00  0.00    +0.000 A 
ENDROOT
BRANCH   6   7
ATOM      7  N   UNL     1       4.701   4.567  18.635  0.00  0.00    +0.000 N 
ATOM      8  C   UNL     1       5.885   5.447  18.611  0.00  0.00    +0.000 C 
ATOM      9  C   UNL     1       7.093   4.700  18.038  0.00  0.00    +0.000 C 
ATOM     10  C   UNL     1       6.732   4.466  16.594  0.00  0.00    +0.000 A 
ATOM     11  C   UNL     1       7.554   4.908  15.555  0.00  0.00    +0.000 A 
ATOM     12  C   UNL     1       7.052   4.938  14.258  0.00  0.00    +0.000 A 
ATOM     13  C   UNL     1       5.755   4.489  13.996  0.00  0.00    +0.000 A 
ATOM     14  C   UNL     1       4.952   3.989  15.026  0.00  0.00    +0.000 A 
ATOM     15  C   UNL     1       5.427   3.993  16.339  0.00  0.00    +0.000 A 
ATOM     16  C   UNL     1       4.566   3.589  17.527  0.00  0.00    +0.000 C 
ENDBRANCH   6   7
BRANCH   4  17
ATOM     17  N   UNL     1       1.837   8.345  19.850  0.00  0.00    +0.000 N 
ATOM     18  C   UNL     1       1.128   8.989  20.971  0.00  0.00    +0.000 C 
ATOM     19  C   UNL     1       1.391  10.508  20.926  0.00  0.00    +0.000 C 
ATOM     20  N   UNL     1       1.021  11.125  19.608  0.00  0.00    +0.000 NA
ATOM     21  C   UNL     1       1.648  10.372  18.466  0.00  0.00    +0.000 C 
ATOM     22  C   UNL     1       1.387   8.852  18.534  0.00  0.00    +0.000 C 
BRANCH  20  23
ATOM     23  S   UNL     1      -0.615  11.541  19.396  0.00  0.00    +0.000 S 
ATOM     24  O   UNL     1      -0.697  12.538  18.349  0.00  0.00    +0.000 OA
ATOM     25  O   UNL     1      -1.378  10.314  19.318  0.00  0.00    +0.000 OA
BRANCH  23  26
ATOM     26  C   UNL     1      -1.004  12.354  20.928  0.00  0.00    +0.000 A 
ATOM     27  C   UNL     1      -1.777  11.678  21.878  0.00  0.00    +0.000 A 
ATOM     28  C   UNL     1      -2.089  12.307  23.085  0.00  0.00    +0.000 A 
ATOM     29  C   UNL     1      -1.626  13.604  23.332  0.00  0.00    +0.000 A 
ATOM     30  C   UNL     1      -0.847  14.272  22.384  0.00  0.00    +0.000 A 
ATOM     31  C   UNL     1      -0.529  13.645  21.181  0.00  0.00    +0.000 A 
ENDBRANCH  23  26
ENDBRANCH  20  23
ENDBRANCH   4  17
BRANCH   1  33
ATOM     32  O   UNL     1       2.148   2.066  19.446  0.00  0.00    +0.000 OA
ATOM     33  N   UNL     1       2.871   2.807  20.129  0.00  0.00    +0.000 N 
ATOM     34  O   UNL     1       3.715   2.425  20.952  0.00  0.00    +0.000 OA
ENDBRANCH   1  33
TORSDOF 5
ENDMDL
MODEL 2
REMARK VINA RESULT:      -8.6      1.028      1.565
REMARK  Name = 
REMARK  5 active torsions:
REMARK  status: ('A' for Active; 'I' for Inactive)
REMARK    1  A    between atoms: N_2  and  C_4
REMARK    2  A    between atoms: C_7  and  N_8
REMARK    3  A    between atoms: N_11  and  S_12
REMARK    4  A    between atoms: S_12  and  C_15
REMARK    5  A    between atoms: C_24  and  N_25
REMARK                            x       y       z     vdW  Elec       q    Type
REMARK                         _______ _______ _______ _____ _____    ______ ____
ROOT
ATOM      1  C   UNL     1       2.680   4.231  20.121  0.00  0.00    +0.000 A 
ATOM      2  C   UNL     1       1.570   4.746  20.809  0.00  0.00    +0.000 A 
ATOM      3  C   UNL     1       1.303   6.113  20.751  0.00  0.00    +0.000 A 
ATOM      4  C   UNL     1       2.110   6.975  20.000  0.00  0.00    +0.000 A 
ATOM      5  C   UNL     1       3.212   6.414  19.331  0.00  0.00    +0.000 A 
ATOM      6  C   UNL     1       3.548   5.040  19.369  0.00  0.00    +0.000 A 
ENDROOT
BRANCH   6   7
ATOM      7  N   UNL     1       4.694   4.580  18.717  0.00  0.00    +0.000 N 
ATOM      8  C   UNL     1       5.863   5.479  18.667  0.00  0.00    +0.000 C 
ATOM      9  C   UNL     1       7.076   4.746  18.087  0.00  0.00    +0.000 C 
ATOM     10  C   UNL     1       6.701   4.490  16.650  0.00  0.00    +0.000 A 
ATOM     11  C   UNL     1       7.501   4.933  15.596  0.00  0.00    +0.000 A 
ATOM     12  C   UNL     1       6.982   4.939  14.306  0.00  0.00    +0.000 A 
ATOM     13  C   UNL     1       5.690   4.465  14.066  0.00  0.00    +0.000 A 
ATOM     14  C   UNL     1       4.909   3.964  15.112  0.00  0.00    +0.000 A 
ATOM     15  C   UNL     1       5.401   3.991  16.418  0.00  0.00    +0.000 A 
ATOM     16  C   UNL     1       4.561   3.587  17.622  0.00  0.00    +0.000 C 
ENDBRANCH   6   7
BRANCH   4  17
ATOM     17  N   UNL     1       1.760   8.317  19.890  0.00  0.00    +0.000 N 
ATOM     18  C   UNL     1       0.957   8.943  20.957  0.00  0.00    +0.000 C 
ATOM     19  C   UNL     1       1.176  10.469  20.922  0.00  0.00    +0.000 C 
ATOM     20  N   UNL     1       0.877  11.070  19.579  0.00  0.00    +0.000 NA
ATOM     21  C   UNL     1       1.603  10.333  18.485  0.00  0.00    +0.000 C 
ATOM     22  C   UNL     1       1.385   8.806  18.544  0.00  0.00    +0.000 C 
BRANCH  20  23
ATOM     23  S   UNL     1      -0.752  11.434  19.254  0.00  0.00    +0.000 S 
ATOM     24  O   UNL     1      -1.007  11.160  17.856  0.00  0.00    +0.000 OA
ATOM     25  O   UNL     1      -1.557  10.827  20.292  0.00  0.00    +0.000 OA
BRANCH  23  26
ATOM     26  C   UNL     1      -0.797  13.199  19.461  0.00  0.00    +0.000 A 
ATOM     27  C   UNL     1      -0.075  14.006  18.577  0.00  0.00    +0.000 A 
ATOM     28  C   UNL     1      -0.103  15.393  18.729  0.00  0.00    +0.000 A 
ATOM     29  C   UNL     1      -0.853  15.962  19.765  0.00  0.00    +0.000 A 
ATOM     30  C   UNL     1      -1.580  15.153  20.642  0.00  0.00    +0.000 A 
ATOM     31  C   UNL     1      -1.559  13.768  20.487  0.00  0.00    +0.000 A 
ENDBRANCH  23  26
ENDBRANCH  20  23
ENDBRANCH   4  17
BRANCH   1  33
ATOM     32  O   UNL     1       2.255   2.041  19.601  0.00  0.00    +0.000 OA
ATOM     33  N   UNL     1       2.937   2.815  20.289  0.00  0.00    +0.000 N 
ATOM     34  O   UNL     1       3.769   2.473  21.141  0.00  0.00    +0.000 OA
ENDBRANCH   1  33
TORSDOF 5
ENDMDL
MODEL 3
REMARK VINA RESULT:      -8.2      3.025      9.841
REMARK  Name = 
REMARK  5 active torsions:
REMARK  status: ('A' for Active; 'I' for Inactive)
REMARK    1  A    between atoms: N_2  and  C_4
REMARK    2  A    between atoms: C_7  and  N_8
REMARK    3  A    between atoms: N_11  and  S_12
REMARK    4  A    between atoms: S_12  and  C_15
REMARK    5  A    between atoms: C_24  and  N_25
REMARK                            x       y       z     vdW  Elec       q    Type
REMARK                         _______ _______ _______ _____ _____    ______ ____
ROOT
ATOM      1  C   UNL     1       1.118   8.486  20.737  0.00  0.00    +0.000 A 
ATOM      2  C   UNL     1       1.507   7.238  21.250  0.00  0.00    +0.000 A 
ATOM      3  C   UNL     1       2.302   6.396  20.474  0.00  0.00    +0.000 A 
ATOM      4  C   UNL     1       2.736   6.785  19.202  0.00  0.00    +0.000 A 
ATOM      5  C   UNL     1       2.319   8.042  18.729  0.00  0.00    +0.000 A 
ATOM      6  C   UNL     1       1.495   8.930  19.459  0.00  0.00    +0.000 A 
ENDROOT
BRANCH   6   7
ATOM      7  N   UNL     1       1.084  10.136  18.886  0.00  0.00    +0.000 N 
ATOM      8  C   UNL     1       1.911  11.333  19.139  0.00  0.00    +0.000 C 
ATOM      9  C   UNL     1       1.422  12.508  18.288  0.00  0.00    +0.000 C 
ATOM     10  C   UNL     1       0.060  12.830  18.849  0.00  0.00    +0.000 A 
ATOM     11  C   UNL     1      -0.254  14.107  19.316  0.00  0.00    +0.000 A 
ATOM     12  C   UNL     1      -1.398  14.285  20.087  0.00  0.00    +0.000 A 
ATOM     13  C   UNL     1      -2.244  13.205  20.350  0.00  0.00    +0.000 A 
ATOM     14  C   UNL     1      -1.963  11.937  19.831  0.00  0.00    +0.000 A 
ATOM     15  C   UNL     1      -0.795  11.734  19.092  0.00  0.00    +0.000 A 
ATOM     16  C   UNL     1      -0.357  10.359  18.609  0.00  0.00    +0.000 C 
ENDBRANCH   6   7
BRANCH   4  17
ATOM     17  N   UNL     1       3.604   5.959  18.493  0.00  0.00    +0.000 N 
ATOM     18  C   UNL     1       4.829   5.467  19.152  0.00  0.00    +0.000 C 
ATOM     19  C   UNL     1       5.303   4.185  18.437  0.00  0.00    +0.000 C 
ATOM     20  N   UNL     1       5.507   4.382  16.963  0.00  0.00    +0.000 NA
ATOM     21  C   UNL     1       4.294   5.010  16.330  0.00  0.00    +0.000 C 
ATOM     22  C   UNL     1       3.824   6.283  17.066  0.00  0.00    +0.000 C 
BRANCH  20  23
ATOM     23  S   UNL     1       7.001   5.038  16.483  0.00  0.00    +0.000 S 
ATOM     24  O   UNL     1       6.946   6.473  16.669  0.00  0.00    +0.000 OA
ATOM     25  O   UNL     1       8.049   4.247  17.091  0.00  0.00    +0.000 OA
BRANCH  23  26
ATOM     26  C   UNL     1       7.007   4.734  14.731  0.00  0.00    +0.000 A 
ATOM     27  C   UNL     1       6.176   3.737  14.212  0.00  0.00    +0.000 A 
ATOM     28  C   UNL     1       6.172   3.489  12.839  0.00  0.00    +0.000 A 
ATOM     29  C   UNL     1       6.999   4.240  11.996  0.00  0.00    +0.000 A 
ATOM     30  C   UNL     1       7.822   5.241  12.518  0.00  0.00    +0.000 A 
ATOM     31  C   UNL     1       7.823   5.495  13.888  0.00  0.00    +0.000 A 
ENDBRANCH  23  26
ENDBRANCH  20  23
ENDBRANCH   4  17
BRANCH   1  33
ATOM     32  O   UNL     1       0.713  10.293  22.085  0.00  0.00    +0.000 OA
ATOM     33  N   UNL     1       0.231   9.273  21.571  0.00  0.00    +0.000 N 
ATOM     34  O   UNL     1      -0.917   8.848  21.759  0.00  0.00    +0.000 OA
ENDBRANCH   1  33
TORSDOF 5
ENDMDL
MODEL 4
REMARK VINA RESULT:      -8.2      3.094      9.584
REMARK  Name = 
REMARK  5 active torsions:
REMARK  status: ('A' for Active; 'I' for Inactive)
REMARK    1  A    between atoms: N_2  and  C_4
REMARK    2  A    between atoms: C_7  and  N_8
REMARK    3  A    between atoms: N_11  and  S_12
REMARK    4  A    between atoms: S_12  and  C_15
REMARK    5  A    between atoms: C_24  and  N_25
REMARK                            x       y       z     vdW  Elec       q    Type
REMARK                         _______ _______ _______ _____ _____    ______ ____
ROOT
ATOM      1  C   UNL     1       0.238  10.361  21.782  0.00  0.00    +0.000 A 
ATOM      2  C   UNL     1       1.003   9.441  22.518  0.00  0.00    +0.000 A 
ATOM      3  C   UNL     1       1.503   8.304  21.883  0.00  0.00    +0.000 A 
ATOM      4  C   UNL     1       1.274   8.079  20.522  0.00  0.00    +0.000 A 
ATOM      5  C   UNL     1       0.500   9.026  19.828  0.00  0.00    +0.000 A 
ATOM      6  C   UNL     1      -0.053  10.185  20.420  0.00  0.00    +0.000 A 
ENDROOT
BRANCH   6   7
ATOM      7  N   UNL     1      -0.856  11.043  19.664  0.00  0.00    +0.000 N 
ATOM      8  C   UNL     1      -2.208  11.344  20.173  0.00  0.00    +0.000 C 
ATOM      9  C   UNL     1      -2.866  12.437  19.325  0.00  0.00    +0.000 C 
ATOM     10  C   UNL     1      -3.074  11.787  17.981  0.00  0.00    +0.000 A 
ATOM     11  C   UNL     1      -4.336  11.719  17.390  0.00  0.00    +0.000 A 
ATOM     12  C   UNL     1      -4.535  10.865  16.310  0.00  0.00    +0.000 A 
ATOM     13  C   UNL     1      -3.470  10.121  15.797  0.00  0.00    +0.000 A 
ATOM     14  C   UNL     1      -2.190  10.234  16.350  0.00  0.00    +0.000 A 
ATOM     15  C   UNL     1      -1.986  11.054  17.461  0.00  0.00    +0.000 A 
ATOM     16  C   UNL     1      -0.654  11.126  18.196  0.00  0.00    +0.000 C 
ENDBRANCH   6   7
BRANCH   4  17
ATOM     17  N   UNL     1       1.866   6.983  19.900  0.00  0.00    +0.000 N 
ATOM     18  C   UNL     1       2.211   5.797  20.707  0.00  0.00    +0.000 C 
ATOM     19  C   UNL     1       2.301   4.568  19.780  0.00  0.00    +0.000 C 
ATOM     20  N   UNL     1       3.262   4.764  18.644  0.00  0.00    +0.000 NA
ATOM     21  C   UNL     1       2.977   6.049  17.913  0.00  0.00    +0.000 C 
ATOM     22  C   UNL     1       2.876   7.266  18.856  0.00  0.00    +0.000 C 
BRANCH  20  23
ATOM     23  S   UNL     1       4.903   4.463  18.975  0.00  0.00    +0.000 S 
ATOM     24  O   UNL     1       5.427   5.587  19.722  0.00  0.00    +0.000 OA
ATOM     25  O   UNL     1       5.012   3.113  19.485  0.00  0.00    +0.000 OA
BRANCH  23  26
ATOM     26  C   UNL     1       5.636   4.519  17.357  0.00  0.00    +0.000 A 
ATOM     27  C   UNL     1       6.773   5.308  17.153  0.00  0.00    +0.000 A 
ATOM     28  C   UNL     1       7.357   5.359  15.886  0.00  0.00    +0.000 A 
ATOM     29  C   UNL     1       6.801   4.621  14.835  0.00  0.00    +0.000 A 
ATOM     30  C   UNL     1       5.670   3.828  15.045  0.00  0.00    +0.000 A 
ATOM     31  C   UNL     1       5.089   3.770  16.310  0.00  0.00    +0.000 A 
ENDBRANCH  23  26
ENDBRANCH  20  23
ENDBRANCH   4  17
BRANCH   1  33
ATOM     32  O   UNL     1       0.127  12.602  22.243  0.00  0.00    +0.000 OA
ATOM     33  N   UNL     1      -0.310  11.477  22.527  0.00  0.00    +0.000 N 
ATOM     34  O   UNL     1      -1.126  11.230  23.425  0.00  0.00    +0.000 OA
ENDBRANCH   1  33
TORSDOF 5
ENDMDL
MODEL 5
REMARK VINA RESULT:      -8.1      1.404      1.960
REMARK  Name = 
REMARK  5 active torsions:
REMARK  status: ('A' for Active; 'I' for Inactive)
REMARK    1  A    between atoms: N_2  and  C_4
REMARK    2  A    between atoms: C_7  and  N_8
REMARK    3  A    between atoms: N_11  and  S_12
REMARK    4  A    between atoms: S_12  and  C_15
REMARK    5  A    between atoms: C_24  and  N_25
REMARK                            x       y       z     vdW  Elec       q    Type
REMARK                         _______ _______ _______ _____ _____    ______ ____
ROOT
ATOM      1  C   UNL     1       2.670   4.148  20.132  0.00  0.00    +0.000 A 
ATOM      2  C   UNL     1       1.513   4.603  20.784  0.00  0.00    +0.000 A 
ATOM      3  C   UNL     1       1.130   5.936  20.649  0.00  0.00    +0.000 A 
ATOM      4  C   UNL     1       1.867   6.821  19.856  0.00  0.00    +0.000 A 
ATOM      5  C   UNL     1       3.020   6.322  19.225  0.00  0.00    +0.000 A 
ATOM      6  C   UNL     1       3.473   4.987  19.342  0.00  0.00    +0.000 A 
ENDROOT
BRANCH   6   7
ATOM      7  N   UNL     1       4.661   4.593  18.722  0.00  0.00    +0.000 N 
ATOM      8  C   UNL     1       5.762   5.574  18.661  0.00  0.00    +0.000 C 
ATOM      9  C   UNL     1       7.035   4.915  18.124  0.00  0.00    +0.000 C 
ATOM     10  C   UNL     1       6.705   4.586  16.690  0.00  0.00    +0.000 A 
ATOM     11  C   UNL     1       7.489   5.054  15.635  0.00  0.00    +0.000 A 
ATOM     12  C   UNL     1       6.994   4.981  14.337  0.00  0.00    +0.000 A 
ATOM     13  C   UNL     1       5.744   4.405  14.093  0.00  0.00    +0.000 A 
ATOM     14  C   UNL     1       4.984   3.881  15.143  0.00  0.00    +0.000 A 
ATOM     15  C   UNL     1       5.450   3.986  16.455  0.00  0.00    +0.000 A 
ATOM     16  C   UNL     1       4.621   3.558  17.659  0.00  0.00    +0.000 C 
ENDBRANCH   6   7
BRANCH   4  17
ATOM     17  N   UNL     1       1.404   8.121  19.669  0.00  0.00    +0.000 N 
ATOM     18  C   UNL     1       1.995   8.949  18.601  0.00  0.00    +0.000 C 
ATOM     19  C   UNL     1       0.996  10.059  18.215  0.00  0.00    +0.000 C 
ATOM     20  N   UNL     1       0.568  10.891  19.390  0.00  0.00    +0.000 NA
ATOM     21  C   UNL     1       0.092  10.021  20.522  0.00  0.00    +0.000 C 
ATOM     22  C   UNL     1       1.097   8.907  20.885  0.00  0.00    +0.000 C 
BRANCH  20  23
ATOM     23  S   UNL     1       1.602  12.166  19.835  0.00  0.00    +0.000 S 
ATOM     24  O   UNL     1       2.041  11.939  21.196  0.00  0.00    +0.000 OA
ATOM     25  O   UNL     1       2.558  12.356  18.766  0.00  0.00    +0.000 OA
BRANCH  23  26
ATOM     26  C   UNL     1       0.499  13.560  19.864  0.00  0.00    +0.000 A 
ATOM     27  C   UNL     1      -0.390  13.701  20.934  0.00  0.00    +0.000 A 
ATOM     28  C   UNL     1      -1.261  14.791  20.967  0.00  0.00    +0.000 A 
ATOM     29  C   UNL     1      -1.235  15.731  19.931  0.00  0.00    +0.000 A 
ATOM     30  C   UNL     1      -0.340  15.591  18.867  0.00  0.00    +0.000 A 
ATOM     31  C   UNL     1       0.535  14.507  18.835  0.00  0.00    +0.000 A 
ENDBRANCH  23  26
ENDBRANCH  20  23
ENDBRANCH   4  17
BRANCH   1  33
ATOM     32  O   UNL     1       2.487   1.909  19.686  0.00  0.00    +0.000 OA
ATOM     33  N   UNL     1       3.046   2.771  20.380  0.00  0.00    +0.000 N 
ATOM     34  O   UNL     1       3.847   2.544  21.298  0.00  0.00    +0.000 OA
ENDBRANCH   1  33
TORSDOF 5
ENDMDL
MODEL 6
REMARK VINA RESULT:      -8.1      0.435      1.078
REMARK  Name = 
REMARK  5 active torsions:
REMARK  status: ('A' for Active; 'I' for Inactive)
REMARK    1  A    between atoms: N_2  and  C_4
REMARK    2  A    between atoms: C_7  and  N_8
REMARK    3  A    between atoms: N_11  and  S_12
REMARK    4  A    between atoms: S_12  and  C_15
REMARK    5  A    between atoms: C_24  and  N_25
REMARK                            x       y       z     vdW  Elec       q    Type
REMARK                         _______ _______ _______ _____ _____    ______ ____
ROOT
ATOM      1  C   UNL     1       2.711   3.914  19.508  0.00  0.00    +0.000 A 
ATOM      2  C   UNL     1       1.575   4.357  20.205  0.00  0.00    +0.000 A 
ATOM      3  C   UNL     1       1.338   5.725  20.329  0.00  0.00    +0.000 A 
ATOM      4  C   UNL     1       2.200   6.662  19.749  0.00  0.00    +0.000 A 
ATOM      5  C   UNL     1       3.325   6.172  19.063  0.00  0.00    +0.000 A 
ATOM      6  C   UNL     1       3.632   4.798  18.923  0.00  0.00    +0.000 A 
ENDROOT
BRANCH   6   7
ATOM      7  N   UNL     1       4.803   4.404  18.271  0.00  0.00    +0.000 N 
ATOM      8  C   UNL     1       5.930   5.357  18.248  0.00  0.00    +0.000 C 
ATOM      9  C   UNL     1       7.179   4.692  17.663  0.00  0.00    +0.000 C 
ATOM     10  C   UNL     1       6.826   4.448  16.218  0.00  0.00    +0.000 A 
ATOM     11  C   UNL     1       7.613   4.949  15.180  0.00  0.00    +0.000 A 
ATOM     12  C   UNL     1       7.102   4.958  13.886  0.00  0.00    +0.000 A 
ATOM     13  C   UNL     1       5.835   4.431  13.626  0.00  0.00    +0.000 A 
ATOM     14  C   UNL     1       5.071   3.873  14.656  0.00  0.00    +0.000 A 
ATOM     15  C   UNL     1       5.552   3.896  15.966  0.00  0.00    +0.000 A 
ATOM     16  C   UNL     1       4.723   3.429  17.155  0.00  0.00    +0.000 C 
ENDBRANCH   6   7
BRANCH   4  17
ATOM     17  N   UNL     1       1.883   8.015  19.813  0.00  0.00    +0.000 N 
ATOM     18  C   UNL     1       1.091   8.517  20.953  0.00  0.00    +0.000 C 
ATOM     19  C   UNL     1       1.347  10.029  21.115  0.00  0.00    +0.000 C 
ATOM     20  N   UNL     1       1.066  10.805  19.861  0.00  0.00    +0.000 NA
ATOM     21  C   UNL     1       1.777  10.198  18.681  0.00  0.00    +0.000 C 
ATOM     22  C   UNL     1       1.522   8.682  18.542  0.00  0.00    +0.000 C 
BRANCH  20  23
ATOM     23  S   UNL     1      -0.554  11.247  19.587  0.00  0.00    +0.000 S 
ATOM     24  O   UNL     1      -0.592  12.148  18.454  0.00  0.00    +0.000 OA
ATOM     25  O   UNL     1      -1.352  10.040  19.606  0.00  0.00    +0.000 OA
BRANCH  23  26
ATOM     26  C   UNL     1      -0.939  12.204  21.034  0.00  0.00    +0.000 A 
ATOM     27  C   UNL     1      -0.364  13.470  21.184  0.00  0.00    +0.000 A 
ATOM     28  C   UNL     1      -0.659  14.231  22.316  0.00  0.00    +0.000 A 
ATOM     29  C   UNL     1      -1.525  13.720  23.289  0.00  0.00    +0.000 A 
ATOM     30  C   UNL     1      -2.104  12.458  23.132  0.00  0.00    +0.000 A 
ATOM     31  C   UNL     1      -1.816  11.699  21.999  0.00  0.00    +0.000 A 
ENDBRANCH  23  26
ENDBRANCH  20  23
ENDBRANCH   4  17
BRANCH   1  33
ATOM     32  O   UNL     1       3.769   2.037  20.283  0.00  0.00    +0.000 OA
ATOM     33  N   UNL     1       2.931   2.482  19.486  0.00  0.00    +0.000 N 
ATOM     34  O   UNL     1       2.316   1.814  18.643  0.00  0.00    +0.000 OA
ENDBRANCH   1  33
TORSDOF 5
ENDMDL
MODEL 7
REMARK VINA RESULT:      -8.0      2.624      9.824
REMARK  Name = 
REMARK  5 active torsions:
REMARK  status: ('A' for Active; 'I' for Inactive)
REMARK    1  A    between atoms: N_2  and  C_4
REMARK    2  A    between atoms: C_7  and  N_8
REMARK    3  A    between atoms: N_11  and  S_12
REMARK    4  A    between atoms: S_12  and  C_15
REMARK    5  A    between atoms: C_24  and  N_25
REMARK                            x       y       z     vdW  Elec       q    Type
REMARK                         _______ _______ _______ _____ _____    ______ ____
ROOT
ATOM      1  C   UNL     1       0.235  10.674  21.137  0.00  0.00    +0.000 A 
ATOM      2  C   UNL     1       0.105   9.468  21.846  0.00  0.00    +0.000 A 
ATOM      3  C   UNL     1       0.613   8.292  21.296  0.00  0.00    +0.000 A 
ATOM      4  C   UNL     1       1.270   8.299  20.061  0.00  0.00    +0.000 A 
ATOM      5  C   UNL     1       1.373   9.529  19.386  0.00  0.00    +0.000 A 
ATOM      6  C   UNL     1       0.858  10.750  19.881  0.00  0.00    +0.000 A 
ENDROOT
BRANCH   6   7
ATOM      7  N   UNL     1       0.959  11.914  19.116  0.00  0.00    +0.000 N 
ATOM      8  C   UNL     1       2.200  12.705  19.228  0.00  0.00    +0.000 C 
ATOM      9  C   UNL     1       2.212  13.830  18.189  0.00  0.00    +0.000 C 
ATOM     10  C   UNL     1       1.102  14.751  18.627  0.00  0.00    +0.000 A 
ATOM     11  C   UNL     1       1.334  16.103  18.884  0.00  0.00    +0.000 A 
ATOM     12  C   UNL     1       0.369  16.841  19.561  0.00  0.00    +0.000 A 
ATOM     13  C   UNL     1      -0.836  16.242  19.939  0.00  0.00    +0.000 A 
ATOM     14  C   UNL     1      -1.095  14.904  19.629  0.00  0.00    +0.000 A 
ATOM     15  C   UNL     1      -0.118  14.140  18.988  0.00  0.00    +0.000 A 
ATOM     16  C   UNL     1      -0.275  12.646  18.737  0.00  0.00    +0.000 C 
ENDBRANCH   6   7
BRANCH   4  17
ATOM     17  N   UNL     1       1.847   7.125  19.586  0.00  0.00    +0.000 N 
ATOM     18  C   UNL     1       2.168   6.044  20.538  0.00  0.00    +0.000 C 
ATOM     19  C   UNL     1       2.242   4.707  19.773  0.00  0.00    +0.000 C 
ATOM     20  N   UNL     1       3.212   4.743  18.627  0.00  0.00    +0.000 NA
ATOM     21  C   UNL     1       2.952   5.931  17.739  0.00  0.00    +0.000 C 
ATOM     22  C   UNL     1       2.867   7.258  18.522  0.00  0.00    +0.000 C 
BRANCH  20  23
ATOM     23  S   UNL     1       4.846   4.460  19.005  0.00  0.00    +0.000 S 
ATOM     24  O   UNL     1       5.328   5.574  19.793  0.00  0.00    +0.000 OA
ATOM     25  O   UNL     1       4.961   3.101  19.487  0.00  0.00    +0.000 OA
BRANCH  23  26
ATOM     26  C   UNL     1       5.630   4.564  17.413  0.00  0.00    +0.000 A 
ATOM     27  C   UNL     1       6.633   5.517  17.210  0.00  0.00    +0.000 A 
ATOM     28  C   UNL     1       7.256   5.608  15.964  0.00  0.00    +0.000 A 
ATOM     29  C   UNL     1       6.870   4.746  14.932  0.00  0.00    +0.000 A 
ATOM     30  C   UNL     1       5.873   3.790  15.140  0.00  0.00    +0.000 A 
ATOM     31  C   UNL     1       5.254   3.693  16.385  0.00  0.00    +0.000 A 
ENDBRANCH  23  26
ENDBRANCH  20  23
ENDBRANCH   4  17
BRANCH   1  33
ATOM     32  O   UNL     1       0.381  12.702  22.190  0.00  0.00    +0.000 OA
ATOM     33  N   UNL     1      -0.384  11.838  21.737  0.00  0.00    +0.000 N 
ATOM     34  O   UNL     1      -1.621  11.867  21.807  0.00  0.00    +0.000 OA
ENDBRANCH   1  33
TORSDOF 5
ENDMDL
MODEL 8
REMARK VINA RESULT:      -8.0      2.558      9.828
REMARK  Name = 
REMARK  5 active torsions:
REMARK  status: ('A' for Active; 'I' for Inactive)
REMARK    1  A    between atoms: N_2  and  C_4
REMARK    2  A    between atoms: C_7  and  N_8
REMARK    3  A    between atoms: N_11  and  S_12
REMARK    4  A    between atoms: S_12  and  C_15
REMARK    5  A    between atoms: C_24  and  N_25
REMARK                            x       y       z     vdW  Elec       q    Type
REMARK                         _______ _______ _______ _____ _____    ______ ____
ROOT
ATOM      1  C   UNL     1       0.236  10.478  21.380  0.00  0.00    +0.000 A 
ATOM      2  C   UNL     1       0.238   9.270  22.095  0.00  0.00    +0.000 A 
ATOM      3  C   UNL     1       0.751   8.120  21.496  0.00  0.00    +0.000 A 
ATOM      4  C   UNL     1       1.284   8.158  20.203  0.00  0.00    +0.000 A 
ATOM      5  C   UNL     1       1.257   9.389  19.525  0.00  0.00    +0.000 A 
ATOM      6  C   UNL     1       0.730  10.583  20.070  0.00  0.00    +0.000 A 
ENDROOT
BRANCH   6   7
ATOM      7  N   UNL     1       0.696  11.749  19.301  0.00  0.00    +0.000 N 
ATOM      8  C   UNL     1       1.883  12.626  19.329  0.00  0.00    +0.000 C 
ATOM      9  C   UNL     1       1.744  13.745  18.293  0.00  0.00    +0.000 C 
ATOM     10  C   UNL     1       0.605  14.587  18.808  0.00  0.00    +0.000 A 
ATOM     11  C   UNL     1       0.759  15.953  19.050  0.00  0.00    +0.000 A 
ATOM     12  C   UNL     1      -0.208  16.624  19.793  0.00  0.00    +0.000 A 
ATOM     13  C   UNL     1      -1.338  15.943  20.252  0.00  0.00    +0.000 A 
ATOM     14  C   UNL     1      -1.523  14.589  19.958  0.00  0.00    +0.000 A 
ATOM     15  C   UNL     1      -0.541  13.893  19.251  0.00  0.00    +0.000 A 
ATOM     16  C   UNL     1      -0.610  12.391  19.009  0.00  0.00    +0.000 C 
ENDBRANCH   6   7
BRANCH   4  17
ATOM     17  N   UNL     1       1.872   7.013  19.672  0.00  0.00    +0.000 N 
ATOM     18  C   UNL     1       2.189   5.884  20.568  0.00  0.00    +0.000 C 
ATOM     19  C   UNL     1       2.278   4.591  19.732  0.00  0.00    +0.000 C 
ATOM     20  N   UNL     1       3.260   4.694  18.601  0.00  0.00    +0.000 NA
ATOM     21  C   UNL     1       3.003   5.926  17.776  0.00  0.00    +0.000 C 
ATOM     22  C   UNL     1       2.902   7.209  18.628  0.00  0.00    +0.000 C 
BRANCH  20  23
ATOM     23  S   UNL     1       4.891   4.398  18.981  0.00  0.00    +0.000 S 
ATOM     24  O   UNL     1       5.376   5.502  19.783  0.00  0.00    +0.000 OA
ATOM     25  O   UNL     1       4.997   3.033  19.450  0.00  0.00    +0.000 OA
BRANCH  23  26
ATOM     26  C   UNL     1       5.681   4.514  17.393  0.00  0.00    +0.000 A 
ATOM     27  C   UNL     1       5.253   3.675  16.359  0.00  0.00    +0.000 A 
ATOM     28  C   UNL     1       5.865   3.757  15.107  0.00  0.00    +0.000 A 
ATOM     29  C   UNL     1       6.899   4.677  14.900  0.00  0.00    +0.000 A 
ATOM     30  C   UNL     1       7.318   5.519  15.933  0.00  0.00    +0.000 A 
ATOM     31  C   UNL     1       6.704   5.444  17.182  0.00  0.00    +0.000 A 
ENDBRANCH  23  26
ENDBRANCH  20  23
ENDBRANCH   4  17
BRANCH   1  33
ATOM     32  O   UNL     1      -1.608  11.553  22.212  0.00  0.00    +0.000 OA
ATOM     33  N   UNL     1      -0.382  11.611  22.039  0.00  0.00    +0.000 N 
ATOM     34  O   UNL     1       0.339  12.576  22.331  0.00  0.00    +0.000 OA
ENDBRANCH   1  33
TORSDOF 5
ENDMDL
MODEL 9
REMARK VINA RESULT:      -7.9      1.332      1.788
REMARK  Name = 
REMARK  5 active torsions:
REMARK  status: ('A' for Active; 'I' for Inactive)
REMARK    1  A    between atoms: N_2  and  C_4
REMARK    2  A    between atoms: C_7  and  N_8
REMARK    3  A    between atoms: N_11  and  S_12
REMARK    4  A    between atoms: S_12  and  C_15
REMARK    5  A    between atoms: C_24  and  N_25
REMARK                            x       y       z     vdW  Elec       q    Type
REMARK                         _______ _______ _______ _____ _____    ______ ____
ROOT
ATOM      1  C   UNL     1       3.416   3.852  19.713  0.00  0.00    +0.000 A 
ATOM      2  C   UNL     1       2.256   4.078  20.471  0.00  0.00    +0.000 A 
ATOM      3  C   UNL     1       1.672   5.344  20.469  0.00  0.00    +0.000 A 
ATOM      4  C   UNL     1       2.212   6.386  19.707  0.00  0.00    +0.000 A 
ATOM      5  C   UNL     1       3.376   6.113  18.966  0.00  0.00    +0.000 A 
ATOM      6  C   UNL     1       4.026   4.857  18.945  0.00  0.00    +0.000 A 
ENDROOT
BRANCH   6   7
ATOM      7  N   UNL     1       5.211   4.694  18.223  0.00  0.00    +0.000 N 
ATOM      8  C   UNL     1       5.975   5.907  17.873  0.00  0.00    +0.000 C 
ATOM      9  C   UNL     1       7.324   5.528  17.256  0.00  0.00    +0.000 C 
ATOM     10  C   UNL     1       6.962   4.883  15.942  0.00  0.00    +0.000 A 
ATOM     11  C   UNL     1       7.472   5.356  14.732  0.00  0.00    +0.000 A 
ATOM     12  C   UNL     1       6.893   4.934  13.539  0.00  0.00    +0.000 A 
ATOM     13  C   UNL     1       5.841   4.014  13.557  0.00  0.00    +0.000 A 
ATOM     14  C   UNL     1       5.369   3.493  14.765  0.00  0.00    +0.000 A 
ATOM     15  C   UNL     1       5.912   3.940  15.971  0.00  0.00    +0.000 A 
ATOM     16  C   UNL     1       5.362   3.520  17.327  0.00  0.00    +0.000 C 
ENDBRANCH   6   7
BRANCH   4  17
ATOM     17  N   UNL     1       1.551   7.610  19.655  0.00  0.00    +0.000 N 
ATOM     18  C   UNL     1       2.002   8.632  18.691  0.00  0.00    +0.000 C 
ATOM     19  C   UNL     1       0.840   9.608  18.415  0.00  0.00    +0.000 C 
ATOM     20  N   UNL     1       0.291  10.230  19.667  0.00  0.00    +0.000 NA
ATOM     21  C   UNL     1      -0.038   9.178  20.692  0.00  0.00    +0.000 C 
ATOM     22  C   UNL     1       1.130   8.201  20.945  0.00  0.00    +0.000 C 
BRANCH  20  23
ATOM     23  S   UNL     1       1.115  11.594  20.262  0.00  0.00    +0.000 S 
ATOM     24  O   UNL     1       1.834  11.203  21.456  0.00  0.00    +0.000 OA
ATOM     25  O   UNL     1       1.800  12.218  19.150  0.00  0.00    +0.000 OA
BRANCH  23  26
ATOM     26  C   UNL     1      -0.218  12.653  20.773  0.00  0.00    +0.000 A 
ATOM     27  C   UNL     1      -0.021  13.521  21.852  0.00  0.00    +0.000 A 
ATOM     28  C   UNL     1      -1.061  14.357  22.261  0.00  0.00    +0.000 A 
ATOM     29  C   UNL     1      -2.288  14.319  21.590  0.00  0.00    +0.000 A 
ATOM     30  C   UNL     1      -2.478  13.456  20.507  0.00  0.00    +0.000 A 
ATOM     31  C   UNL     1      -1.439  12.625  20.092  0.00  0.00    +0.000 A 
ENDBRANCH  23  26
ENDBRANCH  20  23
ENDBRANCH   4  17
BRANCH   1  33
ATOM     32  O   UNL     1       3.473   1.629  19.165  0.00  0.00    +0.000 OA
ATOM     33  N   UNL     1       4.006   2.534  19.824  0.00  0.00    +0.000 N 
ATOM     34  O   UNL     1       4.957   2.387  20.606  0.00  0.00    +0.000 OA
ENDBRANCH   1  33
TORSDOF 5
ENDMDL
