MODEL 1
REMARK VINA RESULT:      -7.3      0.000      0.000
REMARK  Name = 
REMARK  5 active torsions:
REMARK  status: ('A' for Active; 'I' for Inactive)
REMARK    1  A    between atoms: C_2  and  C_3
REMARK    2  A    between atoms: C_3  and  N_4
REMARK    3  A    between atoms: N_9  and  C_10
REMARK    4  A    between atoms: C_13  and  S_14
REMARK    5  A    between atoms: S_14  and  N_17
REMARK                            x       y       z     vdW  Elec       q    Type
REMARK                         _______ _______ _______ _____ _____    ______ ____
ROOT
ATOM      1  C   UNL     1       6.175   6.635  16.922  0.00  0.00    +0.000 A 
ATOM      2  C   UNL     1       6.498   5.345  16.482  0.00  0.00    +0.000 A 
ATOM      3  C   UNL     1       5.609   4.279  16.656  0.00  0.00    +0.000 A 
ATOM      4  C   UNL     1       4.392   4.488  17.298  0.00  0.00    +0.000 A 
ATOM      5  C   UNL     1       4.022   5.783  17.679  0.00  0.00    +0.000 A 
ATOM      6  C   UNL     1       4.920   6.849  17.497  0.00  0.00    +0.000 A 
ENDROOT
BRANCH   1   9
ATOM      7  O   UNL     1       8.284   7.366  18.774  0.00  0.00    +0.000 OA
ATOM      8  C   UNL     1       8.050   8.051  17.777  0.00  0.00    +0.000 C 
ATOM      9  N   UNL     1       7.079   7.730  16.836  0.00  0.00    +0.000 N 
ATOM     10  H   UNL     1       7.042   8.287  15.991  0.00  0.00    +0.000 HD
BRANCH   8  11
ATOM     11  C   UNL     1       8.794   9.380  17.533  0.00  0.00    +0.000 C 
BRANCH  11  12
ATOM     12  N   UNL     1       8.516  10.419  18.557  0.00  0.00    +0.000 NA
ATOM     13  C   UNL     1       8.709  11.803  18.081  0.00  0.00    +0.000 C 
ATOM     14  C   UNL     1      10.171  12.115  18.317  0.00  0.00    +0.000 C 
ATOM     15  C   UNL     1      10.421  11.467  19.658  0.00  0.00    +0.000 C 
ATOM     16  C   UNL     1       9.456  10.281  19.696  0.00  0.00    +0.000 C 
ENDBRANCH  11  12
ENDBRANCH   8  11
ENDBRANCH   1   9
BRANCH   4  17
ATOM     17  S   UNL     1       3.273   3.108  17.522  0.00  0.00    +0.000 S 
ATOM     18  O   UNL     1       2.170   3.307  16.612  0.00  0.00    +0.000 OA
ATOM     19  O   UNL     1       4.067   1.900  17.482  0.00  0.00    +0.000 OA
BRANCH  17  20
ATOM     20  N   UNL     1       2.682   3.298  19.129  0.00  0.00    +0.000 NA
ATOM     21  C   UNL     1       1.233   3.605  19.243  0.00  0.00    +0.000 C 
ATOM     22  C   UNL     1       0.838   3.942  20.677  0.00  0.00    +0.000 C 
ATOM     23  C   UNL     1       1.278   2.850  21.640  0.00  0.00    +0.000 C 
ATOM     24  C   UNL     1       2.786   2.679  21.546  0.00  0.00    +0.000 C 
ATOM     25  C   UNL     1       3.226   2.339  20.124  0.00  0.00    +0.000 C 
ENDBRANCH  17  20
ENDBRANCH   4  17
TORSDOF 5
ENDMDL
MODEL 2
REMARK VINA RESULT:      -7.2      5.490      7.517
REMARK  Name = 
REMARK  5 active torsions:
REMARK  status: ('A' for Active; 'I' for Inactive)
REMARK    1  A    between atoms: C_2  and  C_3
REMARK    2  A    between atoms: C_3  and  N_4
REMARK    3  A    between atoms: N_9  and  C_10
REMARK    4  A    between atoms: C_13  and  S_14
REMARK    5  A    between atoms: S_14  and  N_17
REMARK                            x       y       z     vdW  Elec       q    Type
REMARK                         _______ _______ _______ _____ _____    ______ ____
ROOT
ATOM      1  C   UNL     1       1.533   8.485  20.093  0.00  0.00    +0.000 A 
ATOM      2  C   UNL     1       1.476   7.327  20.881  0.00  0.00    +0.000 A 
ATOM      3  C   UNL     1       1.946   6.101  20.397  0.00  0.00    +0.000 A 
ATOM      4  C   UNL     1       2.456   6.015  19.105  0.00  0.00    +0.000 A 
ATOM      5  C   UNL     1       2.587   7.174  18.331  0.00  0.00    +0.000 A 
ATOM      6  C   UNL     1       2.116   8.402  18.827  0.00  0.00    +0.000 A 
ENDROOT
BRANCH   1   9
ATOM      7  O   UNL     1      -0.984   9.705  19.326  0.00  0.00    +0.000 OA
ATOM      8  C   UNL     1      -0.203  10.283  20.083  0.00  0.00    +0.000 C 
ATOM      9  N   UNL     1       0.997   9.732  20.515  0.00  0.00    +0.000 N 
ATOM     10  H   UNL     1       1.513  10.232  21.230  0.00  0.00    +0.000 HD
BRANCH   8  11
ATOM     11  C   UNL     1      -0.483  11.721  20.566  0.00  0.00    +0.000 C 
BRANCH  11  12
ATOM     12  N   UNL     1      -0.204  11.933  22.009  0.00  0.00    +0.000 NA
ATOM     13  C   UNL     1      -1.070  11.148  22.912  0.00  0.00    +0.000 C 
ATOM     14  C   UNL     1      -2.301  11.998  23.137  0.00  0.00    +0.000 C 
ATOM     15  C   UNL     1      -1.713  13.384  23.258  0.00  0.00    +0.000 C 
ATOM     16  C   UNL     1      -0.461  13.346  22.380  0.00  0.00    +0.000 C 
ENDBRANCH  11  12
ENDBRANCH   8  11
ENDBRANCH   1   9
BRANCH   4  17
ATOM     17  S   UNL     1       3.040   4.434  18.500  0.00  0.00    +0.000 S 
ATOM     18  O   UNL     1       3.228   3.584  19.652  0.00  0.00    +0.000 OA
ATOM     19  O   UNL     1       2.170   4.040  17.414  0.00  0.00    +0.000 OA
BRANCH  17  20
ATOM     20  N   UNL     1       4.591   4.781  17.834  0.00  0.00    +0.000 NA
ATOM     21  C   UNL     1       5.695   4.903  18.820  0.00  0.00    +0.000 C 
ATOM     22  C   UNL     1       6.983   5.396  18.168  0.00  0.00    +0.000 C 
ATOM     23  C   UNL     1       7.361   4.532  16.976  0.00  0.00    +0.000 C 
ATOM     24  C   UNL     1       6.228   4.555  15.963  0.00  0.00    +0.000 C 
ATOM     25  C   UNL     1       4.917   4.067  16.574  0.00  0.00    +0.000 C 
ENDBRANCH  17  20
ENDBRANCH   4  17
TORSDOF 5
ENDMDL
MODEL 3
REMARK VINA RESULT:      -7.2      4.998      7.292
REMARK  Name = 
REMARK  5 active torsions:
REMARK  status: ('A' for Active; 'I' for Inactive)
REMARK    1  A    between atoms: C_2  and  C_3
REMARK    2  A    between atoms: C_3  and  N_4
REMARK    3  A    between atoms: N_9  and  C_10
REMARK    4  A    between atoms: C_13  and  S_14
REMARK    5  A    between atoms: S_14  and  N_17
REMARK                            x       y       z     vdW  Elec       q    Type
REMARK                         _______ _______ _______ _____ _____    ______ ____
ROOT
ATOM      1  C   UNL     1       1.507   7.213  20.487  0.00  0.00    +0.000 A 
ATOM      2  C   UNL     1       1.690   5.907  20.959  0.00  0.00    +0.000 A 
ATOM      3  C   UNL     1       2.513   5.002  20.281  0.00  0.00    +0.000 A 
ATOM      4  C   UNL     1       3.145   5.388  19.102  0.00  0.00    +0.000 A 
ATOM      5  C   UNL     1       3.032   6.710  18.655  0.00  0.00    +0.000 A 
ATOM      6  C   UNL     1       2.206   7.613  19.346  0.00  0.00    +0.000 A 
ENDROOT
BRANCH   1   9
ATOM      7  O   UNL     1       2.108   9.184  22.529  0.00  0.00    +0.000 OA
ATOM      8  C   UNL     1       0.961   9.040  22.104  0.00  0.00    +0.000 C 
ATOM      9  N   UNL     1       0.621   8.140  21.101  0.00  0.00    +0.000 N 
ATOM     10  H   UNL     1      -0.324   8.179  20.736  0.00  0.00    +0.000 HD
BRANCH   8  11
ATOM     11  C   UNL     1      -0.218   9.824  22.718  0.00  0.00    +0.000 C 
BRANCH  11  12
ATOM     12  N   UNL     1      -0.079  11.298  22.604  0.00  0.00    +0.000 NA
ATOM     13  C   UNL     1      -1.289  12.050  22.996  0.00  0.00    +0.000 C 
ATOM     14  C   UNL     1      -2.135  12.141  21.746  0.00  0.00    +0.000 C 
ATOM     15  C   UNL     1      -1.097  12.390  20.677  0.00  0.00    +0.000 C 
ATOM     16  C   UNL     1       0.158  11.684  21.191  0.00  0.00    +0.000 C 
ENDBRANCH  11  12
ENDBRANCH   8  11
ENDBRANCH   1   9
BRANCH   4  17
ATOM     17  S   UNL     1       4.184   4.211  18.242  0.00  0.00    +0.000 S 
ATOM     18  O   UNL     1       4.348   3.075  19.116  0.00  0.00    +0.000 OA
ATOM     19  O   UNL     1       3.647   4.057  16.907  0.00  0.00    +0.000 OA
BRANCH  17  20
ATOM     20  N   UNL     1       5.706   5.008  18.108  0.00  0.00    +0.000 NA
ATOM     21  C   UNL     1       5.792   6.044  17.048  0.00  0.00    +0.000 C 
ATOM     22  C   UNL     1       7.217   6.559  16.874  0.00  0.00    +0.000 C 
ATOM     23  C   UNL     1       7.795   7.033  18.198  0.00  0.00    +0.000 C 
ATOM     24  C   UNL     1       7.779   5.881  19.191  0.00  0.00    +0.000 C 
ATOM     25  C   UNL     1       6.368   5.336  19.396  0.00  0.00    +0.000 C 
ENDBRANCH  17  20
ENDBRANCH   4  17
TORSDOF 5
ENDMDL
MODEL 4
REMARK VINA RESULT:      -7.1      5.567      7.515
REMARK  Name = 
REMARK  5 active torsions:
REMARK  status: ('A' for Active; 'I' for Inactive)
REMARK    1  A    between atoms: C_2  and  C_3
REMARK    2  A    between atoms: C_3  and  N_4
REMARK    3  A    between atoms: N_9  and  C_10
REMARK    4  A    between atoms: C_13  and  S_14
REMARK    5  A    between atoms: S_14  and  N_17
REMARK                            x       y       z     vdW  Elec       q    Type
REMARK                         _______ _______ _______ _____ _____    ______ ____
ROOT
ATOM      1  C   UNL     1       1.518   8.635  19.908  0.00  0.00    +0.000 A 
ATOM      2  C   UNL     1       1.996   8.442  18.604  0.00  0.00    +0.000 A 
ATOM      3  C   UNL     1       2.491   7.201  18.193  0.00  0.00    +0.000 A 
ATOM      4  C   UNL     1       2.538   6.140  19.093  0.00  0.00    +0.000 A 
ATOM      5  C   UNL     1       2.000   6.293  20.376  0.00  0.00    +0.000 A 
ATOM      6  C   UNL     1       1.500   7.544  20.779  0.00  0.00    +0.000 A 
ENDROOT
BRANCH   1   9
ATOM      7  O   UNL     1      -1.042   9.927  19.472  0.00  0.00    +0.000 OA
ATOM      8  C   UNL     1      -0.152  10.484  20.117  0.00  0.00    +0.000 C 
ATOM      9  N   UNL     1       1.079   9.898  20.390  0.00  0.00    +0.000 N 
ATOM     10  H   UNL     1       1.698  10.384  21.028  0.00  0.00    +0.000 HD
BRANCH   8  11
ATOM     11  C   UNL     1      -0.324  11.930  20.625  0.00  0.00    +0.000 C 
BRANCH  11  12
ATOM     12  N   UNL     1      -0.167  12.070  22.096  0.00  0.00    +0.000 NA
ATOM     13  C   UNL     1      -1.050  11.188  22.884  0.00  0.00    +0.000 C 
ATOM     14  C   UNL     1      -2.342  11.955  23.058  0.00  0.00    +0.000 C 
ATOM     15  C   UNL     1      -1.846  13.361  23.300  0.00  0.00    +0.000 C 
ATOM     16  C   UNL     1      -0.532  13.443  22.522  0.00  0.00    +0.000 C 
ENDBRANCH  11  12
ENDBRANCH   8  11
ENDBRANCH   1   9
BRANCH   4  17
ATOM     17  S   UNL     1       3.188   4.562  18.551  0.00  0.00    +0.000 S 
ATOM     18  O   UNL     1       3.182   3.686  19.698  0.00  0.00    +0.000 OA
ATOM     19  O   UNL     1       2.491   4.205  17.334  0.00  0.00    +0.000 OA
BRANCH  17  20
ATOM     20  N   UNL     1       4.828   4.896  18.141  0.00  0.00    +0.000 NA
ATOM     21  C   UNL     1       5.042   5.468  16.787  0.00  0.00    +0.000 C 
ATOM     22  C   UNL     1       6.525   5.554  16.438  0.00  0.00    +0.000 C 
ATOM     23  C   UNL     1       7.300   6.298  17.514  0.00  0.00    +0.000 C 
ATOM     24  C   UNL     1       7.123   5.582  18.843  0.00  0.00    +0.000 C 
ATOM     25  C   UNL     1       5.651   5.475  19.232  0.00  0.00    +0.000 C 
ENDBRANCH  17  20
ENDBRANCH   4  17
TORSDOF 5
ENDMDL
MODEL 5
REMARK VINA RESULT:      -7.1      5.609      8.444
REMARK  Name = 
REMARK  5 active torsions:
REMARK  status: ('A' for Active; 'I' for Inactive)
REMARK    1  A    between atoms: C_2  and  C_3
REMARK    2  A    between atoms: C_3  and  N_4
REMARK    3  A    between atoms: N_9  and  C_10
REMARK    4  A    between atoms: C_13  and  S_14
REMARK    5  A    between atoms: S_14  and  N_17
REMARK                            x       y       z     vdW  Elec       q    Type
REMARK                         _______ _______ _______ _____ _____    ______ ____
ROOT
ATOM      1  C   UNL     1       2.490   6.951  18.743  0.00  0.00    +0.000 A 
ATOM      2  C   UNL     1       2.564   8.005  17.823  0.00  0.00    +0.000 A 
ATOM      3  C   UNL     1       2.061   9.272  18.133  0.00  0.00    +0.000 A 
ATOM      4  C   UNL     1       1.451   9.494  19.364  0.00  0.00    +0.000 A 
ATOM      5  C   UNL     1       1.432   8.474  20.323  0.00  0.00    +0.000 A 
ATOM      6  C   UNL     1       1.944   7.205  20.004  0.00  0.00    +0.000 A 
ENDROOT
BRANCH   1   9
ATOM      7  O   UNL     1       4.965   5.650  19.512  0.00  0.00    +0.000 OA
ATOM      8  C   UNL     1       4.136   5.071  18.809  0.00  0.00    +0.000 C 
ATOM      9  N   UNL     1       2.918   5.629  18.441  0.00  0.00    +0.000 N 
ATOM     10  H   UNL     1       2.253   5.032  17.963  0.00  0.00    +0.000 HD
BRANCH   8  11
ATOM     11  C   UNL     1       4.429   3.675  18.221  0.00  0.00    +0.000 C 
BRANCH  11  12
ATOM     12  N   UNL     1       4.027   2.555  19.109  0.00  0.00    +0.000 NA
ATOM     13  C   UNL     1       3.141   1.564  18.467  0.00  0.00    +0.000 C 
ATOM     14  C   UNL     1       1.735   2.084  18.668  0.00  0.00    +0.000 C 
ATOM     15  C   UNL     1       1.793   2.619  20.079  0.00  0.00    +0.000 C 
ATOM     16  C   UNL     1       3.243   3.068  20.259  0.00  0.00    +0.000 C 
ENDBRANCH  11  12
ENDBRANCH   8  11
ENDBRANCH   1   9
BRANCH   4  17
ATOM     17  S   UNL     1       0.802  11.120  19.738  0.00  0.00    +0.000 S 
ATOM     18  O   UNL     1       0.877  11.287  21.170  0.00  0.00    +0.000 OA
ATOM     19  O   UNL     1       1.444  12.056  18.841  0.00  0.00    +0.000 OA
BRANCH  17  20
ATOM     20  N   UNL     1      -0.861  11.024  19.298  0.00  0.00    +0.000 NA
ATOM     21  C   UNL     1      -1.649  12.266  19.508  0.00  0.00    +0.000 C 
ATOM     22  C   UNL     1      -3.139  12.038  19.274  0.00  0.00    +0.000 C 
ATOM     23  C   UNL     1      -3.391  11.413  17.912  0.00  0.00    +0.000 C 
ATOM     24  C   UNL     1      -2.646  10.091  17.822  0.00  0.00    +0.000 C 
ATOM     25  C   UNL     1      -1.147  10.274  18.049  0.00  0.00    +0.000 C 
ENDBRANCH  17  20
ENDBRANCH   4  17
TORSDOF 5
ENDMDL
MODEL 6
REMARK VINA RESULT:      -7.1      5.008      7.393
REMARK  Name = 
REMARK  5 active torsions:
REMARK  status: ('A' for Active; 'I' for Inactive)
REMARK    1  A    between atoms: C_2  and  C_3
REMARK    2  A    between atoms: C_3  and  N_4
REMARK    3  A    between atoms: N_9  and  C_10
REMARK    4  A    between atoms: C_13  and  S_14
REMARK    5  A    between atoms: S_14  and  N_17
REMARK                            x       y       z     vdW  Elec       q    Type
REMARK                         _______ _______ _______ _____ _____    ______ ____
ROOT
ATOM      1  C   UNL     1       1.486   7.139  20.546  0.00  0.00    +0.000 A 
ATOM      2  C   UNL     1       1.518   5.852  21.100  0.00  0.00    +0.000 A 
ATOM      3  C   UNL     1       2.325   4.849  20.552  0.00  0.00    +0.000 A 
ATOM      4  C   UNL     1       3.092   5.117  19.421  0.00  0.00    +0.000 A 
ATOM      5  C   UNL     1       3.128   6.415  18.898  0.00  0.00    +0.000 A 
ATOM      6  C   UNL     1       2.317   7.417  19.459  0.00  0.00    +0.000 A 
ENDROOT
BRANCH   1   9
ATOM      7  O   UNL     1       2.039   9.149  22.563  0.00  0.00    +0.000 OA
ATOM      8  C   UNL     1       0.934   9.080  22.022  0.00  0.00    +0.000 C 
ATOM      9  N   UNL     1       0.624   8.163  21.024  0.00  0.00    +0.000 N 
ATOM     10  H   UNL     1      -0.270   8.262  20.558  0.00  0.00    +0.000 HD
BRANCH   8  11
ATOM     11  C   UNL     1      -0.230   9.987  22.472  0.00  0.00    +0.000 C 
BRANCH  11  12
ATOM     12  N   UNL     1      -0.059  11.412  22.092  0.00  0.00    +0.000 NA
ATOM     13  C   UNL     1      -0.977  12.337  22.788  0.00  0.00    +0.000 C 
ATOM     14  C   UNL     1      -2.233  12.375  21.946  0.00  0.00    +0.000 C 
ATOM     15  C   UNL     1      -1.674  12.377  20.542  0.00  0.00    +0.000 C 
ATOM     16  C   UNL     1      -0.362  11.599  20.652  0.00  0.00    +0.000 C 
ENDBRANCH  11  12
ENDBRANCH   8  11
ENDBRANCH   1   9
BRANCH   4  17
ATOM     17  S   UNL     1       4.108   3.817  18.726  0.00  0.00    +0.000 S 
ATOM     18  O   UNL     1       4.994   3.369  19.774  0.00  0.00    +0.000 OA
ATOM     19  O   UNL     1       3.223   2.895  18.049  0.00  0.00    +0.000 OA
BRANCH  17  20
ATOM     20  N   UNL     1       5.056   4.614  17.529  0.00  0.00    +0.000 NA
ATOM     21  C   UNL     1       6.465   4.888  17.910  0.00  0.00    +0.000 C 
ATOM     22  C   UNL     1       7.172   5.758  16.875  0.00  0.00    +0.000 C 
ATOM     23  C   UNL     1       7.052   5.161  15.481  0.00  0.00    +0.000 C 
ATOM     24  C   UNL     1       5.581   5.023  15.122  0.00  0.00    +0.000 C 
ATOM     25  C   UNL     1       4.835   4.157  16.133  0.00  0.00    +0.000 C 
ENDBRANCH  17  20
ENDBRANCH   4  17
TORSDOF 5
ENDMDL
MODEL 7
REMARK VINA RESULT:      -7.0      5.500      7.429
REMARK  Name = 
REMARK  5 active torsions:
REMARK  status: ('A' for Active; 'I' for Inactive)
REMARK    1  A    between atoms: C_2  and  C_3
REMARK    2  A    between atoms: C_3  and  N_4
REMARK    3  A    between atoms: N_9  and  C_10
REMARK    4  A    between atoms: C_13  and  S_14
REMARK    5  A    between atoms: S_14  and  N_17
REMARK                            x       y       z     vdW  Elec       q    Type
REMARK                         _______ _______ _______ _____ _____    ______ ____
ROOT
ATOM      1  C   UNL     1       1.553   8.198  19.743  0.00  0.00    +0.000 A 
ATOM      2  C   UNL     1       1.521   7.130  20.651  0.00  0.00    +0.000 A 
ATOM      3  C   UNL     1       2.112   5.901  20.341  0.00  0.00    +0.000 A 
ATOM      4  C   UNL     1       2.722   5.717  19.103  0.00  0.00    +0.000 A 
ATOM      5  C   UNL     1       2.827   6.794  18.214  0.00  0.00    +0.000 A 
ATOM      6  C   UNL     1       2.233   8.026  18.536  0.00  0.00    +0.000 A 
ENDROOT
BRANCH   1   9
ATOM      7  O   UNL     1       1.526   9.762  22.186  0.00  0.00    +0.000 OA
ATOM      8  C   UNL     1       0.893  10.125  21.193  0.00  0.00    +0.000 C 
ATOM      9  N   UNL     1       0.899   9.437  19.985  0.00  0.00    +0.000 N 
ATOM     10  H   UNL     1       0.445   9.876  19.193  0.00  0.00    +0.000 HD
BRANCH   8  11
ATOM     11  C   UNL     1      -0.024  11.364  21.245  0.00  0.00    +0.000 C 
BRANCH  11  12
ATOM     12  N   UNL     1      -0.318  11.835  22.623  0.00  0.00    +0.000 NA
ATOM     13  C   UNL     1      -1.540  11.252  23.212  0.00  0.00    +0.000 C 
ATOM     14  C   UNL     1      -2.673  12.156  22.778  0.00  0.00    +0.000 C 
ATOM     15  C   UNL     1      -2.049  13.527  22.901  0.00  0.00    +0.000 C 
ATOM     16  C   UNL     1      -0.563  13.298  22.624  0.00  0.00    +0.000 C 
ENDBRANCH  11  12
ENDBRANCH   8  11
ENDBRANCH   1   9
BRANCH   4  17
ATOM     17  S   UNL     1       3.462   4.133  18.721  0.00  0.00    +0.000 S 
ATOM     18  O   UNL     1       3.407   3.339  19.925  0.00  0.00    +0.000 OA
ATOM     19  O   UNL     1       2.864   3.665  17.489  0.00  0.00    +0.000 OA
BRANCH  17  20
ATOM     20  N   UNL     1       5.113   4.502  18.398  0.00  0.00    +0.000 NA
ATOM     21  C   UNL     1       5.456   4.688  16.964  0.00  0.00    +0.000 C 
ATOM     22  C   UNL     1       6.961   4.822  16.756  0.00  0.00    +0.000 C 
ATOM     23  C   UNL     1       7.544   5.914  17.639  0.00  0.00    +0.000 C 
ATOM     24  C   UNL     1       7.251   5.588  19.095  0.00  0.00    +0.000 C 
ATOM     25  C   UNL     1       5.752   5.446  19.349  0.00  0.00    +0.000 C 
ENDBRANCH  17  20
ENDBRANCH   4  17
TORSDOF 5
ENDMDL
MODEL 8
REMARK VINA RESULT:      -7.0      5.034      7.382
REMARK  Name = 
REMARK  5 active torsions:
REMARK  status: ('A' for Active; 'I' for Inactive)
REMARK    1  A    between atoms: C_2  and  C_3
REMARK    2  A    between atoms: C_3  and  N_4
REMARK    3  A    between atoms: N_9  and  C_10
REMARK    4  A    between atoms: C_13  and  S_14
REMARK    5  A    between atoms: S_14  and  N_17
REMARK                            x       y       z     vdW  Elec       q    Type
REMARK                         _______ _______ _______ _____ _____    ______ ____
ROOT
ATOM      1  C   UNL     1       1.857   7.385  20.410  0.00  0.00    +0.000 A 
ATOM      2  C   UNL     1       2.284   7.581  19.090  0.00  0.00    +0.000 A 
ATOM      3  C   UNL     1       2.711   6.508  18.301  0.00  0.00    +0.000 A 
ATOM      4  C   UNL     1       2.740   5.223  18.836  0.00  0.00    +0.000 A 
ATOM      5  C   UNL     1       2.250   4.997  20.127  0.00  0.00    +0.000 A 
ATOM      6  C   UNL     1       1.818   6.082  20.911  0.00  0.00    +0.000 A 
ENDROOT
BRANCH   1   9
ATOM      7  O   UNL     1      -0.763   7.988  21.498  0.00  0.00    +0.000 OA
ATOM      8  C   UNL     1       0.204   8.714  21.732  0.00  0.00    +0.000 C 
ATOM      9  N   UNL     1       1.488   8.455  21.270  0.00  0.00    +0.000 N 
ATOM     10  H   UNL     1       2.238   9.044  21.614  0.00  0.00    +0.000 HD
BRANCH   8  11
ATOM     11  C   UNL     1       0.037  10.029  22.521  0.00  0.00    +0.000 C 
BRANCH  11  12
ATOM     12  N   UNL     1      -1.050  10.902  22.007  0.00  0.00    +0.000 NA
ATOM     13  C   UNL     1      -0.593  11.942  21.063  0.00  0.00    +0.000 C 
ATOM     14  C   UNL     1      -0.196  13.124  21.919  0.00  0.00    +0.000 C 
ATOM     15  C   UNL     1      -1.275  13.127  22.976  0.00  0.00    +0.000 C 
ATOM     16  C   UNL     1      -1.673  11.657  23.121  0.00  0.00    +0.000 C 
ENDBRANCH  11  12
ENDBRANCH   8  11
ENDBRANCH   1   9
BRANCH   4  17
ATOM     17  S   UNL     1       3.303   3.864  17.814  0.00  0.00    +0.000 S 
ATOM     18  O   UNL     1       3.823   2.854  18.704  0.00  0.00    +0.000 OA
ATOM     19  O   UNL     1       2.242   3.562  16.878  0.00  0.00    +0.000 OA
BRANCH  17  20
ATOM     20  N   UNL     1       4.622   4.522  16.922  0.00  0.00    +0.000 NA
ATOM     21  C   UNL     1       5.859   4.772  17.705  0.00  0.00    +0.000 C 
ATOM     22  C   UNL     1       6.903   5.525  16.887  0.00  0.00    +0.000 C 
ATOM     23  C   UNL     1       7.182   4.820  15.569  0.00  0.00    +0.000 C 
ATOM     24  C   UNL     1       5.888   4.709  14.778  0.00  0.00    +0.000 C 
ATOM     25  C   UNL     1       4.813   3.959  15.561  0.00  0.00    +0.000 C 
ENDBRANCH  17  20
ENDBRANCH   4  17
TORSDOF 5
ENDMDL
MODEL 9
REMARK VINA RESULT:      -7.0      4.956      6.948
REMARK  Name = 
REMARK  5 active torsions:
REMARK  status: ('A' for Active; 'I' for Inactive)
REMARK    1  A    between atoms: C_2  and  C_3
REMARK    2  A    between atoms: C_3  and  N_4
REMARK    3  A    between atoms: N_9  and  C_10
REMARK    4  A    between atoms: C_13  and  S_14
REMARK    5  A    between atoms: S_14  and  N_17
REMARK                            x       y       z     vdW  Elec       q    Type
REMARK                         _______ _______ _______ _____ _____    ______ ____
ROOT
ATOM      1  C   UNL     1       1.914   7.052  20.179  0.00  0.00    +0.000 A 
ATOM      2  C   UNL     1       2.449   7.131  18.886  0.00  0.00    +0.000 A 
ATOM      3  C   UNL     1       2.873   5.984  18.208  0.00  0.00    +0.000 A 
ATOM      4  C   UNL     1       2.792   4.741  18.830  0.00  0.00    +0.000 A 
ATOM      5  C   UNL     1       2.195   4.634  20.092  0.00  0.00    +0.000 A 
ATOM      6  C   UNL     1       1.767   5.792  20.763  0.00  0.00    +0.000 A 
ENDROOT
BRANCH   1   9
ATOM      7  O   UNL     1       0.510   9.419  19.264  0.00  0.00    +0.000 OA
ATOM      8  C   UNL     1       0.899   9.323  20.429  0.00  0.00    +0.000 C 
ATOM      9  N   UNL     1       1.542   8.199  20.933  0.00  0.00    +0.000 N 
ATOM     10  H   UNL     1       1.717   8.166  21.930  0.00  0.00    +0.000 HD
BRANCH   8  11
ATOM     11  C   UNL     1       0.752  10.499  21.416  0.00  0.00    +0.000 C 
BRANCH  11  12
ATOM     12  N   UNL     1      -0.578  11.160  21.366  0.00  0.00    +0.000 NA
ATOM     13  C   UNL     1      -0.557  12.513  20.776  0.00  0.00    +0.000 C 
ATOM     14  C   UNL     1      -0.255  13.453  21.923  0.00  0.00    +0.000 C 
ATOM     15  C   UNL     1      -1.069  12.855  23.046  0.00  0.00    +0.000 C 
ATOM     16  C   UNL     1      -1.105  11.357  22.738  0.00  0.00    +0.000 C 
ENDBRANCH  11  12
ENDBRANCH   8  11
ENDBRANCH   1   9
BRANCH   4  17
ATOM     17  S   UNL     1       3.353   3.286  17.951  0.00  0.00    +0.000 S 
ATOM     18  O   UNL     1       3.541   2.245  18.933  0.00  0.00    +0.000 OA
ATOM     19  O   UNL     1       2.468   3.098  16.822  0.00  0.00    +0.000 OA
BRANCH  17  20
ATOM     20  N   UNL     1       4.901   3.730  17.339  0.00  0.00    +0.000 NA
ATOM     21  C   UNL     1       4.919   4.196  15.928  0.00  0.00    +0.000 C 
ATOM     22  C   UNL     1       6.342   4.385  15.413  0.00  0.00    +0.000 C 
ATOM     23  C   UNL     1       7.144   5.290  16.335  0.00  0.00    +0.000 C 
ATOM     24  C   UNL     1       7.175   4.683  17.729  0.00  0.00    +0.000 C 
ATOM     25  C   UNL     1       5.769   4.477  18.284  0.00  0.00    +0.000 C 
ENDBRANCH  17  20
ENDBRANCH   4  17
TORSDOF 5
ENDMDL
