MODEL 1
REMARK VINA RESULT:      -6.8      0.000      0.000
REMARK  Name = 
REMARK  2 active torsions:
REMARK  status: ('A' for Active; 'I' for Inactive)
REMARK    1  A    between atoms: C_2  and  C_4
REMARK    2  A    between atoms: C_8  and  C_9
REMARK                            x       y       z     vdW  Elec       q    Type
REMARK                         _______ _______ _______ _____ _____    ______ ____
ROOT
ATOM      1  C   UNL     1       2.290   3.302  19.785  0.00  0.00    +0.000 A 
ATOM      2  C   UNL     1       1.466   2.219  19.503  0.00  0.00    +0.000 A 
ATOM      3  N   UNL     1       1.713   1.800  18.225  0.00  0.00    +0.000 N 
ATOM      4  C   UNL     1       2.699   2.573  17.677  0.00  0.00    +0.000 A 
ATOM      5  C   UNL     1       3.090   3.523  18.607  0.00  0.00    +0.000 A 
ATOM      6  H   UNL     1       1.242   1.036  17.757  0.00  0.00    +0.000 HD
ENDROOT
BRANCH   5   7
ATOM      7  C   UNL     1       4.171   4.475  18.343  0.00  0.00    +0.000 A 
ATOM      8  C   UNL     1       4.035   5.473  17.365  0.00  0.00    +0.000 A 
ATOM      9  C   UNL     1       5.079   6.368  17.102  0.00  0.00    +0.000 A 
ATOM     10  C   UNL     1       6.266   6.279  17.824  0.00  0.00    +0.000 A 
ATOM     11 CL   UNL     1       7.549   7.381  17.508  0.00  0.00    +0.000 Cl
ATOM     12  C   UNL     1       6.420   5.299  18.798  0.00  0.00    +0.000 A 
ATOM     13  C   UNL     1       5.383   4.395  19.045  0.00  0.00    +0.000 A 
ENDBRANCH   5   7
BRANCH   1  15
ATOM     14  N   UNL     1       2.226   5.406  20.905  0.00  0.00    +0.000 N 
ATOM     15  C   UNL     1       2.282   4.045  21.039  0.00  0.00    +0.000 C 
ATOM     16  O   UNL     1       2.279   3.535  22.152  0.00  0.00    +0.000 OA
ATOM     17  H   UNL     1       2.069   5.933  21.752  0.00  0.00    +0.000 HD
ATOM     18  H   UNL     1       2.008   5.832  20.016  0.00  0.00    +0.000 HD
ENDBRANCH   1  15
TORSDOF 2
ENDMDL
MODEL 2
REMARK VINA RESULT:      -6.8      0.071      1.245
REMARK  Name = 
REMARK  2 active torsions:
REMARK  status: ('A' for Active; 'I' for Inactive)
REMARK    1  A    between atoms: C_2  and  C_4
REMARK    2  A    between atoms: C_8  and  C_9
REMARK                            x       y       z     vdW  Elec       q    Type
REMARK                         _______ _______ _______ _____ _____    ______ ____
ROOT
ATOM      1  C   UNL     1       2.260   3.312  19.756  0.00  0.00    +0.000 A 
ATOM      2  C   UNL     1       1.419   2.244  19.468  0.00  0.00    +0.000 A 
ATOM      3  N   UNL     1       1.650   1.836  18.184  0.00  0.00    +0.000 N 
ATOM      4  C   UNL     1       2.643   2.600  17.637  0.00  0.00    +0.000 A 
ATOM      5  C   UNL     1       3.054   3.535  18.574  0.00  0.00    +0.000 A 
ATOM      6  H   UNL     1       1.165   1.083  17.712  0.00  0.00    +0.000 HD
ENDROOT
BRANCH   5   7
ATOM      7  C   UNL     1       4.146   4.475  18.312  0.00  0.00    +0.000 A 
ATOM      8  C   UNL     1       5.384   4.347  18.961  0.00  0.00    +0.000 A 
ATOM      9  C   UNL     1       6.418   5.260  18.722  0.00  0.00    +0.000 A 
ATOM     10  C   UNL     1       6.226   6.303  17.821  0.00  0.00    +0.000 A 
ATOM     11 CL   UNL     1       7.497   7.424  17.520  0.00  0.00    +0.000 Cl
ATOM     12  C   UNL     1       5.008   6.447  17.166  0.00  0.00    +0.000 A 
ATOM     13  C   UNL     1       3.971   5.544  17.421  0.00  0.00    +0.000 A 
ENDBRANCH   5   7
BRANCH   1  15
ATOM     14  N   UNL     1       2.250   5.404  20.899  0.00  0.00    +0.000 N 
ATOM     15  C   UNL     1       2.273   4.042  21.018  0.00  0.00    +0.000 C 
ATOM     16  O   UNL     1       2.258   3.519  22.126  0.00  0.00    +0.000 OA
ATOM     17  H   UNL     1       2.108   5.926  21.751  0.00  0.00    +0.000 HD
ATOM     18  H   UNL     1       2.042   5.846  20.015  0.00  0.00    +0.000 HD
ENDBRANCH   1  15
TORSDOF 2
ENDMDL
MODEL 3
REMARK VINA RESULT:      -6.7      3.937      5.269
REMARK  Name = 
REMARK  2 active torsions:
REMARK  status: ('A' for Active; 'I' for Inactive)
REMARK    1  A    between atoms: C_2  and  C_4
REMARK    2  A    between atoms: C_8  and  C_9
REMARK                            x       y       z     vdW  Elec       q    Type
REMARK                         _______ _______ _______ _____ _____    ______ ____
ROOT
ATOM      1  C   UNL     1       6.697   4.877  16.337  0.00  0.00    +0.000 A 
ATOM      2  C   UNL     1       7.283   4.880  15.076  0.00  0.00    +0.000 A 
ATOM      3  N   UNL     1       6.357   4.463  14.161  0.00  0.00    +0.000 N 
ATOM      4  C   UNL     1       5.173   4.212  14.796  0.00  0.00    +0.000 A 
ATOM      5  C   UNL     1       5.333   4.453  16.151  0.00  0.00    +0.000 A 
ATOM      6  H   UNL     1       6.521   4.358  13.167  0.00  0.00    +0.000 HD
ENDROOT
BRANCH   5   7
ATOM      7  C   UNL     1       4.226   4.326  17.103  0.00  0.00    +0.000 A 
ATOM      8  C   UNL     1       3.585   5.461  17.623  0.00  0.00    +0.000 A 
ATOM      9  C   UNL     1       2.541   5.334  18.548  0.00  0.00    +0.000 A 
ATOM     10  C   UNL     1       2.123   4.070  18.951  0.00  0.00    +0.000 A 
ATOM     11 CL   UNL     1       0.837   3.911  20.083  0.00  0.00    +0.000 Cl
ATOM     12  C   UNL     1       2.744   2.933  18.447  0.00  0.00    +0.000 A 
ATOM     13  C   UNL     1       3.798   3.063  17.538  0.00  0.00    +0.000 A 
ENDBRANCH   5   7
BRANCH   1  15
ATOM     14  N   UNL     1       7.410   6.557  17.872  0.00  0.00    +0.000 N 
ATOM     15  C   UNL     1       7.388   5.222  17.573  0.00  0.00    +0.000 C 
ATOM     16  O   UNL     1       7.887   4.409  18.343  0.00  0.00    +0.000 OA
ATOM     17  H   UNL     1       7.748   6.805  18.790  0.00  0.00    +0.000 HD
ATOM     18  H   UNL     1       6.824   7.210  17.374  0.00  0.00    +0.000 HD
ENDBRANCH   1  15
TORSDOF 2
ENDMDL
MODEL 4
REMARK VINA RESULT:      -6.7      3.943      5.343
REMARK  Name = 
REMARK  2 active torsions:
REMARK  status: ('A' for Active; 'I' for Inactive)
REMARK    1  A    between atoms: C_2  and  C_4
REMARK    2  A    between atoms: C_8  and  C_9
REMARK                            x       y       z     vdW  Elec       q    Type
REMARK                         _______ _______ _______ _____ _____    ______ ____
ROOT
ATOM      1  C   UNL     1       6.696   4.873  16.330  0.00  0.00    +0.000 A 
ATOM      2  C   UNL     1       7.265   4.886  15.062  0.00  0.00    +0.000 A 
ATOM      3  N   UNL     1       6.330   4.473  14.155  0.00  0.00    +0.000 N 
ATOM      4  C   UNL     1       5.154   4.215  14.802  0.00  0.00    +0.000 A 
ATOM      5  C   UNL     1       5.330   4.446  16.157  0.00  0.00    +0.000 A 
ATOM      6  H   UNL     1       6.482   4.377  13.159  0.00  0.00    +0.000 HD
ENDROOT
BRANCH   5   7
ATOM      7  C   UNL     1       4.236   4.309  17.121  0.00  0.00    +0.000 A 
ATOM      8  C   UNL     1       3.798   3.045  17.545  0.00  0.00    +0.000 A 
ATOM      9  C   UNL     1       2.738   2.918  18.451  0.00  0.00    +0.000 A 
ATOM     10  C   UNL     1       2.114   4.058  18.950  0.00  0.00    +0.000 A 
ATOM     11 CL   UNL     1       0.815   3.907  20.068  0.00  0.00    +0.000 Cl
ATOM     12  C   UNL     1       2.533   5.320  18.544  0.00  0.00    +0.000 A 
ATOM     13  C   UNL     1       3.580   5.442  17.625  0.00  0.00    +0.000 A 
ENDBRANCH   5   7
BRANCH   1  15
ATOM     14  N   UNL     1       7.437   6.545  17.860  0.00  0.00    +0.000 N 
ATOM     15  C   UNL     1       7.400   5.210  17.560  0.00  0.00    +0.000 C 
ATOM     16  O   UNL     1       7.899   4.392  18.325  0.00  0.00    +0.000 OA
ATOM     17  H   UNL     1       7.785   6.789  18.776  0.00  0.00    +0.000 HD
ATOM     18  H   UNL     1       6.852   7.204  17.368  0.00  0.00    +0.000 HD
ENDBRANCH   1  15
TORSDOF 2
ENDMDL
MODEL 5
REMARK VINA RESULT:      -6.6      2.968      3.471
REMARK  Name = 
REMARK  2 active torsions:
REMARK  status: ('A' for Active; 'I' for Inactive)
REMARK    1  A    between atoms: C_2  and  C_4
REMARK    2  A    between atoms: C_8  and  C_9
REMARK                            x       y       z     vdW  Elec       q    Type
REMARK                         _______ _______ _______ _____ _____    ______ ____
ROOT
ATOM      1  C   UNL     1       3.049   3.355  20.243  0.00  0.00    +0.000 A 
ATOM      2  C   UNL     1       4.040   2.390  20.105  0.00  0.00    +0.000 A 
ATOM      3  N   UNL     1       5.041   2.896  19.325  0.00  0.00    +0.000 N 
ATOM      4  C   UNL     1       4.736   4.181  18.972  0.00  0.00    +0.000 A 
ATOM      5  C   UNL     1       3.505   4.512  19.516  0.00  0.00    +0.000 A 
ATOM      6  H   UNL     1       5.881   2.399  19.053  0.00  0.00    +0.000 HD
ENDROOT
BRANCH   5   7
ATOM      7  C   UNL     1       2.918   5.845  19.363  0.00  0.00    +0.000 A 
ATOM      8  C   UNL     1       3.028   6.551  18.155  0.00  0.00    +0.000 A 
ATOM      9  C   UNL     1       2.482   7.833  18.020  0.00  0.00    +0.000 A 
ATOM     10  C   UNL     1       1.810   8.416  19.090  0.00  0.00    +0.000 A 
ATOM     11 CL   UNL     1       1.133   9.989  18.926  0.00  0.00    +0.000 Cl
ATOM     12  C   UNL     1       1.689   7.733  20.296  0.00  0.00    +0.000 A 
ATOM     13  C   UNL     1       2.251   6.461  20.433  0.00  0.00    +0.000 A 
ENDBRANCH   5   7
BRANCH   1  15
ATOM     14  N   UNL     1       0.671   3.185  20.202  0.00  0.00    +0.000 N 
ATOM     15  C   UNL     1       1.802   3.165  20.972  0.00  0.00    +0.000 C 
ATOM     16  O   UNL     1       1.723   2.954  22.177  0.00  0.00    +0.000 OA
ATOM     17  H   UNL     1      -0.186   2.908  20.657  0.00  0.00    +0.000 HD
ATOM     18  H   UNL     1       0.728   3.137  19.195  0.00  0.00    +0.000 HD
ENDBRANCH   1  15
TORSDOF 2
ENDMDL
MODEL 6
REMARK VINA RESULT:      -6.6      3.741      5.190
REMARK  Name = 
REMARK  2 active torsions:
REMARK  status: ('A' for Active; 'I' for Inactive)
REMARK    1  A    between atoms: C_2  and  C_4
REMARK    2  A    between atoms: C_8  and  C_9
REMARK                            x       y       z     vdW  Elec       q    Type
REMARK                         _______ _______ _______ _____ _____    ______ ____
ROOT
ATOM      1  C   UNL     1       6.481   5.480  17.573  0.00  0.00    +0.000 A 
ATOM      2  C   UNL     1       7.306   6.054  16.614  0.00  0.00    +0.000 A 
ATOM      3  N   UNL     1       6.734   5.887  15.384  0.00  0.00    +0.000 N 
ATOM      4  C   UNL     1       5.539   5.238  15.525  0.00  0.00    +0.000 A 
ATOM      5  C   UNL     1       5.337   4.961  16.867  0.00  0.00    +0.000 A 
ATOM      6  H   UNL     1       7.130   6.199  14.506  0.00  0.00    +0.000 HD
ENDROOT
BRANCH   5   7
ATOM      7  C   UNL     1       4.117   4.314  17.356  0.00  0.00    +0.000 A 
ATOM      8  C   UNL     1       2.998   5.071  17.737  0.00  0.00    +0.000 A 
ATOM      9  C   UNL     1       1.842   4.449  18.222  0.00  0.00    +0.000 A 
ATOM     10  C   UNL     1       1.790   3.062  18.319  0.00  0.00    +0.000 A 
ATOM     11 CL   UNL     1       0.368   2.294  18.910  0.00  0.00    +0.000 Cl
ATOM     12  C   UNL     1       2.887   2.293  17.946  0.00  0.00    +0.000 A 
ATOM     13  C   UNL     1       4.047   2.918  17.479  0.00  0.00    +0.000 A 
ENDBRANCH   5   7
BRANCH   1  15
ATOM     14  N   UNL     1       7.959   6.009  19.368  0.00  0.00    +0.000 N 
ATOM     15  C   UNL     1       6.780   5.422  18.999  0.00  0.00    +0.000 C 
ATOM     16  O   UNL     1       6.041   4.936  19.847  0.00  0.00    +0.000 OA
ATOM     17  H   UNL     1       8.117   6.114  20.359  0.00  0.00    +0.000 HD
ATOM     18  H   UNL     1       8.469   6.600  18.726  0.00  0.00    +0.000 HD
ENDBRANCH   1  15
TORSDOF 2
ENDMDL
MODEL 7
REMARK VINA RESULT:      -6.6      2.972      3.573
REMARK  Name = 
REMARK  2 active torsions:
REMARK  status: ('A' for Active; 'I' for Inactive)
REMARK    1  A    between atoms: C_2  and  C_4
REMARK    2  A    between atoms: C_8  and  C_9
REMARK                            x       y       z     vdW  Elec       q    Type
REMARK                         _______ _______ _______ _____ _____    ______ ____
ROOT
ATOM      1  C   UNL     1       3.076   3.402  20.239  0.00  0.00    +0.000 A 
ATOM      2  C   UNL     1       4.052   2.426  20.082  0.00  0.00    +0.000 A 
ATOM      3  N   UNL     1       5.040   2.917  19.276  0.00  0.00    +0.000 N 
ATOM      4  C   UNL     1       4.740   4.204  18.923  0.00  0.00    +0.000 A 
ATOM      5  C   UNL     1       3.527   4.551  19.495  0.00  0.00    +0.000 A 
ATOM      6  H   UNL     1       5.867   2.410  18.986  0.00  0.00    +0.000 HD
ENDROOT
BRANCH   5   7
ATOM      7  C   UNL     1       2.950   5.890  19.349  0.00  0.00    +0.000 A 
ATOM      8  C   UNL     1       2.260   6.501  20.408  0.00  0.00    +0.000 A 
ATOM      9  C   UNL     1       1.693   7.772  20.257  0.00  0.00    +0.000 A 
ATOM     10  C   UNL     1       1.822   8.449  19.047  0.00  0.00    +0.000 A 
ATOM     11 CL   UNL     1       1.132  10.014  18.860  0.00  0.00    +0.000 Cl
ATOM     12  C   UNL     1       2.503   7.862  17.987  0.00  0.00    +0.000 A 
ATOM     13  C   UNL     1       3.052   6.585  18.135  0.00  0.00    +0.000 A 
ENDBRANCH   5   7
BRANCH   1  15
ATOM     14  N   UNL     1       0.698   3.227  20.251  0.00  0.00    +0.000 N 
ATOM     15  C   UNL     1       1.844   3.230  20.998  0.00  0.00    +0.000 C 
ATOM     16  O   UNL     1       1.791   3.051  22.209  0.00  0.00    +0.000 OA
ATOM     17  H   UNL     1      -0.150   2.961  20.731  0.00  0.00    +0.000 HD
ATOM     18  H   UNL     1       0.734   3.152  19.244  0.00  0.00    +0.000 HD
ENDBRANCH   1  15
TORSDOF 2
ENDMDL
MODEL 8
REMARK VINA RESULT:      -6.6      3.751      5.301
REMARK  Name = 
REMARK  2 active torsions:
REMARK  status: ('A' for Active; 'I' for Inactive)
REMARK    1  A    between atoms: C_2  and  C_4
REMARK    2  A    between atoms: C_8  and  C_9
REMARK                            x       y       z     vdW  Elec       q    Type
REMARK                         _______ _______ _______ _____ _____    ______ ____
ROOT
ATOM      1  C   UNL     1       6.259   5.890  18.053  0.00  0.00    +0.000 A 
ATOM      2  C   UNL     1       6.529   6.802  17.040  0.00  0.00    +0.000 A 
ATOM      3  N   UNL     1       5.349   7.193  16.474  0.00  0.00    +0.000 N 
ATOM      4  C   UNL     1       4.311   6.575  17.114  0.00  0.00    +0.000 A 
ATOM      5  C   UNL     1       4.825   5.751  18.103  0.00  0.00    +0.000 A 
ATOM      6  H   UNL     1       5.255   7.843  15.703  0.00  0.00    +0.000 HD
ENDROOT
BRANCH   5   7
ATOM      7  C   UNL     1       3.964   4.985  19.007  0.00  0.00    +0.000 A 
ATOM      8  C   UNL     1       2.978   5.620  19.780  0.00  0.00    +0.000 A 
ATOM      9  C   UNL     1       2.171   4.886  20.657  0.00  0.00    +0.000 A 
ATOM     10  C   UNL     1       2.335   3.508  20.761  0.00  0.00    +0.000 A 
ATOM     11 CL   UNL     1       1.341   2.602  21.834  0.00  0.00    +0.000 Cl
ATOM     12  C   UNL     1       3.305   2.860  20.004  0.00  0.00    +0.000 A 
ATOM     13  C   UNL     1       4.122   3.598  19.142  0.00  0.00    +0.000 A 
ENDBRANCH   5   7
BRANCH   1  15
ATOM     14  N   UNL     1       8.043   4.313  18.179  0.00  0.00    +0.000 N 
ATOM     15  C   UNL     1       7.272   5.218  18.857  0.00  0.00    +0.000 C 
ATOM     16  O   UNL     1       7.486   5.445  20.042  0.00  0.00    +0.000 OA
ATOM     17  H   UNL     1       8.843   3.947  18.674  0.00  0.00    +0.000 HD
ATOM     18  H   UNL     1       8.031   4.272  17.170  0.00  0.00    +0.000 HD
ENDBRANCH   1  15
TORSDOF 2
ENDMDL
MODEL 9
REMARK VINA RESULT:      -6.5      3.322      4.166
REMARK  Name = 
REMARK  2 active torsions:
REMARK  status: ('A' for Active; 'I' for Inactive)
REMARK    1  A    between atoms: C_2  and  C_4
REMARK    2  A    between atoms: C_8  and  C_9
REMARK                            x       y       z     vdW  Elec       q    Type
REMARK                         _______ _______ _______ _____ _____    ______ ____
ROOT
ATOM      1  C   UNL     1       3.152   3.728  18.560  0.00  0.00    +0.000 A 
ATOM      2  C   UNL     1       4.201   2.841  18.768  0.00  0.00    +0.000 A 
ATOM      3  N   UNL     1       5.301   3.547  19.168  0.00  0.00    +0.000 N 
ATOM      4  C   UNL     1       4.983   4.874  19.250  0.00  0.00    +0.000 A 
ATOM      5  C   UNL     1       3.658   5.039  18.879  0.00  0.00    +0.000 A 
ATOM      6  H   UNL     1       6.209   3.150  19.376  0.00  0.00    +0.000 HD
ENDROOT
BRANCH   5   7
ATOM      7  C   UNL     1       2.995   6.345  18.911  0.00  0.00    +0.000 A 
ATOM      8  C   UNL     1       2.286   6.770  20.045  0.00  0.00    +0.000 A 
ATOM      9  C   UNL     1       1.637   8.010  20.062  0.00  0.00    +0.000 A 
ATOM     10  C   UNL     1       1.702   8.842  18.948  0.00  0.00    +0.000 A 
ATOM     11 CL   UNL     1       0.911  10.370  18.969  0.00  0.00    +0.000 Cl
ATOM     12  C   UNL     1       2.401   8.441  17.815  0.00  0.00    +0.000 A 
ATOM     13  C   UNL     1       3.032   7.193  17.794  0.00  0.00    +0.000 A 
ENDBRANCH   5   7
BRANCH   1  15
ATOM     14  N   UNL     1       1.357   2.159  18.569  0.00  0.00    +0.000 N 
ATOM     15  C   UNL     1       1.827   3.349  18.086  0.00  0.00    +0.000 C 
ATOM     16  O   UNL     1       1.129   4.033  17.346  0.00  0.00    +0.000 OA
ATOM     17  H   UNL     1       0.388   1.948  18.376  0.00  0.00    +0.000 HD
ATOM     18  H   UNL     1       1.814   1.694  19.340  0.00  0.00    +0.000 HD
ENDBRANCH   1  15
TORSDOF 2
ENDMDL
