MODEL 1
REMARK VINA RESULT:      -7.5      0.000      0.000
REMARK  Name = 
REMARK  8 active torsions:
REMARK  status: ('A' for Active; 'I' for Inactive)
REMARK    1  A    between atoms: C_1  and  C_2
REMARK    2  A    between atoms: C_2  and  C_3
REMARK    3  A    between atoms: C_6  and  O_7
REMARK    4  A    between atoms: O_7  and  C_8
REMARK    5  A    between atoms: C_8  and  C_9
REMARK    6  A    between atoms: N_11  and  N_12
REMARK    7  A    between atoms: C_13  and  C_14
REMARK    8  A    between atoms: C_19  and  N_20
REMARK                            x       y       z     vdW  Elec       q    Type
REMARK                         _______ _______ _______ _____ _____    ______ ____
ROOT
ATOM      1  O   UNL     1       2.328   2.196  18.526  0.00  0.00    +0.000 OA
ENDROOT
BRANCH   1   5
ATOM      2  C   UNL     1       2.168   6.359  19.106  0.00  0.00    +0.000 A 
ATOM      3  C   UNL     1       2.335   5.740  17.866  0.00  0.00    +0.000 A 
ATOM      4  C   UNL     1       2.370   4.342  17.767  0.00  0.00    +0.000 A 
ATOM      5  C   UNL     1       2.231   3.506  18.888  0.00  0.00    +0.000 A 
ATOM      6  C   UNL     1       2.020   4.140  20.115  0.00  0.00    +0.000 A 
ATOM      7  C   UNL     1       1.991   5.549  20.232  0.00  0.00    +0.000 A 
BRANCH   6   8
ATOM      8  N   UNL     1       1.817   3.432  21.357  0.00  0.00    +0.000 N 
ATOM      9  O   UNL     1       2.516   3.771  22.325  0.00  0.00    +0.000 OA
ATOM     10  O   UNL     1       0.923   2.581  21.381  0.00  0.00    +0.000 OA
ENDBRANCH   6   8
BRANCH   2  12
ATOM     11  C   UNL     1       2.113   8.550  17.868  0.00  0.00    +0.000 C 
ATOM     12  C   UNL     1       2.162   7.861  19.223  0.00  0.00    +0.000 C 
ENDBRANCH   2  12
ENDBRANCH   1   5
BRANCH   1  13
ATOM     13  C   UNL     1       3.557   1.488  18.524  0.00  0.00    +0.000 C 
BRANCH  13  14
ATOM     14  C   UNL     1       4.567   2.231  19.402  0.00  0.00    +0.000 C 
ATOM     15  O   UNL     1       4.727   1.954  20.591  0.00  0.00    +0.000 OA
ATOM     16  N   UNL     1       5.188   3.271  18.726  0.00  0.00    +0.000 N 
ATOM     17  H   UNL     1       4.871   3.520  17.791  0.00  0.00    +0.000 HD
BRANCH  16  18
ATOM     18  N   UNL     1       6.011   4.143  19.380  0.00  0.00    +0.000 NA
ATOM     19  C   UNL     1       6.403   5.209  18.739  0.00  0.00    +0.000 C 
BRANCH  19  20
ATOM     20  C   UNL     1       5.990   5.666  17.432  0.00  0.00    +0.000 A 
ATOM     21  C   UNL     1       5.520   6.895  17.008  0.00  0.00    +0.000 A 
ATOM     22  C   UNL     1       5.189   6.759  15.637  0.00  0.00    +0.000 A 
ATOM     23  C   UNL     1       5.488   5.461  15.300  0.00  0.00    +0.000 A 
ATOM     24  O   UNL     1       5.986   4.797  16.371  0.00  0.00    +0.000 OA
ENDBRANCH  19  20
ENDBRANCH  16  18
ENDBRANCH  13  14
ENDBRANCH   1  13
TORSDOF 7
ENDMDL
MODEL 2
REMARK VINA RESULT:      -7.1      3.348      5.089
REMARK  Name = 
REMARK  8 active torsions:
REMARK  status: ('A' for Active; 'I' for Inactive)
REMARK    1  A    between atoms: C_1  and  C_2
REMARK    2  A    between atoms: C_2  and  C_3
REMARK    3  A    between atoms: C_6  and  O_7
REMARK    4  A    between atoms: O_7  and  C_8
REMARK    5  A    between atoms: C_8  and  C_9
REMARK    6  A    between atoms: N_11  and  N_12
REMARK    7  A    between atoms: C_13  and  C_14
REMARK    8  A    between atoms: C_19  and  N_20
REMARK                            x       y       z     vdW  Elec       q    Type
REMARK                         _______ _______ _______ _____ _____    ______ ____
ROOT
ATOM      1  O   UNL     1       4.608   3.800  16.278  0.00  0.00    +0.000 OA
ENDROOT
BRANCH   1   5
ATOM      2  C   UNL     1       1.813   3.380  19.394  0.00  0.00    +0.000 A 
ATOM      3  C   UNL     1       2.028   2.432  18.392  0.00  0.00    +0.000 A 
ATOM      4  C   UNL     1       2.988   2.654  17.395  0.00  0.00    +0.000 A 
ATOM      5  C   UNL     1       3.777   3.817  17.358  0.00  0.00    +0.000 A 
ATOM      6  C   UNL     1       3.580   4.735  18.392  0.00  0.00    +0.000 A 
ATOM      7  C   UNL     1       2.610   4.528  19.400  0.00  0.00    +0.000 A 
BRANCH   6   8
ATOM      8  N   UNL     1       4.332   5.960  18.528  0.00  0.00    +0.000 N 
ATOM      9  O   UNL     1       5.384   5.911  19.186  0.00  0.00    +0.000 OA
ATOM     10  O   UNL     1       3.906   6.953  17.931  0.00  0.00    +0.000 OA
ENDBRANCH   6   8
BRANCH   2  12
ATOM     11  C   UNL     1       1.339   2.612  21.744  0.00  0.00    +0.000 C 
ATOM     12  C   UNL     1       0.760   3.160  20.449  0.00  0.00    +0.000 C 
ENDBRANCH   2  12
ENDBRANCH   1   5
BRANCH   1  13
ATOM     13  C   UNL     1       5.991   4.098  16.367  0.00  0.00    +0.000 C 
BRANCH  13  14
ATOM     14  C   UNL     1       6.348   5.149  15.314  0.00  0.00    +0.000 C 
ATOM     15  O   UNL     1       5.724   6.204  15.205  0.00  0.00    +0.000 OA
ATOM     16  N   UNL     1       7.375   4.730  14.479  0.00  0.00    +0.000 N 
ATOM     17  H   UNL     1       7.719   3.774  14.549  0.00  0.00    +0.000 HD
BRANCH  16  18
ATOM     18  N   UNL     1       7.736   5.465  13.385  0.00  0.00    +0.000 NA
ATOM     19  C   UNL     1       7.579   4.926  12.209  0.00  0.00    +0.000 C 
BRANCH  19  20
ATOM     20  C   UNL     1       6.957   3.662  11.883  0.00  0.00    +0.000 A 
ATOM     21  C   UNL     1       7.475   2.521  11.299  0.00  0.00    +0.000 A 
ATOM     22  C   UNL     1       6.397   1.615  11.142  0.00  0.00    +0.000 A 
ATOM     23  C   UNL     1       5.288   2.249  11.648  0.00  0.00    +0.000 A 
ATOM     24  O   UNL     1       5.617   3.479  12.112  0.00  0.00    +0.000 OA
ENDBRANCH  19  20
ENDBRANCH  16  18
ENDBRANCH  13  14
ENDBRANCH   1  13
TORSDOF 7
ENDMDL
MODEL 3
REMARK VINA RESULT:      -7.1      3.201      7.200
REMARK  Name = 
REMARK  8 active torsions:
REMARK  status: ('A' for Active; 'I' for Inactive)
REMARK    1  A    between atoms: C_1  and  C_2
REMARK    2  A    between atoms: C_2  and  C_3
REMARK    3  A    between atoms: C_6  and  O_7
REMARK    4  A    between atoms: O_7  and  C_8
REMARK    5  A    between atoms: C_8  and  C_9
REMARK    6  A    between atoms: N_11  and  N_12
REMARK    7  A    between atoms: C_13  and  C_14
REMARK    8  A    between atoms: C_19  and  N_20
REMARK                            x       y       z     vdW  Elec       q    Type
REMARK                         _______ _______ _______ _____ _____    ______ ____
ROOT
ATOM      1  O   UNL     1       7.479   5.563  15.624  0.00  0.00    +0.000 OA
ENDROOT
BRANCH   1   5
ATOM      2  C   UNL     1       5.737   3.401  12.464  0.00  0.00    +0.000 A 
ATOM      3  C   UNL     1       5.327   3.322  13.796  0.00  0.00    +0.000 A 
ATOM      4  C   UNL     1       5.963   4.087  14.784  0.00  0.00    +0.000 A 
ATOM      5  C   UNL     1       7.021   4.964  14.489  0.00  0.00    +0.000 A 
ATOM      6  C   UNL     1       7.390   5.064  13.146  0.00  0.00    +0.000 A 
ATOM      7  C   UNL     1       6.763   4.293  12.140  0.00  0.00    +0.000 A 
BRANCH   6   8
ATOM      8  N   UNL     1       8.427   5.946  12.665  0.00  0.00    +0.000 N 
ATOM      9  O   UNL     1       8.207   6.560  11.609  0.00  0.00    +0.000 OA
ATOM     10  O   UNL     1       9.433   6.070  13.369  0.00  0.00    +0.000 OA
ENDBRANCH   6   8
BRANCH   2  12
ATOM     11  C   UNL     1       3.745   3.132  10.947  0.00  0.00    +0.000 C 
ATOM     12  C   UNL     1       5.078   2.558  11.403  0.00  0.00    +0.000 C 
ENDBRANCH   2  12
ENDBRANCH   1   5
BRANCH   1  13
ATOM     13  C   UNL     1       6.651   6.344  16.470  0.00  0.00    +0.000 C 
BRANCH  13  14
ATOM     14  C   UNL     1       6.711   5.781  17.892  0.00  0.00    +0.000 C 
ATOM     15  O   UNL     1       7.518   6.193  18.724  0.00  0.00    +0.000 OA
ATOM     16  N   UNL     1       5.825   4.729  18.079  0.00  0.00    +0.000 N 
ATOM     17  H   UNL     1       5.313   4.358  17.281  0.00  0.00    +0.000 HD
BRANCH  16  18
ATOM     18  N   UNL     1       5.834   3.999  19.234  0.00  0.00    +0.000 NA
ATOM     19  C   UNL     1       4.696   3.542  19.675  0.00  0.00    +0.000 C 
BRANCH  19  20
ATOM     20  C   UNL     1       3.401   3.609  19.038  0.00  0.00    +0.000 A 
ATOM     21  C   UNL     1       2.445   2.634  18.824  0.00  0.00    +0.000 A 
ATOM     22  C   UNL     1       1.401   3.238  18.079  0.00  0.00    +0.000 A 
ATOM     23  C   UNL     1       1.773   4.547  17.893  0.00  0.00    +0.000 A 
ATOM     24  O   UNL     1       2.971   4.786  18.482  0.00  0.00    +0.000 OA
ENDBRANCH  19  20
ENDBRANCH  16  18
ENDBRANCH  13  14
ENDBRANCH   1  13
TORSDOF 7
ENDMDL
MODEL 4
REMARK VINA RESULT:      -7.1      1.921      5.110
REMARK  Name = 
REMARK  8 active torsions:
REMARK  status: ('A' for Active; 'I' for Inactive)
REMARK    1  A    between atoms: C_1  and  C_2
REMARK    2  A    between atoms: C_2  and  C_3
REMARK    3  A    between atoms: C_6  and  O_7
REMARK    4  A    between atoms: O_7  and  C_8
REMARK    5  A    between atoms: C_8  and  C_9
REMARK    6  A    between atoms: N_11  and  N_12
REMARK    7  A    between atoms: C_13  and  C_14
REMARK    8  A    between atoms: C_19  and  N_20
REMARK                            x       y       z     vdW  Elec       q    Type
REMARK                         _______ _______ _______ _____ _____    ______ ____
ROOT
ATOM      1  O   UNL     1       5.271   3.825  19.449  0.00  0.00    +0.000 OA
ENDROOT
BRANCH   1   5
ATOM      2  C   UNL     1       6.378   4.655  15.476  0.00  0.00    +0.000 A 
ATOM      3  C   UNL     1       5.285   3.868  15.844  0.00  0.00    +0.000 A 
ATOM      4  C   UNL     1       4.987   3.651  17.197  0.00  0.00    +0.000 A 
ATOM      5  C   UNL     1       5.752   4.212  18.234  0.00  0.00    +0.000 A 
ATOM      6  C   UNL     1       6.815   5.032  17.849  0.00  0.00    +0.000 A 
ATOM      7  C   UNL     1       7.133   5.253  16.489  0.00  0.00    +0.000 A 
BRANCH   6   8
ATOM      8  N   UNL     1       7.675   5.718  18.784  0.00  0.00    +0.000 N 
ATOM      9  O   UNL     1       7.989   6.888  18.514  0.00  0.00    +0.000 OA
ATOM     10  O   UNL     1       7.988   5.110  19.812  0.00  0.00    +0.000 OA
ENDBRANCH   6   8
BRANCH   2  12
ATOM     11  C   UNL     1       6.246   3.722  13.142  0.00  0.00    +0.000 C 
ATOM     12  C   UNL     1       6.721   4.865  14.024  0.00  0.00    +0.000 C 
ENDBRANCH   2  12
ENDBRANCH   1   5
BRANCH   1  13
ATOM     13  C   UNL     1       4.760   2.526  19.696  0.00  0.00    +0.000 C 
BRANCH  13  14
ATOM     14  C   UNL     1       3.251   2.616  19.937  0.00  0.00    +0.000 C 
ATOM     15  O   UNL     1       2.442   1.981  19.262  0.00  0.00    +0.000 OA
ATOM     16  N   UNL     1       2.930   3.538  20.924  0.00  0.00    +0.000 N 
ATOM     17  H   UNL     1       3.662   4.130  21.313  0.00  0.00    +0.000 HD
BRANCH  16  18
ATOM     18  N   UNL     1       1.630   3.869  21.180  0.00  0.00    +0.000 NA
ATOM     19  C   UNL     1       1.172   4.978  20.671  0.00  0.00    +0.000 C 
BRANCH  19  20
ATOM     20  C   UNL     1       1.833   5.881  19.756  0.00  0.00    +0.000 A 
ATOM     21  C   UNL     1       2.129   7.227  19.865  0.00  0.00    +0.000 A 
ATOM     22  C   UNL     1       2.713   7.620  18.636  0.00  0.00    +0.000 A 
ATOM     23  C   UNL     1       2.752   6.492  17.853  0.00  0.00    +0.000 A 
ATOM     24  O   UNL     1       2.238   5.433  18.525  0.00  0.00    +0.000 OA
ENDBRANCH  19  20
ENDBRANCH  16  18
ENDBRANCH  13  14
ENDBRANCH   1  13
TORSDOF 7
ENDMDL
MODEL 5
REMARK VINA RESULT:      -7.0      3.406      5.082
REMARK  Name = 
REMARK  8 active torsions:
REMARK  status: ('A' for Active; 'I' for Inactive)
REMARK    1  A    between atoms: C_1  and  C_2
REMARK    2  A    between atoms: C_2  and  C_3
REMARK    3  A    between atoms: C_6  and  O_7
REMARK    4  A    between atoms: O_7  and  C_8
REMARK    5  A    between atoms: C_8  and  C_9
REMARK    6  A    between atoms: N_11  and  N_12
REMARK    7  A    between atoms: C_13  and  C_14
REMARK    8  A    between atoms: C_19  and  N_20
REMARK                            x       y       z     vdW  Elec       q    Type
REMARK                         _______ _______ _______ _____ _____    ______ ____
ROOT
ATOM      1  O   UNL     1       5.347   5.227  17.576  0.00  0.00    +0.000 OA
ENDROOT
BRANCH   1   5
ATOM      2  C   UNL     1       2.110   3.685  19.777  0.00  0.00    +0.000 A 
ATOM      3  C   UNL     1       3.226   2.943  19.389  0.00  0.00    +0.000 A 
ATOM      4  C   UNL     1       4.263   3.544  18.661  0.00  0.00    +0.000 A 
ATOM      5  C   UNL     1       4.238   4.902  18.300  0.00  0.00    +0.000 A 
ATOM      6  C   UNL     1       3.135   5.640  18.733  0.00  0.00    +0.000 A 
ATOM      7  C   UNL     1       2.078   5.047  19.460  0.00  0.00    +0.000 A 
BRANCH   6   8
ATOM      8  N   UNL     1       2.971   7.053  18.484  0.00  0.00    +0.000 N 
ATOM      9  O   UNL     1       3.438   7.502  17.425  0.00  0.00    +0.000 OA
ATOM     10  O   UNL     1       2.327   7.701  19.315  0.00  0.00    +0.000 OA
ENDBRANCH   6   8
BRANCH   2  12
ATOM     11  C   UNL     1       1.413   2.499  21.885  0.00  0.00    +0.000 C 
ATOM     12  C   UNL     1       0.978   3.037  20.531  0.00  0.00    +0.000 C 
ENDBRANCH   2  12
ENDBRANCH   1   5
BRANCH   1  13
ATOM     13  C   UNL     1       5.781   4.474  16.456  0.00  0.00    +0.000 C 
BRANCH  13  14
ATOM     14  C   UNL     1       6.277   5.431  15.369  0.00  0.00    +0.000 C 
ATOM     15  O   UNL     1       5.693   6.482  15.107  0.00  0.00    +0.000 OA
ATOM     16  N   UNL     1       7.380   4.931  14.690  0.00  0.00    +0.000 N 
ATOM     17  H   UNL     1       7.692   3.979  14.876  0.00  0.00    +0.000 HD
BRANCH  16  18
ATOM     18  N   UNL     1       7.877   5.568  13.589  0.00  0.00    +0.000 NA
ATOM     19  C   UNL     1       7.663   5.027  12.423  0.00  0.00    +0.000 C 
BRANCH  19  20
ATOM     20  C   UNL     1       6.858   3.868  12.111  0.00  0.00    +0.000 A 
ATOM     21  C   UNL     1       7.194   2.661  11.527  0.00  0.00    +0.000 A 
ATOM     22  C   UNL     1       5.993   1.923  11.388  0.00  0.00    +0.000 A 
ATOM     23  C   UNL     1       4.996   2.714  11.905  0.00  0.00    +0.000 A 
ATOM     24  O   UNL     1       5.509   3.884  12.359  0.00  0.00    +0.000 OA
ENDBRANCH  19  20
ENDBRANCH  16  18
ENDBRANCH  13  14
ENDBRANCH   1  13
TORSDOF 7
ENDMDL
MODEL 6
REMARK VINA RESULT:      -7.0      2.181      5.747
REMARK  Name = 
REMARK  8 active torsions:
REMARK  status: ('A' for Active; 'I' for Inactive)
REMARK    1  A    between atoms: C_1  and  C_2
REMARK    2  A    between atoms: C_2  and  C_3
REMARK    3  A    between atoms: C_6  and  O_7
REMARK    4  A    between atoms: O_7  and  C_8
REMARK    5  A    between atoms: C_8  and  C_9
REMARK    6  A    between atoms: N_11  and  N_12
REMARK    7  A    between atoms: C_13  and  C_14
REMARK    8  A    between atoms: C_19  and  N_20
REMARK                            x       y       z     vdW  Elec       q    Type
REMARK                         _______ _______ _______ _____ _____    ______ ____
ROOT
ATOM      1  O   UNL     1       4.696   7.106  17.924  0.00  0.00    +0.000 OA
ENDROOT
BRANCH   1   5
ATOM      2  C   UNL     1       6.196   4.679  14.832  0.00  0.00    +0.000 A 
ATOM      3  C   UNL     1       5.362   5.782  14.638  0.00  0.00    +0.000 A 
ATOM      4  C   UNL     1       4.916   6.539  15.730  0.00  0.00    +0.000 A 
ATOM      5  C   UNL     1       5.284   6.239  17.053  0.00  0.00    +0.000 A 
ATOM      6  C   UNL     1       6.153   5.159  17.226  0.00  0.00    +0.000 A 
ATOM      7  C   UNL     1       6.605   4.382  16.135  0.00  0.00    +0.000 A 
BRANCH   6   8
ATOM      8  N   UNL     1       6.661   4.741  18.511  0.00  0.00    +0.000 N 
ATOM      9  O   UNL     1       7.858   4.969  18.751  0.00  0.00    +0.000 OA
ATOM     10  O   UNL     1       5.855   4.239  19.300  0.00  0.00    +0.000 OA
ENDBRANCH   6   8
BRANCH   2  12
ATOM     11  C   UNL     1       5.529   3.550  12.684  0.00  0.00    +0.000 C 
ATOM     12  C   UNL     1       6.652   3.843  13.665  0.00  0.00    +0.000 C 
ENDBRANCH   2  12
ENDBRANCH   1   5
BRANCH   1  13
ATOM     13  C   UNL     1       3.445   7.723  17.667  0.00  0.00    +0.000 C 
BRANCH  13  14
ATOM     14  C   UNL     1       2.488   7.420  18.823  0.00  0.00    +0.000 C 
ATOM     15  O   UNL     1       1.820   8.299  19.366  0.00  0.00    +0.000 OA
ATOM     16  N   UNL     1       2.538   6.089  19.212  0.00  0.00    +0.000 N 
ATOM     17  H   UNL     1       3.241   5.474  18.804  0.00  0.00    +0.000 HD
BRANCH  16  18
ATOM     18  N   UNL     1       1.869   5.655  20.321  0.00  0.00    +0.000 NA
ATOM     19  C   UNL     1       1.675   4.372  20.453  0.00  0.00    +0.000 C 
BRANCH  19  20
ATOM     20  C   UNL     1       2.178   3.304  19.620  0.00  0.00    +0.000 A 
ATOM     21  C   UNL     1       3.068   2.282  19.895  0.00  0.00    +0.000 A 
ATOM     22  C   UNL     1       3.263   1.570  18.686  0.00  0.00    +0.000 A 
ATOM     23  C   UNL     1       2.474   2.189  17.747  0.00  0.00    +0.000 A 
ATOM     24  O   UNL     1       1.803   3.226  18.303  0.00  0.00    +0.000 OA
ENDBRANCH  19  20
ENDBRANCH  16  18
ENDBRANCH  13  14
ENDBRANCH   1  13
TORSDOF 7
ENDMDL
MODEL 7
REMARK VINA RESULT:      -7.0      2.320      6.042
REMARK  Name = 
REMARK  8 active torsions:
REMARK  status: ('A' for Active; 'I' for Inactive)
REMARK    1  A    between atoms: C_1  and  C_2
REMARK    2  A    between atoms: C_2  and  C_3
REMARK    3  A    between atoms: C_6  and  O_7
REMARK    4  A    between atoms: O_7  and  C_8
REMARK    5  A    between atoms: C_8  and  C_9
REMARK    6  A    between atoms: N_11  and  N_12
REMARK    7  A    between atoms: C_13  and  C_14
REMARK    8  A    between atoms: C_19  and  N_20
REMARK                            x       y       z     vdW  Elec       q    Type
REMARK                         _______ _______ _______ _____ _____    ______ ____
ROOT
ATOM      1  O   UNL     1       5.090   6.934  17.551  0.00  0.00    +0.000 OA
ENDROOT
BRANCH   1   5
ATOM      2  C   UNL     1       6.134   4.377  14.378  0.00  0.00    +0.000 A 
ATOM      3  C   UNL     1       5.433   5.576  14.230  0.00  0.00    +0.000 A 
ATOM      4  C   UNL     1       5.135   6.369  15.346  0.00  0.00    +0.000 A 
ATOM      5  C   UNL     1       5.527   6.012  16.648  0.00  0.00    +0.000 A 
ATOM      6  C   UNL     1       6.264   4.832  16.774  0.00  0.00    +0.000 A 
ATOM      7  C   UNL     1       6.565   4.017  15.658  0.00  0.00    +0.000 A 
BRANCH   6   8
ATOM      8  N   UNL     1       6.778   4.341  18.030  0.00  0.00    +0.000 N 
ATOM      9  O   UNL     1       8.001   4.439  18.222  0.00  0.00    +0.000 OA
ATOM     10  O   UNL     1       5.957   3.913  18.847  0.00  0.00    +0.000 OA
ENDBRANCH   6   8
BRANCH   2  12
ATOM     11  C   UNL     1       5.267   3.442  12.208  0.00  0.00    +0.000 C 
ATOM     12  C   UNL     1       6.429   3.504  13.186  0.00  0.00    +0.000 C 
ENDBRANCH   2  12
ENDBRANCH   1   5
BRANCH   1  13
ATOM     13  C   UNL     1       4.215   6.611  18.619  0.00  0.00    +0.000 C 
BRANCH  13  14
ATOM     14  C   UNL     1       2.885   6.116  18.047  0.00  0.00    +0.000 C 
ATOM     15  O   UNL     1       1.923   6.867  17.885  0.00  0.00    +0.000 OA
ATOM     16  N   UNL     1       2.884   4.746  17.826  0.00  0.00    +0.000 N 
ATOM     17  H   UNL     1       3.675   4.188  18.142  0.00  0.00    +0.000 HD
BRANCH  16  18
ATOM     18  N   UNL     1       1.741   4.094  17.458  0.00  0.00    +0.000 NA
ATOM     19  C   UNL     1       1.226   3.244  18.302  0.00  0.00    +0.000 C 
BRANCH  19  20
ATOM     20  C   UNL     1       1.646   2.965  19.656  0.00  0.00    +0.000 A 
ATOM     21  C   UNL     1       0.975   3.096  20.858  0.00  0.00    +0.000 A 
ATOM     22  C   UNL     1       1.895   2.756  21.881  0.00  0.00    +0.000 A 
ATOM     23  C   UNL     1       3.068   2.426  21.246  0.00  0.00    +0.000 A 
ATOM     24  O   UNL     1       2.924   2.534  19.902  0.00  0.00    +0.000 OA
ENDBRANCH  19  20
ENDBRANCH  16  18
ENDBRANCH  13  14
ENDBRANCH   1  13
TORSDOF 7
ENDMDL
MODEL 8
REMARK VINA RESULT:      -7.0      3.049      4.410
REMARK  Name = 
REMARK  8 active torsions:
REMARK  status: ('A' for Active; 'I' for Inactive)
REMARK    1  A    between atoms: C_1  and  C_2
REMARK    2  A    between atoms: C_2  and  C_3
REMARK    3  A    between atoms: C_6  and  O_7
REMARK    4  A    between atoms: O_7  and  C_8
REMARK    5  A    between atoms: C_8  and  C_9
REMARK    6  A    between atoms: N_11  and  N_12
REMARK    7  A    between atoms: C_13  and  C_14
REMARK    8  A    between atoms: C_19  and  N_20
REMARK                            x       y       z     vdW  Elec       q    Type
REMARK                         _______ _______ _______ _____ _____    ______ ____
ROOT
ATOM      1  O   UNL     1       5.145   4.363  16.679  0.00  0.00    +0.000 OA
ENDROOT
BRANCH   1   5
ATOM      2  C   UNL     1       2.577   7.328  18.200  0.00  0.00    +0.000 A 
ATOM      3  C   UNL     1       3.723   7.586  17.447  0.00  0.00    +0.000 A 
ATOM      4  C   UNL     1       4.518   6.532  16.974  0.00  0.00    +0.000 A 
ATOM      5  C   UNL     1       4.202   5.184  17.221  0.00  0.00    +0.000 A 
ATOM      6  C   UNL     1       3.029   4.942  17.939  0.00  0.00    +0.000 A 
ATOM      7  C   UNL     1       2.222   5.995  18.429  0.00  0.00    +0.000 A 
BRANCH   6   8
ATOM      8  N   UNL     1       2.537   3.620  18.244  0.00  0.00    +0.000 N 
ATOM      9  O   UNL     1       2.693   3.209  19.405  0.00  0.00    +0.000 OA
ATOM     10  O   UNL     1       1.945   3.016  17.344  0.00  0.00    +0.000 OA
ENDBRANCH   6   8
BRANCH   2  12
ATOM     11  C   UNL     1       1.815   9.704  17.870  0.00  0.00    +0.000 C 
ATOM     12  C   UNL     1       1.737   8.457  18.738  0.00  0.00    +0.000 C 
ENDBRANCH   2  12
ENDBRANCH   1   5
BRANCH   1  13
ATOM     13  C   UNL     1       6.511   4.409  17.054  0.00  0.00    +0.000 C 
BRANCH  13  14
ATOM     14  C   UNL     1       7.273   5.301  16.072  0.00  0.00    +0.000 C 
ATOM     15  O   UNL     1       7.714   6.404  16.396  0.00  0.00    +0.000 OA
ATOM     16  N   UNL     1       7.323   4.757  14.796  0.00  0.00    +0.000 N 
ATOM     17  H   UNL     1       6.790   3.913  14.590  0.00  0.00    +0.000 HD
BRANCH  16  18
ATOM     18  N   UNL     1       7.829   5.469  13.746  0.00  0.00    +0.000 NA
ATOM     19  C   UNL     1       7.640   5.002  12.544  0.00  0.00    +0.000 C 
BRANCH  19  20
ATOM     20  C   UNL     1       6.852   3.858  12.145  0.00  0.00    +0.000 A 
ATOM     21  C   UNL     1       7.222   2.666  11.551  0.00  0.00    +0.000 A 
ATOM     22  C   UNL     1       6.030   1.939  11.310  0.00  0.00    +0.000 A 
ATOM     23  C   UNL     1       5.004   2.722  11.781  0.00  0.00    +0.000 A 
ATOM     24  O   UNL     1       5.490   3.875  12.302  0.00  0.00    +0.000 OA
ENDBRANCH  19  20
ENDBRANCH  16  18
ENDBRANCH  13  14
ENDBRANCH   1  13
TORSDOF 7
ENDMDL
MODEL 9
REMARK VINA RESULT:      -6.9      1.785      2.525
REMARK  Name = 
REMARK  8 active torsions:
REMARK  status: ('A' for Active; 'I' for Inactive)
REMARK    1  A    between atoms: C_1  and  C_2
REMARK    2  A    between atoms: C_2  and  C_3
REMARK    3  A    between atoms: C_6  and  O_7
REMARK    4  A    between atoms: O_7  and  C_8
REMARK    5  A    between atoms: C_8  and  C_9
REMARK    6  A    between atoms: N_11  and  N_12
REMARK    7  A    between atoms: C_13  and  C_14
REMARK    8  A    between atoms: C_19  and  N_20
REMARK                            x       y       z     vdW  Elec       q    Type
REMARK                         _______ _______ _______ _____ _____    ______ ____
ROOT
ATOM      1  O   UNL     1       4.272   3.462  19.586  0.00  0.00    +0.000 OA
ENDROOT
BRANCH   1   5
ATOM      2  C   UNL     1       2.085   7.013  20.143  0.00  0.00    +0.000 A 
ATOM      3  C   UNL     1       3.237   6.908  19.361  0.00  0.00    +0.000 A 
ATOM      4  C   UNL     1       3.898   5.679  19.227  0.00  0.00    +0.000 A 
ATOM      5  C   UNL     1       3.439   4.507  19.852  0.00  0.00    +0.000 A 
ATOM      6  C   UNL     1       2.261   4.619  20.595  0.00  0.00    +0.000 A 
ATOM      7  C   UNL     1       1.588   5.854  20.746  0.00  0.00    +0.000 A 
BRANCH   6   8
ATOM      8  N   UNL     1       1.631   3.508  21.267  0.00  0.00    +0.000 N 
ATOM      9  O   UNL     1       2.133   3.132  22.339  0.00  0.00    +0.000 OA
ATOM     10  O   UNL     1       0.604   3.050  20.758  0.00  0.00    +0.000 OA
ENDBRANCH   6   8
BRANCH   2  12
ATOM     11  C   UNL     1       1.074   8.644  21.772  0.00  0.00    +0.000 C 
ATOM     12  C   UNL     1       1.389   8.338  20.316  0.00  0.00    +0.000 C 
ENDBRANCH   2  12
ENDBRANCH   1   5
BRANCH   1  13
ATOM     13  C   UNL     1       4.027   2.529  18.548  0.00  0.00    +0.000 C 
BRANCH  13  14
ATOM     14  C   UNL     1       4.190   3.226  17.195  0.00  0.00    +0.000 C 
ATOM     15  O   UNL     1       3.226   3.516  16.489  0.00  0.00    +0.000 OA
ATOM     16  N   UNL     1       5.523   3.400  16.851  0.00  0.00    +0.000 N 
ATOM     17  H   UNL     1       6.249   2.981  17.430  0.00  0.00    +0.000 HD
BRANCH  16  18
ATOM     18  N   UNL     1       5.876   3.868  15.617  0.00  0.00    +0.000 NA
ATOM     19  C   UNL     1       6.552   4.981  15.557  0.00  0.00    +0.000 C 
BRANCH  19  20
ATOM     20  C   UNL     1       7.090   5.758  16.651  0.00  0.00    +0.000 A 
ATOM     21  C   UNL     1       7.548   5.373  17.897  0.00  0.00    +0.000 A 
ATOM     22  C   UNL     1       7.885   6.558  18.595  0.00  0.00    +0.000 A 
ATOM     23  C   UNL     1       7.626   7.597  17.734  0.00  0.00    +0.000 A 
ATOM     24  O   UNL     1       7.161   7.124  16.551  0.00  0.00    +0.000 OA
ENDBRANCH  19  20
ENDBRANCH  16  18
ENDBRANCH  13  14
ENDBRANCH   1  13
TORSDOF 7
ENDMDL
