MODEL 1
REMARK VINA RESULT:      -7.7      0.000      0.000
REMARK  Name = 
REMARK  8 active torsions:
REMARK  status: ('A' for Active; 'I' for Inactive)
REMARK    1  A    between atoms: C_1  and  O_2
REMARK    2  A    between atoms: O_2  and  C_3
REMARK    3  A    between atoms: C_8  and  N_9
REMARK    4  A    between atoms: C_10  and  C_12
REMARK    5  A    between atoms: C_12  and  N_13
REMARK    6  A    between atoms: C_17  and  C_18
REMARK    7  A    between atoms: C_18  and  O_19
REMARK    8  A    between atoms: C_18  and  C_20
REMARK                            x       y       z     vdW  Elec       q    Type
REMARK                         _______ _______ _______ _____ _____    ______ ____
ROOT
ATOM      1  N   UNL     1       6.219   6.065  17.182  0.00  0.00    +0.000 N 
ATOM      2  C   UNL     1       7.197   6.436  18.070  0.00  0.00    +0.000 A 
ATOM      3  C   UNL     1       8.034   5.354  18.158  0.00  0.00    +0.000 A 
ATOM      4  N   UNL     1       7.631   4.369  17.303  0.00  0.00    +0.000 NA
ATOM      5  C   UNL     1       6.545   4.817  16.693  0.00  0.00    +0.000 A 
ENDROOT
BRANCH   1   6
ATOM      6  C   UNL     1       5.070   6.877  16.837  0.00  0.00    +0.000 C 
BRANCH   6   8
ATOM      7  N   UNL     1       3.886   5.275  18.261  0.00  0.00    +0.000 N 
ATOM      8  C   UNL     1       3.865   6.541  17.698  0.00  0.00    +0.000 C 
ATOM      9  O   UNL     1       2.978   7.379  17.844  0.00  0.00    +0.000 OA
ATOM     10  H   UNL     1       4.776   4.770  18.257  0.00  0.00    +0.000 HD
BRANCH   7  16
ATOM     11  C   UNL     1       2.498   3.326  18.764  0.00  0.00    +0.000 A 
ATOM     12  C   UNL     1       1.451   2.733  19.490  0.00  0.00    +0.000 A 
ATOM     13  C   UNL     1       0.783   3.447  20.484  0.00  0.00    +0.000 A 
ATOM     14  C   UNL     1       1.137   4.763  20.745  0.00  0.00    +0.000 A 
ATOM     15  C   UNL     1       2.152   5.372  20.007  0.00  0.00    +0.000 A 
ATOM     16  C   UNL     1       2.850   4.670  19.017  0.00  0.00    +0.000 A 
BRANCH  11  18
ATOM     17  C   UNL     1       3.739   1.388  18.207  0.00  0.00    +0.000 C 
ATOM     18  O   UNL     1       3.214   2.652  17.798  0.00  0.00    +0.000 OA
ENDBRANCH  11  18
ENDBRANCH   7  16
ENDBRANCH   6   8
ENDBRANCH   1   6
BRANCH   5  19
ATOM     19  C   UNL     1       5.789   4.112  15.596  0.00  0.00    +0.000 C 
BRANCH  19  20
ATOM     20  C   UNL     1       6.391   4.289  14.213  0.00  0.00    +0.000 A 
ATOM     21  C   UNL     1       7.374   5.264  13.983  0.00  0.00    +0.000 A 
ATOM     22  C   UNL     1       7.945   5.408  12.718  0.00  0.00    +0.000 A 
ATOM     23  C   UNL     1       7.547   4.581  11.671  0.00  0.00    +0.000 A 
ATOM     24  C   UNL     1       6.576   3.606  11.884  0.00  0.00    +0.000 A 
ATOM     25  C   UNL     1       6.003   3.458  13.146  0.00  0.00    +0.000 A 
ENDBRANCH  19  20
BRANCH  19  26
ATOM     26  O   UNL     1       5.721   2.721  15.942  0.00  0.00    +0.000 OA
ATOM     27  H   UNL     1       4.782   2.512  16.091  0.00  0.00    +0.000 HD
ENDBRANCH  19  26
ENDBRANCH   5  19
TORSDOF 7
ENDMDL
MODEL 2
REMARK VINA RESULT:      -7.6      2.163      7.101
REMARK  Name = 
REMARK  8 active torsions:
REMARK  status: ('A' for Active; 'I' for Inactive)
REMARK    1  A    between atoms: C_1  and  O_2
REMARK    2  A    between atoms: O_2  and  C_3
REMARK    3  A    between atoms: C_8  and  N_9
REMARK    4  A    between atoms: C_10  and  C_12
REMARK    5  A    between atoms: C_12  and  N_13
REMARK    6  A    between atoms: C_17  and  C_18
REMARK    7  A    between atoms: C_18  and  O_19
REMARK    8  A    between atoms: C_18  and  C_20
REMARK                            x       y       z     vdW  Elec       q    Type
REMARK                         _______ _______ _______ _____ _____    ______ ____
ROOT
ATOM      1  N   UNL     1       2.721   3.093  18.800  0.00  0.00    +0.000 N 
ATOM      2  C   UNL     1       1.755   2.237  18.334  0.00  0.00    +0.000 A 
ATOM      3  C   UNL     1       0.601   2.610  18.973  0.00  0.00    +0.000 A 
ATOM      4  N   UNL     1       0.825   3.705  19.758  0.00  0.00    +0.000 NA
ATOM      5  C   UNL     1       2.106   4.010  19.628  0.00  0.00    +0.000 A 
ENDROOT
BRANCH   1   6
ATOM      6  C   UNL     1       4.124   3.020  18.449  0.00  0.00    +0.000 C 
BRANCH   6   8
ATOM      7  N   UNL     1       5.638   3.329  16.549  0.00  0.00    +0.000 N 
ATOM      8  C   UNL     1       4.393   3.623  17.082  0.00  0.00    +0.000 C 
ATOM      9  O   UNL     1       3.524   4.307  16.544  0.00  0.00    +0.000 OA
ATOM     10  H   UNL     1       6.169   2.568  16.979  0.00  0.00    +0.000 HD
BRANCH   7  16
ATOM     11  C   UNL     1       7.185   4.837  15.403  0.00  0.00    +0.000 A 
ATOM     12  C   UNL     1       7.704   5.370  14.212  0.00  0.00    +0.000 A 
ATOM     13  C   UNL     1       7.271   4.898  12.973  0.00  0.00    +0.000 A 
ATOM     14  C   UNL     1       6.299   3.910  12.914  0.00  0.00    +0.000 A 
ATOM     15  C   UNL     1       5.750   3.398  14.090  0.00  0.00    +0.000 A 
ATOM     16  C   UNL     1       6.183   3.842  15.344  0.00  0.00    +0.000 A 
BRANCH  11  18
ATOM     17  C   UNL     1       7.134   6.528  17.060  0.00  0.00    +0.000 C 
ATOM     18  O   UNL     1       7.606   5.242  16.651  0.00  0.00    +0.000 OA
ENDBRANCH  11  18
ENDBRANCH   7  16
ENDBRANCH   6   8
ENDBRANCH   1   6
BRANCH   5  19
ATOM     19  C   UNL     1       2.802   5.199  20.241  0.00  0.00    +0.000 C 
BRANCH  19  20
ATOM     20  C   UNL     1       2.335   6.539  19.702  0.00  0.00    +0.000 A 
ATOM     21  C   UNL     1       1.704   7.466  20.546  0.00  0.00    +0.000 A 
ATOM     22  C   UNL     1       1.298   8.708  20.055  0.00  0.00    +0.000 A 
ATOM     23  C   UNL     1       1.520   9.041  18.722  0.00  0.00    +0.000 A 
ATOM     24  C   UNL     1       2.149   8.135  17.872  0.00  0.00    +0.000 A 
ATOM     25  C   UNL     1       2.556   6.893  18.357  0.00  0.00    +0.000 A 
ENDBRANCH  19  20
BRANCH  19  26
ATOM     26  O   UNL     1       2.605   5.130  21.661  0.00  0.00    +0.000 OA
ATOM     27  H   UNL     1       1.737   5.531  21.846  0.00  0.00    +0.000 HD
ENDBRANCH  19  26
ENDBRANCH   5  19
TORSDOF 7
ENDMDL
MODEL 3
REMARK VINA RESULT:      -7.5      3.172      5.685
REMARK  Name = 
REMARK  8 active torsions:
REMARK  status: ('A' for Active; 'I' for Inactive)
REMARK    1  A    between atoms: C_1  and  O_2
REMARK    2  A    between atoms: O_2  and  C_3
REMARK    3  A    between atoms: C_8  and  N_9
REMARK    4  A    between atoms: C_10  and  C_12
REMARK    5  A    between atoms: C_12  and  N_13
REMARK    6  A    between atoms: C_17  and  C_18
REMARK    7  A    between atoms: C_18  and  O_19
REMARK    8  A    between atoms: C_18  and  C_20
REMARK                            x       y       z     vdW  Elec       q    Type
REMARK                         _______ _______ _______ _____ _____    ______ ____
ROOT
ATOM      1  N   UNL     1       2.288   3.832  19.557  0.00  0.00    +0.000 N 
ATOM      2  C   UNL     1       0.970   3.458  19.623  0.00  0.00    +0.000 A 
ATOM      3  C   UNL     1       0.863   2.362  18.808  0.00  0.00    +0.000 A 
ATOM      4  N   UNL     1       2.087   2.022  18.306  0.00  0.00    +0.000 NA
ATOM      5  C   UNL     1       2.952   2.900  18.786  0.00  0.00    +0.000 A 
ENDROOT
BRANCH   1   6
ATOM      6  C   UNL     1       2.847   4.999  20.209  0.00  0.00    +0.000 C 
BRANCH   6   8
ATOM      7  N   UNL     1       2.073   7.314  20.415  0.00  0.00    +0.000 N 
ATOM      8  C   UNL     1       2.394   6.286  19.542  0.00  0.00    +0.000 C 
ATOM      9  O   UNL     1       2.344   6.342  18.315  0.00  0.00    +0.000 OA
ATOM     10  H   UNL     1       2.379   7.222  21.387  0.00  0.00    +0.000 HD
BRANCH   7  16
ATOM     11  C   UNL     1       0.933   9.375  21.070  0.00  0.00    +0.000 A 
ATOM     12  C   UNL     1       0.365  10.613  20.724  0.00  0.00    +0.000 A 
ATOM     13  C   UNL     1       0.423  11.079  19.412  0.00  0.00    +0.000 A 
ATOM     14  C   UNL     1       1.023  10.304  18.430  0.00  0.00    +0.000 A 
ATOM     15  C   UNL     1       1.559   9.057  18.755  0.00  0.00    +0.000 A 
ATOM     16  C   UNL     1       1.530   8.577  20.069  0.00  0.00    +0.000 A 
BRANCH  11  18
ATOM     17  C   UNL     1      -0.014   9.493  23.237  0.00  0.00    +0.000 C 
ATOM     18  O   UNL     1       0.936   8.886  22.359  0.00  0.00    +0.000 OA
ENDBRANCH  11  18
ENDBRANCH   7  16
ENDBRANCH   6   8
ENDBRANCH   1   6
BRANCH   5  19
ATOM     19  C   UNL     1       4.445   2.882  18.576  0.00  0.00    +0.000 C 
BRANCH  19  20
ATOM     20  C   UNL     1       4.994   4.130  17.910  0.00  0.00    +0.000 A 
ATOM     21  C   UNL     1       5.920   4.946  18.579  0.00  0.00    +0.000 A 
ATOM     22  C   UNL     1       6.444   6.079  17.956  0.00  0.00    +0.000 A 
ATOM     23  C   UNL     1       6.056   6.410  16.661  0.00  0.00    +0.000 A 
ATOM     24  C   UNL     1       5.143   5.608  15.981  0.00  0.00    +0.000 A 
ATOM     25  C   UNL     1       4.616   4.475  16.599  0.00  0.00    +0.000 A 
ENDBRANCH  19  20
BRANCH  19  26
ATOM     26  O   UNL     1       5.059   2.681  19.858  0.00  0.00    +0.000 OA
ATOM     27  H   UNL     1       5.395   3.548  20.149  0.00  0.00    +0.000 HD
ENDBRANCH  19  26
ENDBRANCH   5  19
TORSDOF 7
ENDMDL
MODEL 4
REMARK VINA RESULT:      -7.4      0.706      1.211
REMARK  Name = 
REMARK  8 active torsions:
REMARK  status: ('A' for Active; 'I' for Inactive)
REMARK    1  A    between atoms: C_1  and  O_2
REMARK    2  A    between atoms: O_2  and  C_3
REMARK    3  A    between atoms: C_8  and  N_9
REMARK    4  A    between atoms: C_10  and  C_12
REMARK    5  A    between atoms: C_12  and  N_13
REMARK    6  A    between atoms: C_17  and  C_18
REMARK    7  A    between atoms: C_18  and  O_19
REMARK    8  A    between atoms: C_18  and  C_20
REMARK                            x       y       z     vdW  Elec       q    Type
REMARK                         _______ _______ _______ _____ _____    ______ ____
ROOT
ATOM      1  N   UNL     1       5.639   6.777  16.932  0.00  0.00    +0.000 N 
ATOM      2  C   UNL     1       6.567   7.580  17.544  0.00  0.00    +0.000 A 
ATOM      3  C   UNL     1       7.724   6.847  17.564  0.00  0.00    +0.000 A 
ATOM      4  N   UNL     1       7.543   5.654  16.924  0.00  0.00    +0.000 NA
ATOM      5  C   UNL     1       6.283   5.629  16.517  0.00  0.00    +0.000 A 
ENDROOT
BRANCH   1   6
ATOM      6  C   UNL     1       4.242   7.118  16.758  0.00  0.00    +0.000 C 
BRANCH   6   8
ATOM      7  N   UNL     1       3.400   5.221  18.058  0.00  0.00    +0.000 N 
ATOM      8  C   UNL     1       3.390   6.598  17.902  0.00  0.00    +0.000 C 
ATOM      9  O   UNL     1       2.769   7.397  18.601  0.00  0.00    +0.000 OA
ATOM     10  H   UNL     1       4.131   4.695  17.572  0.00  0.00    +0.000 HD
BRANCH   7  16
ATOM     11  C   UNL     1       2.708   3.059  18.967  0.00  0.00    +0.000 A 
ATOM     12  C   UNL     1       1.913   2.310  19.851  0.00  0.00    +0.000 A 
ATOM     13  C   UNL     1       1.071   2.946  20.762  0.00  0.00    +0.000 A 
ATOM     14  C   UNL     1       0.995   4.331  20.780  0.00  0.00    +0.000 A 
ATOM     15  C   UNL     1       1.753   5.084  19.883  0.00  0.00    +0.000 A 
ATOM     16  C   UNL     1       2.620   4.469  18.973  0.00  0.00    +0.000 A 
BRANCH  11  18
ATOM     17  C   UNL     1       3.892   1.110  18.333  0.00  0.00    +0.000 C 
ATOM     18  O   UNL     1       3.584   2.481  18.074  0.00  0.00    +0.000 OA
ENDBRANCH  11  18
ENDBRANCH   7  16
ENDBRANCH   6   8
ENDBRANCH   1   6
BRANCH   5  19
ATOM     19  C   UNL     1       5.640   4.547  15.689  0.00  0.00    +0.000 C 
BRANCH  19  20
ATOM     20  C   UNL     1       6.217   4.408  14.291  0.00  0.00    +0.000 A 
ATOM     21  C   UNL     1       5.645   3.518  13.369  0.00  0.00    +0.000 A 
ATOM     22  C   UNL     1       6.160   3.409  12.077  0.00  0.00    +0.000 A 
ATOM     23  C   UNL     1       7.247   4.188  11.688  0.00  0.00    +0.000 A 
ATOM     24  C   UNL     1       7.823   5.080  12.589  0.00  0.00    +0.000 A 
ATOM     25  C   UNL     1       7.312   5.192  13.882  0.00  0.00    +0.000 A 
ENDBRANCH  19  20
BRANCH  19  26
ATOM     26  O   UNL     1       5.767   3.315  16.413  0.00  0.00    +0.000 OA
ATOM     27  H   UNL     1       5.719   3.537  17.360  0.00  0.00    +0.000 HD
ENDBRANCH  19  26
ENDBRANCH   5  19
TORSDOF 7
ENDMDL
MODEL 5
REMARK VINA RESULT:      -7.4      1.055      1.444
REMARK  Name = 
REMARK  8 active torsions:
REMARK  status: ('A' for Active; 'I' for Inactive)
REMARK    1  A    between atoms: C_1  and  O_2
REMARK    2  A    between atoms: O_2  and  C_3
REMARK    3  A    between atoms: C_8  and  N_9
REMARK    4  A    between atoms: C_10  and  C_12
REMARK    5  A    between atoms: C_12  and  N_13
REMARK    6  A    between atoms: C_17  and  C_18
REMARK    7  A    between atoms: C_18  and  O_19
REMARK    8  A    between atoms: C_18  and  C_20
REMARK                            x       y       z     vdW  Elec       q    Type
REMARK                         _______ _______ _______ _____ _____    ______ ____
ROOT
ATOM      1  N   UNL     1       5.969   5.931  17.277  0.00  0.00    +0.000 N 
ATOM      2  C   UNL     1       6.951   6.409  18.107  0.00  0.00    +0.000 A 
ATOM      3  C   UNL     1       7.960   5.484  18.044  0.00  0.00    +0.000 A 
ATOM      4  N   UNL     1       7.648   4.499  17.151  0.00  0.00    +0.000 NA
ATOM      5  C   UNL     1       6.451   4.790  16.668  0.00  0.00    +0.000 A 
ENDROOT
BRANCH   1   6
ATOM      6  C   UNL     1       4.674   6.553  17.090  0.00  0.00    +0.000 C 
BRANCH   6   8
ATOM      7  N   UNL     1       3.721   4.817  18.530  0.00  0.00    +0.000 N 
ATOM      8  C   UNL     1       3.698   6.159  18.184  0.00  0.00    +0.000 C 
ATOM      9  O   UNL     1       2.975   7.018  18.684  0.00  0.00    +0.000 OA
ATOM     10  H   UNL     1       4.520   4.260  18.215  0.00  0.00    +0.000 HD
BRANCH   7  16
ATOM     11  C   UNL     1       3.361   3.156  20.288  0.00  0.00    +0.000 A 
ATOM     12  C   UNL     1       2.495   2.486  21.169  0.00  0.00    +0.000 A 
ATOM     13  C   UNL     1       1.148   2.835  21.243  0.00  0.00    +0.000 A 
ATOM     14  C   UNL     1       0.648   3.835  20.422  0.00  0.00    +0.000 A 
ATOM     15  C   UNL     1       1.491   4.484  19.519  0.00  0.00    +0.000 A 
ATOM     16  C   UNL     1       2.851   4.165  19.441  0.00  0.00    +0.000 A 
BRANCH  11  18
ATOM     17  C   UNL     1       5.068   1.536  20.548  0.00  0.00    +0.000 C 
ATOM     18  O   UNL     1       4.708   2.875  20.204  0.00  0.00    +0.000 OA
ENDBRANCH  11  18
ENDBRANCH   7  16
ENDBRANCH   6   8
ENDBRANCH   1   6
BRANCH   5  19
ATOM     19  C   UNL     1       5.723   4.034  15.586  0.00  0.00    +0.000 C 
BRANCH  19  20
ATOM     20  C   UNL     1       6.325   4.197  14.202  0.00  0.00    +0.000 A 
ATOM     21  C   UNL     1       5.852   3.431  13.125  0.00  0.00    +0.000 A 
ATOM     22  C   UNL     1       6.389   3.600  11.847  0.00  0.00    +0.000 A 
ATOM     23  C   UNL     1       7.397   4.535  11.628  0.00  0.00    +0.000 A 
ATOM     24  C   UNL     1       7.873   5.307  12.685  0.00  0.00    +0.000 A 
ATOM     25  C   UNL     1       7.340   5.142  13.963  0.00  0.00    +0.000 A 
ENDBRANCH  19  20
BRANCH  19  26
ATOM     26  O   UNL     1       5.698   2.651  15.966  0.00  0.00    +0.000 OA
ATOM     27  H   UNL     1       4.846   2.289  15.664  0.00  0.00    +0.000 HD
ENDBRANCH  19  26
ENDBRANCH   5  19
TORSDOF 7
ENDMDL
MODEL 6
REMARK VINA RESULT:      -7.4      3.189      5.716
REMARK  Name = 
REMARK  8 active torsions:
REMARK  status: ('A' for Active; 'I' for Inactive)
REMARK    1  A    between atoms: C_1  and  O_2
REMARK    2  A    between atoms: O_2  and  C_3
REMARK    3  A    between atoms: C_8  and  N_9
REMARK    4  A    between atoms: C_10  and  C_12
REMARK    5  A    between atoms: C_12  and  N_13
REMARK    6  A    between atoms: C_17  and  C_18
REMARK    7  A    between atoms: C_18  and  O_19
REMARK    8  A    between atoms: C_18  and  C_20
REMARK                            x       y       z     vdW  Elec       q    Type
REMARK                         _______ _______ _______ _____ _____    ______ ____
ROOT
ATOM      1  N   UNL     1       2.362   3.987  19.553  0.00  0.00    +0.000 N 
ATOM      2  C   UNL     1       1.035   3.657  19.672  0.00  0.00    +0.000 A 
ATOM      3  C   UNL     1       0.874   2.525  18.918  0.00  0.00    +0.000 A 
ATOM      4  N   UNL     1       2.073   2.121  18.403  0.00  0.00    +0.000 NA
ATOM      5  C   UNL     1       2.977   2.996  18.815  0.00  0.00    +0.000 A 
ENDROOT
BRANCH   1   6
ATOM      6  C   UNL     1       2.972   5.167  20.130  0.00  0.00    +0.000 C 
BRANCH   6   8
ATOM      7  N   UNL     1       1.989   7.401  20.344  0.00  0.00    +0.000 N 
ATOM      8  C   UNL     1       2.469   6.439  19.469  0.00  0.00    +0.000 C 
ATOM      9  O   UNL     1       2.519   6.541  18.245  0.00  0.00    +0.000 OA
ATOM     10  H   UNL     1       2.217   7.294  21.335  0.00  0.00    +0.000 HD
BRANCH   7  16
ATOM     11  C   UNL     1       0.478   9.241  20.900  0.00  0.00    +0.000 A 
ATOM     12  C   UNL     1      -0.160  10.441  20.542  0.00  0.00    +0.000 A 
ATOM     13  C   UNL     1       0.112  11.052  19.319  0.00  0.00    +0.000 A 
ATOM     14  C   UNL     1       1.000  10.460  18.433  0.00  0.00    +0.000 A 
ATOM     15  C   UNL     1       1.613   9.250  18.763  0.00  0.00    +0.000 A 
ATOM     16  C   UNL     1       1.371   8.628  19.993  0.00  0.00    +0.000 A 
BRANCH  11  18
ATOM     17  C   UNL     1       0.008   9.495  23.206  0.00  0.00    +0.000 C 
ATOM     18  O   UNL     1       0.274   8.616  22.111  0.00  0.00    +0.000 OA
ENDBRANCH  11  18
ENDBRANCH   7  16
ENDBRANCH   6   8
ENDBRANCH   1   6
BRANCH   5  19
ATOM     19  C   UNL     1       4.462   2.921  18.569  0.00  0.00    +0.000 C 
BRANCH  19  20
ATOM     20  C   UNL     1       5.044   4.152  17.897  0.00  0.00    +0.000 A 
ATOM     21  C   UNL     1       4.650   4.508  16.598  0.00  0.00    +0.000 A 
ATOM     22  C   UNL     1       5.166   5.655  15.992  0.00  0.00    +0.000 A 
ATOM     23  C   UNL     1       6.075   6.460  16.673  0.00  0.00    +0.000 A 
ATOM     24  C   UNL     1       6.472   6.123  17.965  0.00  0.00    +0.000 A 
ATOM     25  C   UNL     1       5.959   4.979  18.575  0.00  0.00    +0.000 A 
ENDBRANCH  19  20
BRANCH  19  26
ATOM     26  O   UNL     1       5.099   2.688  19.834  0.00  0.00    +0.000 OA
ATOM     27  H   UNL     1       5.392   3.555  20.167  0.00  0.00    +0.000 HD
ENDBRANCH  19  26
ENDBRANCH   5  19
TORSDOF 7
ENDMDL
MODEL 7
REMARK VINA RESULT:      -7.2      0.860      2.110
REMARK  Name = 
REMARK  8 active torsions:
REMARK  status: ('A' for Active; 'I' for Inactive)
REMARK    1  A    between atoms: C_1  and  O_2
REMARK    2  A    between atoms: O_2  and  C_3
REMARK    3  A    between atoms: C_8  and  N_9
REMARK    4  A    between atoms: C_10  and  C_12
REMARK    5  A    between atoms: C_12  and  N_13
REMARK    6  A    between atoms: C_17  and  C_18
REMARK    7  A    between atoms: C_18  and  O_19
REMARK    8  A    between atoms: C_18  and  C_20
REMARK                            x       y       z     vdW  Elec       q    Type
REMARK                         _______ _______ _______ _____ _____    ______ ____
ROOT
ATOM      1  N   UNL     1       6.043   6.146  17.353  0.00  0.00    +0.000 N 
ATOM      2  C   UNL     1       7.007   6.521  18.254  0.00  0.00    +0.000 A 
ATOM      3  C   UNL     1       7.833   5.434  18.374  0.00  0.00    +0.000 A 
ATOM      4  N   UNL     1       7.437   4.440  17.526  0.00  0.00    +0.000 NA
ATOM      5  C   UNL     1       6.367   4.888  16.888  0.00  0.00    +0.000 A 
ENDROOT
BRANCH   1   6
ATOM      6  C   UNL     1       4.908   6.964  16.974  0.00  0.00    +0.000 C 
BRANCH   6   8
ATOM      7  N   UNL     1       3.717   5.211  18.201  0.00  0.00    +0.000 N 
ATOM      8  C   UNL     1       3.615   6.444  17.577  0.00  0.00    +0.000 C 
ATOM      9  O   UNL     1       2.593   7.122  17.485  0.00  0.00    +0.000 OA
ATOM     10  H   UNL     1       4.656   4.865  18.415  0.00  0.00    +0.000 HD
BRANCH   7  16
ATOM     11  C   UNL     1       2.098   4.837  19.995  0.00  0.00    +0.000 A 
ATOM     12  C   UNL     1       1.065   4.071  20.560  0.00  0.00    +0.000 A 
ATOM     13  C   UNL     1       0.555   2.960  19.889  0.00  0.00    +0.000 A 
ATOM     14  C   UNL     1       1.089   2.591  18.663  0.00  0.00    +0.000 A 
ATOM     15  C   UNL     1       2.138   3.324  18.108  0.00  0.00    +0.000 A 
ATOM     16  C   UNL     1       2.653   4.454  18.754  0.00  0.00    +0.000 A 
BRANCH  11  18
ATOM     17  C   UNL     1       1.677   7.033  20.776  0.00  0.00    +0.000 C 
ATOM     18  O   UNL     1       2.610   5.965  20.599  0.00  0.00    +0.000 OA
ENDBRANCH  11  18
ENDBRANCH   7  16
ENDBRANCH   6   8
ENDBRANCH   1   6
BRANCH   5  19
ATOM     19  C   UNL     1       5.625   4.174  15.787  0.00  0.00    +0.000 C 
BRANCH  19  20
ATOM     20  C   UNL     1       6.280   4.286  14.422  0.00  0.00    +0.000 A 
ATOM     21  C   UNL     1       5.839   3.492  13.353  0.00  0.00    +0.000 A 
ATOM     22  C   UNL     1       6.424   3.615  12.092  0.00  0.00    +0.000 A 
ATOM     23  C   UNL     1       7.450   4.532  11.881  0.00  0.00    +0.000 A 
ATOM     24  C   UNL     1       7.896   5.331  12.931  0.00  0.00    +0.000 A 
ATOM     25  C   UNL     1       7.315   5.212  14.192  0.00  0.00    +0.000 A 
ENDBRANCH  19  20
BRANCH  19  26
ATOM     26  O   UNL     1       5.499   2.797  16.174  0.00  0.00    +0.000 OA
ATOM     27  H   UNL     1       4.782   2.417  15.635  0.00  0.00    +0.000 HD
ENDBRANCH  19  26
ENDBRANCH   5  19
TORSDOF 7
ENDMDL
MODEL 8
REMARK VINA RESULT:      -7.2      2.890      5.169
REMARK  Name = 
REMARK  8 active torsions:
REMARK  status: ('A' for Active; 'I' for Inactive)
REMARK    1  A    between atoms: C_1  and  O_2
REMARK    2  A    between atoms: O_2  and  C_3
REMARK    3  A    between atoms: C_8  and  N_9
REMARK    4  A    between atoms: C_10  and  C_12
REMARK    5  A    between atoms: C_12  and  N_13
REMARK    6  A    between atoms: C_17  and  C_18
REMARK    7  A    between atoms: C_18  and  O_19
REMARK    8  A    between atoms: C_18  and  C_20
REMARK                            x       y       z     vdW  Elec       q    Type
REMARK                         _______ _______ _______ _____ _____    ______ ____
ROOT
ATOM      1  N   UNL     1       2.660   3.766  19.752  0.00  0.00    +0.000 N 
ATOM      2  C   UNL     1       2.165   2.487  19.707  0.00  0.00    +0.000 A 
ATOM      3  C   UNL     1       2.352   2.072  18.415  0.00  0.00    +0.000 A 
ATOM      4  N   UNL     1       3.005   3.032  17.696  0.00  0.00    +0.000 NA
ATOM      5  C   UNL     1       3.215   4.046  18.520  0.00  0.00    +0.000 A 
ENDROOT
BRANCH   1   6
ATOM      6  C   UNL     1       2.605   4.630  20.914  0.00  0.00    +0.000 C 
BRANCH   6   8
ATOM      7  N   UNL     1       1.977   6.996  20.985  0.00  0.00    +0.000 N 
ATOM      8  C   UNL     1       1.537   5.700  20.767  0.00  0.00    +0.000 C 
ATOM      9  O   UNL     1       0.391   5.370  20.471  0.00  0.00    +0.000 OA
ATOM     10  H   UNL     1       2.988   7.158  20.990  0.00  0.00    +0.000 HD
BRANCH   7  16
ATOM     11  C   UNL     1       1.109   8.990  19.867  0.00  0.00    +0.000 A 
ATOM     12  C   UNL     1       0.342  10.166  19.902  0.00  0.00    +0.000 A 
ATOM     13  C   UNL     1      -0.385  10.507  21.042  0.00  0.00    +0.000 A 
ATOM     14  C   UNL     1      -0.332   9.691  22.163  0.00  0.00    +0.000 A 
ATOM     15  C   UNL     1       0.454   8.539  22.152  0.00  0.00    +0.000 A 
ATOM     16  C   UNL     1       1.176   8.166  21.013  0.00  0.00    +0.000 A 
BRANCH  11  18
ATOM     17  C   UNL     1       2.034   9.610  17.778  0.00  0.00    +0.000 C 
ATOM     18  O   UNL     1       1.816   8.589  18.754  0.00  0.00    +0.000 OA
ENDBRANCH  11  18
ENDBRANCH   7  16
ENDBRANCH   6   8
ENDBRANCH   1   6
BRANCH   5  19
ATOM     19  C   UNL     1       3.979   5.306  18.201  0.00  0.00    +0.000 C 
BRANCH  19  20
ATOM     20  C   UNL     1       5.135   5.104  17.238  0.00  0.00    +0.000 A 
ATOM     21  C   UNL     1       4.987   5.404  15.875  0.00  0.00    +0.000 A 
ATOM     22  C   UNL     1       6.058   5.243  14.995  0.00  0.00    +0.000 A 
ATOM     23  C   UNL     1       7.288   4.787  15.463  0.00  0.00    +0.000 A 
ATOM     24  C   UNL     1       7.452   4.490  16.813  0.00  0.00    +0.000 A 
ATOM     25  C   UNL     1       6.385   4.649  17.696  0.00  0.00    +0.000 A 
ENDBRANCH  19  20
BRANCH  19  26
ATOM     26  O   UNL     1       3.043   6.257  17.674  0.00  0.00    +0.000 OA
ATOM     27  H   UNL     1       3.231   7.109  18.108  0.00  0.00    +0.000 HD
ENDBRANCH  19  26
ENDBRANCH   5  19
TORSDOF 7
ENDMDL
MODEL 9
REMARK VINA RESULT:      -7.1      3.157      6.099
REMARK  Name = 
REMARK  8 active torsions:
REMARK  status: ('A' for Active; 'I' for Inactive)
REMARK    1  A    between atoms: C_1  and  O_2
REMARK    2  A    between atoms: O_2  and  C_3
REMARK    3  A    between atoms: C_8  and  N_9
REMARK    4  A    between atoms: C_10  and  C_12
REMARK    5  A    between atoms: C_12  and  N_13
REMARK    6  A    between atoms: C_17  and  C_18
REMARK    7  A    between atoms: C_18  and  O_19
REMARK    8  A    between atoms: C_18  and  C_20
REMARK                            x       y       z     vdW  Elec       q    Type
REMARK                         _______ _______ _______ _____ _____    ______ ____
ROOT
ATOM      1  N   UNL     1       4.707   5.745  18.065  0.00  0.00    +0.000 N 
ATOM      2  C   UNL     1       5.867   6.461  18.220  0.00  0.00    +0.000 A 
ATOM      3  C   UNL     1       6.821   5.535  18.557  0.00  0.00    +0.000 A 
ATOM      4  N   UNL     1       6.289   4.278  18.543  0.00  0.00    +0.000 NA
ATOM      5  C   UNL     1       5.013   4.408  18.216  0.00  0.00    +0.000 A 
ENDROOT
BRANCH   1   6
ATOM      6  C   UNL     1       3.413   6.329  17.777  0.00  0.00    +0.000 C 
BRANCH   6   8
ATOM      7  N   UNL     1       1.986   7.987  18.880  0.00  0.00    +0.000 N 
ATOM      8  C   UNL     1       2.728   6.827  19.038  0.00  0.00    +0.000 C 
ATOM      9  O   UNL     1       2.862   6.196  20.084  0.00  0.00    +0.000 OA
ATOM     10  H   UNL     1       1.763   8.279  17.925  0.00  0.00    +0.000 HD
BRANCH   7  16
ATOM     11  C   UNL     1       0.470   9.780  19.558  0.00  0.00    +0.000 A 
ATOM     12  C   UNL     1      -0.152  10.528  20.572  0.00  0.00    +0.000 A 
ATOM     13  C   UNL     1       0.043  10.206  21.915  0.00  0.00    +0.000 A 
ATOM     14  C   UNL     1       0.881   9.154  22.256  0.00  0.00    +0.000 A 
ATOM     15  C   UNL     1       1.531   8.426  21.259  0.00  0.00    +0.000 A 
ATOM     16  C   UNL     1       1.335   8.719  19.905  0.00  0.00    +0.000 A 
BRANCH  11  18
ATOM     17  C   UNL     1      -1.085  10.173  17.817  0.00  0.00    +0.000 C 
ATOM     18  O   UNL     1       0.280  10.034  18.217  0.00  0.00    +0.000 OA
ENDBRANCH  11  18
ENDBRANCH   7  16
ENDBRANCH   6   8
ENDBRANCH   1   6
BRANCH   5  19
ATOM     19  C   UNL     1       4.034   3.284  17.992  0.00  0.00    +0.000 C 
BRANCH  19  20
ATOM     20  C   UNL     1       3.041   3.090  19.124  0.00  0.00    +0.000 A 
ATOM     21  C   UNL     1       3.488   2.812  20.425  0.00  0.00    +0.000 A 
ATOM     22  C   UNL     1       2.575   2.660  21.470  0.00  0.00    +0.000 A 
ATOM     23  C   UNL     1       1.209   2.787  21.231  0.00  0.00    +0.000 A 
ATOM     24  C   UNL     1       0.750   3.068  19.947  0.00  0.00    +0.000 A 
ATOM     25  C   UNL     1       1.657   3.221  18.900  0.00  0.00    +0.000 A 
ENDBRANCH  19  20
BRANCH  19  26
ATOM     26  O   UNL     1       3.349   3.546  16.759  0.00  0.00    +0.000 OA
ATOM     27  H   UNL     1       3.648   4.420  16.450  0.00  0.00    +0.000 HD
ENDBRANCH  19  26
ENDBRANCH   5  19
TORSDOF 7
ENDMDL
