MODEL 1
REMARK VINA RESULT:      -8.4      0.000      0.000
REMARK  Name = 
REMARK  10 active torsions:
REMARK  status: ('A' for Active; 'I' for Inactive)
REMARK    1  A    between atoms: C_1  and  C_2
REMARK    2  A    between atoms: N_5  and  C_6
REMARK    3  A    between atoms: C_6  and  C_7
REMARK    4  A    between atoms: C_7  and  C_8
REMARK    5  A    between atoms: C_8  and  C_9
REMARK    6  A    between atoms: C_9  and  C_10
REMARK    7  A    between atoms: C_10  and  C_11
REMARK    8  A    between atoms: C_11  and  O_12
REMARK    9  A    between atoms: O_12  and  C_13
REMARK   10  A    between atoms: C_15  and  C_16
REMARK                            x       y       z     vdW  Elec       q    Type
REMARK                         _______ _______ _______ _____ _____    ______ ____
ROOT
ATOM      1  C   UNL     1       3.747   5.961  17.945  0.00  0.00    +0.000 A 
ATOM      2  N   UNL     1       3.119   7.132  18.155  0.00  0.00    +0.000 NA
ATOM      3  C   UNL     1       2.344   7.209  19.246  0.00  0.00    +0.000 A 
ATOM      4  N   UNL     1       2.159   6.193  20.110  0.00  0.00    +0.000 NA
ATOM      5  C   UNL     1       2.805   5.032  19.858  0.00  0.00    +0.000 A 
ATOM      6  C   UNL     1       3.658   4.870  18.780  0.00  0.00    +0.000 A 
ATOM      7  C   UNL     1       4.359   3.579  18.484  0.00  0.00    +0.000 C 
ATOM      8  C   UNL     1       4.370   2.626  19.677  0.00  0.00    +0.000 C 
ATOM      9  C   UNL     1       2.979   2.547  20.297  0.00  0.00    +0.000 C 
ATOM     10  C   UNL     1       2.564   3.915  20.838  0.00  0.00    +0.000 C 
ENDROOT
BRANCH   3  11
ATOM     11  C   UNL     1       1.601   8.466  19.473  0.00  0.00    +0.000 A 
ATOM     12  C   UNL     1       1.108   8.814  20.746  0.00  0.00    +0.000 A 
ATOM     13  C   UNL     1       0.431  10.022  20.959  0.00  0.00    +0.000 A 
ATOM     14  C   UNL     1       0.230  10.903  19.905  0.00  0.00    +0.000 A 
ATOM     15  C   UNL     1       0.692  10.579  18.631  0.00  0.00    +0.000 A 
ATOM     16  C   UNL     1       1.367   9.370  18.421  0.00  0.00    +0.000 A 
ENDBRANCH   3  11
BRANCH   1  17
ATOM     17  O   UNL     1       4.510   5.809  16.801  0.00  0.00    +0.000 OA
BRANCH  17  18
ATOM     18  C   UNL     1       5.585   6.742  16.743  0.00  0.00    +0.000 C 
BRANCH  18  19
ATOM     19  C   UNL     1       6.867   6.034  17.165  0.00  0.00    +0.000 C 
BRANCH  19  20
ATOM     20  C   UNL     1       7.696   6.874  18.135  0.00  0.00    +0.000 C 
BRANCH  20  21
ATOM     21  C   UNL     1       7.881   8.311  17.648  0.00  0.00    +0.000 C 
BRANCH  21  22
ATOM     22  C   UNL     1       8.637   9.150  18.673  0.00  0.00    +0.000 C 
BRANCH  22  23
ATOM     23  C   UNL     1       8.907  10.571  18.160  0.00  0.00    +0.000 C 
BRANCH  23  28
ATOM     24  C   UNL     1      12.277  13.446  16.641  0.00  0.00    +0.000 C 
ATOM     25  C   UNL     1      11.466  13.153  17.900  0.00  0.00    +0.000 C 
ATOM     26  C   UNL     1      11.737  11.725  18.396  0.00  0.00    +0.000 C 
ATOM     27  C   UNL     1      10.798  11.344  19.539  0.00  0.00    +0.000 C 
ATOM     28  N   UNL     1       9.378  11.505  19.196  0.00  0.00    +0.000 NA
ATOM     29  C   UNL     1       9.117  12.905  18.825  0.00  0.00    +0.000 C 
ATOM     30  C   UNL     1       9.969  13.386  17.648  0.00  0.00    +0.000 C 
ENDBRANCH  23  28
ENDBRANCH  22  23
ENDBRANCH  21  22
ENDBRANCH  20  21
ENDBRANCH  19  20
ENDBRANCH  18  19
ENDBRANCH  17  18
ENDBRANCH   1  17
TORSDOF 9
ENDMDL
MODEL 2
REMARK VINA RESULT:      -8.2      3.128      5.348
REMARK  Name = 
REMARK  10 active torsions:
REMARK  status: ('A' for Active; 'I' for Inactive)
REMARK    1  A    between atoms: C_1  and  C_2
REMARK    2  A    between atoms: N_5  and  C_6
REMARK    3  A    between atoms: C_6  and  C_7
REMARK    4  A    between atoms: C_7  and  C_8
REMARK    5  A    between atoms: C_8  and  C_9
REMARK    6  A    between atoms: C_9  and  C_10
REMARK    7  A    between atoms: C_10  and  C_11
REMARK    8  A    between atoms: C_11  and  O_12
REMARK    9  A    between atoms: O_12  and  C_13
REMARK   10  A    between atoms: C_15  and  C_16
REMARK                            x       y       z     vdW  Elec       q    Type
REMARK                         _______ _______ _______ _____ _____    ______ ____
ROOT
ATOM      1  C   UNL     1       6.007   4.550  18.053  0.00  0.00    +0.000 A 
ATOM      2  N   UNL     1       6.507   4.542  16.805  0.00  0.00    +0.000 NA
ATOM      3  C   UNL     1       5.630   4.351  15.809  0.00  0.00    +0.000 A 
ATOM      4  N   UNL     1       4.311   4.161  15.996  0.00  0.00    +0.000 NA
ATOM      5  C   UNL     1       3.850   4.171  17.267  0.00  0.00    +0.000 A 
ATOM      6  C   UNL     1       4.673   4.400  18.357  0.00  0.00    +0.000 A 
ATOM      7  C   UNL     1       4.172   4.392  19.769  0.00  0.00    +0.000 C 
ATOM      8  C   UNL     1       2.652   4.518  19.858  0.00  0.00    +0.000 C 
ATOM      9  C   UNL     1       1.988   3.567  18.869  0.00  0.00    +0.000 C 
ATOM     10  C   UNL     1       2.373   3.942  17.438  0.00  0.00    +0.000 C 
ENDROOT
BRANCH   3  11
ATOM     11  C   UNL     1       6.160   4.285  14.431  0.00  0.00    +0.000 A 
ATOM     12  C   UNL     1       5.573   3.459  13.452  0.00  0.00    +0.000 A 
ATOM     13  C   UNL     1       6.062   3.425  12.139  0.00  0.00    +0.000 A 
ATOM     14  C   UNL     1       7.149   4.211  11.781  0.00  0.00    +0.000 A 
ATOM     15  C   UNL     1       7.762   5.026  12.732  0.00  0.00    +0.000 A 
ATOM     16  C   UNL     1       7.270   5.056  14.043  0.00  0.00    +0.000 A 
ENDBRANCH   3  11
BRANCH   1  17
ATOM     17  O   UNL     1       6.878   4.680  19.121  0.00  0.00    +0.000 OA
BRANCH  17  18
ATOM     18  C   UNL     1       7.960   5.559  18.828  0.00  0.00    +0.000 C 
BRANCH  18  19
ATOM     19  C   UNL     1       7.429   6.988  18.788  0.00  0.00    +0.000 C 
BRANCH  19  20
ATOM     20  C   UNL     1       7.919   7.750  17.558  0.00  0.00    +0.000 C 
BRANCH  20  21
ATOM     21  C   UNL     1       8.178   9.227  17.856  0.00  0.00    +0.000 C 
BRANCH  21  22
ATOM     22  C   UNL     1       9.036   9.398  19.105  0.00  0.00    +0.000 C 
BRANCH  22  23
ATOM     23  C   UNL     1       9.360  10.873  19.378  0.00  0.00    +0.000 C 
BRANCH  23  28
ATOM     24  C   UNL     1       9.880  15.502  18.892  0.00  0.00    +0.000 C 
ATOM     25  C   UNL     1      10.696  14.215  18.807  0.00  0.00    +0.000 C 
ATOM     26  C   UNL     1      10.157  13.307  17.692  0.00  0.00    +0.000 C 
ATOM     27  C   UNL     1      10.833  11.938  17.712  0.00  0.00    +0.000 C 
ATOM     28  N   UNL     1      10.732  11.264  19.015  0.00  0.00    +0.000 NA
ATOM     29  C   UNL     1      11.350  12.104  20.053  0.00  0.00    +0.000 C 
ATOM     30  C   UNL     1      10.714  13.493  20.162  0.00  0.00    +0.000 C 
ENDBRANCH  23  28
ENDBRANCH  22  23
ENDBRANCH  21  22
ENDBRANCH  20  21
ENDBRANCH  19  20
ENDBRANCH  18  19
ENDBRANCH  17  18
ENDBRANCH   1  17
TORSDOF 9
ENDMDL
MODEL 3
REMARK VINA RESULT:      -7.9      1.314      2.063
REMARK  Name = 
REMARK  10 active torsions:
REMARK  status: ('A' for Active; 'I' for Inactive)
REMARK    1  A    between atoms: C_1  and  C_2
REMARK    2  A    between atoms: N_5  and  C_6
REMARK    3  A    between atoms: C_6  and  C_7
REMARK    4  A    between atoms: C_7  and  C_8
REMARK    5  A    between atoms: C_8  and  C_9
REMARK    6  A    between atoms: C_9  and  C_10
REMARK    7  A    between atoms: C_10  and  C_11
REMARK    8  A    between atoms: C_11  and  O_12
REMARK    9  A    between atoms: O_12  and  C_13
REMARK   10  A    between atoms: C_15  and  C_16
REMARK                            x       y       z     vdW  Elec       q    Type
REMARK                         _______ _______ _______ _____ _____    ______ ____
ROOT
ATOM      1  C   UNL     1       4.104   5.184  18.464  0.00  0.00    +0.000 A 
ATOM      2  N   UNL     1       3.705   6.455  18.647  0.00  0.00    +0.000 NA
ATOM      3  C   UNL     1       2.448   6.633  19.079  0.00  0.00    +0.000 A 
ATOM      4  N   UNL     1       1.587   5.626  19.319  0.00  0.00    +0.000 NA
ATOM      5  C   UNL     1       2.028   4.364  19.118  0.00  0.00    +0.000 A 
ATOM      6  C   UNL     1       3.320   4.080  18.712  0.00  0.00    +0.000 A 
ATOM      7  C   UNL     1       3.807   2.684  18.466  0.00  0.00    +0.000 C 
ATOM      8  C   UNL     1       2.900   1.624  19.088  0.00  0.00    +0.000 C 
ATOM      9  C   UNL     1       1.441   1.929  18.766  0.00  0.00    +0.000 C 
ATOM     10  C   UNL     1       1.033   3.266  19.384  0.00  0.00    +0.000 C 
ENDROOT
BRANCH   3  11
ATOM     11  C   UNL     1       1.967   8.021  19.238  0.00  0.00    +0.000 A 
ATOM     12  C   UNL     1       2.056   8.959  18.190  0.00  0.00    +0.000 A 
ATOM     13  C   UNL     1       1.569  10.265  18.338  0.00  0.00    +0.000 A 
ATOM     14  C   UNL     1       0.987  10.659  19.536  0.00  0.00    +0.000 A 
ATOM     15  C   UNL     1       0.898   9.758  20.595  0.00  0.00    +0.000 A 
ATOM     16  C   UNL     1       1.388   8.454  20.444  0.00  0.00    +0.000 A 
ENDBRANCH   3  11
BRANCH   1  17
ATOM     17  O   UNL     1       5.371   4.948  17.960  0.00  0.00    +0.000 OA
BRANCH  17  18
ATOM     18  C   UNL     1       6.394   5.356  18.864  0.00  0.00    +0.000 C 
BRANCH  18  19
ATOM     19  C   UNL     1       7.607   5.803  18.056  0.00  0.00    +0.000 C 
BRANCH  19  20
ATOM     20  C   UNL     1       7.540   7.284  17.686  0.00  0.00    +0.000 C 
BRANCH  20  21
ATOM     21  C   UNL     1       8.400   8.151  18.605  0.00  0.00    +0.000 C 
BRANCH  21  22
ATOM     22  C   UNL     1       8.548   9.565  18.054  0.00  0.00    +0.000 C 
BRANCH  22  23
ATOM     23  C   UNL     1       9.430  10.440  18.955  0.00  0.00    +0.000 C 
BRANCH  23  28
ATOM     24  C   UNL     1      10.213  14.422  21.292  0.00  0.00    +0.000 C 
ATOM     25  C   UNL     1      10.581  13.744  19.975  0.00  0.00    +0.000 C 
ATOM     26  C   UNL     1       9.326  13.500  19.125  0.00  0.00    +0.000 C 
ATOM     27  C   UNL     1       9.643  12.655  17.893  0.00  0.00    +0.000 C 
ATOM     28  N   UNL     1      10.295  11.379  18.221  0.00  0.00    +0.000 NA
ATOM     29  C   UNL     1      11.550  11.639  18.943  0.00  0.00    +0.000 C 
ATOM     30  C   UNL     1      11.349  12.439  20.233  0.00  0.00    +0.000 C 
ENDBRANCH  23  28
ENDBRANCH  22  23
ENDBRANCH  21  22
ENDBRANCH  20  21
ENDBRANCH  19  20
ENDBRANCH  18  19
ENDBRANCH  17  18
ENDBRANCH   1  17
TORSDOF 9
ENDMDL
MODEL 4
REMARK VINA RESULT:      -7.8      4.750      8.806
REMARK  Name = 
REMARK  10 active torsions:
REMARK  status: ('A' for Active; 'I' for Inactive)
REMARK    1  A    between atoms: C_1  and  C_2
REMARK    2  A    between atoms: N_5  and  C_6
REMARK    3  A    between atoms: C_6  and  C_7
REMARK    4  A    between atoms: C_7  and  C_8
REMARK    5  A    between atoms: C_8  and  C_9
REMARK    6  A    between atoms: C_9  and  C_10
REMARK    7  A    between atoms: C_10  and  C_11
REMARK    8  A    between atoms: C_11  and  O_12
REMARK    9  A    between atoms: O_12  and  C_13
REMARK   10  A    between atoms: C_15  and  C_16
REMARK                            x       y       z     vdW  Elec       q    Type
REMARK                         _______ _______ _______ _____ _____    ______ ____
ROOT
ATOM      1  C   UNL     1       2.596   5.718  18.388  0.00  0.00    +0.000 A 
ATOM      2  N   UNL     1       3.458   5.692  17.356  0.00  0.00    +0.000 NA
ATOM      3  C   UNL     1       4.232   4.602  17.249  0.00  0.00    +0.000 A 
ATOM      4  N   UNL     1       4.195   3.567  18.109  0.00  0.00    +0.000 NA
ATOM      5  C   UNL     1       3.317   3.636  19.135  0.00  0.00    +0.000 A 
ATOM      6  C   UNL     1       2.450   4.701  19.305  0.00  0.00    +0.000 A 
ATOM      7  C   UNL     1       1.490   4.793  20.452  0.00  0.00    +0.000 C 
ATOM      8  C   UNL     1       1.276   3.453  21.152  0.00  0.00    +0.000 C 
ATOM      9  C   UNL     1       2.618   2.775  21.408  0.00  0.00    +0.000 C 
ATOM     10  C   UNL     1       3.314   2.467  20.082  0.00  0.00    +0.000 C 
ENDROOT
BRANCH   3  11
ATOM     11  C   UNL     1       5.225   4.571  16.155  0.00  0.00    +0.000 A 
ATOM     12  C   UNL     1       4.937   3.977  14.911  0.00  0.00    +0.000 A 
ATOM     13  C   UNL     1       5.873   3.979  13.868  0.00  0.00    +0.000 A 
ATOM     14  C   UNL     1       7.117   4.569  14.050  0.00  0.00    +0.000 A 
ATOM     15  C   UNL     1       7.437   5.151  15.276  0.00  0.00    +0.000 A 
ATOM     16  C   UNL     1       6.498   5.146  16.316  0.00  0.00    +0.000 A 
ENDBRANCH   3  11
BRANCH   1  17
ATOM     17  O   UNL     1       1.819   6.846  18.580  0.00  0.00    +0.000 OA
BRANCH  17  18
ATOM     18  C   UNL     1       2.566   8.048  18.416  0.00  0.00    +0.000 C 
BRANCH  18  19
ATOM     19  C   UNL     1       1.613   9.159  17.988  0.00  0.00    +0.000 C 
BRANCH  19  20
ATOM     20  C   UNL     1       1.125   9.988  19.175  0.00  0.00    +0.000 C 
BRANCH  20  21
ATOM     21  C   UNL     1       1.060  11.481  18.852  0.00  0.00    +0.000 C 
BRANCH  21  22
ATOM     22  C   UNL     1      -0.274  12.083  19.281  0.00  0.00    +0.000 C 
BRANCH  22  23
ATOM     23  C   UNL     1      -1.330  11.978  18.173  0.00  0.00    +0.000 C 
BRANCH  23  28
ATOM     24  C   UNL     1      -3.383  10.134  14.389  0.00  0.00    +0.000 C 
ATOM     25  C   UNL     1      -3.496  10.114  15.911  0.00  0.00    +0.000 C 
ATOM     26  C   UNL     1      -3.821  11.516  16.447  0.00  0.00    +0.000 C 
ATOM     27  C   UNL     1      -3.752  11.560  17.972  0.00  0.00    +0.000 C 
ATOM     28  N   UNL     1      -2.462  11.096  18.504  0.00  0.00    +0.000 NA
ATOM     29  C   UNL     1      -2.219   9.712  18.066  0.00  0.00    +0.000 C 
ATOM     30  C   UNL     1      -2.213   9.554  16.544  0.00  0.00    +0.000 C 
ENDBRANCH  23  28
ENDBRANCH  22  23
ENDBRANCH  21  22
ENDBRANCH  20  21
ENDBRANCH  19  20
ENDBRANCH  18  19
ENDBRANCH  17  18
ENDBRANCH   1  17
TORSDOF 9
ENDMDL
MODEL 5
REMARK VINA RESULT:      -7.7      1.351      1.922
REMARK  Name = 
REMARK  10 active torsions:
REMARK  status: ('A' for Active; 'I' for Inactive)
REMARK    1  A    between atoms: C_1  and  C_2
REMARK    2  A    between atoms: N_5  and  C_6
REMARK    3  A    between atoms: C_6  and  C_7
REMARK    4  A    between atoms: C_7  and  C_8
REMARK    5  A    between atoms: C_8  and  C_9
REMARK    6  A    between atoms: C_9  and  C_10
REMARK    7  A    between atoms: C_10  and  C_11
REMARK    8  A    between atoms: C_11  and  O_12
REMARK    9  A    between atoms: O_12  and  C_13
REMARK   10  A    between atoms: C_15  and  C_16
REMARK                            x       y       z     vdW  Elec       q    Type
REMARK                         _______ _______ _______ _____ _____    ______ ____
ROOT
ATOM      1  C   UNL     1       4.239   5.606  17.662  0.00  0.00    +0.000 A 
ATOM      2  N   UNL     1       3.739   6.802  18.019  0.00  0.00    +0.000 NA
ATOM      3  C   UNL     1       2.548   6.795  18.634  0.00  0.00    +0.000 A 
ATOM      4  N   UNL     1       1.842   5.678  18.893  0.00  0.00    +0.000 NA
ATOM      5  C   UNL     1       2.379   4.497  18.513  0.00  0.00    +0.000 A 
ATOM      6  C   UNL     1       3.620   4.401  17.908  0.00  0.00    +0.000 A 
ATOM      7  C   UNL     1       4.210   3.096  17.465  0.00  0.00    +0.000 C 
ATOM      8  C   UNL     1       3.521   1.890  18.101  0.00  0.00    +0.000 C 
ATOM      9  C   UNL     1       2.007   2.045  18.013  0.00  0.00    +0.000 C 
ATOM     10  C   UNL     1       1.556   3.272  18.806  0.00  0.00    +0.000 C 
ENDROOT
BRANCH   3  11
ATOM     11  C   UNL     1       1.951   8.100  18.990  0.00  0.00    +0.000 A 
ATOM     12  C   UNL     1       1.428   8.348  20.274  0.00  0.00    +0.000 A 
ATOM     13  C   UNL     1       0.892   9.597  20.613  0.00  0.00    +0.000 A 
ATOM     14  C   UNL     1       0.864  10.621  19.675  0.00  0.00    +0.000 A 
ATOM     15  C   UNL     1       1.361  10.401  18.391  0.00  0.00    +0.000 A 
ATOM     16  C   UNL     1       1.895   9.150  18.056  0.00  0.00    +0.000 A 
ENDBRANCH   3  11
BRANCH   1  17
ATOM     17  O   UNL     1       5.435   5.562  16.969  0.00  0.00    +0.000 OA
BRANCH  17  18
ATOM     18  C   UNL     1       6.558   5.770  17.821  0.00  0.00    +0.000 C 
BRANCH  18  19
ATOM     19  C   UNL     1       7.443   6.847  17.205  0.00  0.00    +0.000 C 
BRANCH  19  20
ATOM     20  C   UNL     1       8.202   7.644  18.264  0.00  0.00    +0.000 C 
BRANCH  20  21
ATOM     21  C   UNL     1       8.194   9.146  17.977  0.00  0.00    +0.000 C 
BRANCH  21  22
ATOM     22  C   UNL     1       9.157   9.890  18.896  0.00  0.00    +0.000 C 
BRANCH  22  23
ATOM     23  C   UNL     1       9.424  11.320  18.405  0.00  0.00    +0.000 C 
BRANCH  23  28
ATOM     24  C   UNL     1       8.089  15.530  19.963  0.00  0.00    +0.000 C 
ATOM     25  C   UNL     1       9.302  14.604  19.981  0.00  0.00    +0.000 C 
ATOM     26  C   UNL     1       9.813  14.357  18.554  0.00  0.00    +0.000 C 
ATOM     27  C   UNL     1      10.903  13.288  18.529  0.00  0.00    +0.000 C 
ATOM     28  N   UNL     1      10.484  12.022  19.148  0.00  0.00    +0.000 NA
ATOM     29  C   UNL     1      10.098  12.263  20.547  0.00  0.00    +0.000 C 
ATOM     30  C   UNL     1       8.969  13.286  20.695  0.00  0.00    +0.000 C 
ENDBRANCH  23  28
ENDBRANCH  22  23
ENDBRANCH  21  22
ENDBRANCH  20  21
ENDBRANCH  19  20
ENDBRANCH  18  19
ENDBRANCH  17  18
ENDBRANCH   1  17
TORSDOF 9
ENDMDL
MODEL 6
REMARK VINA RESULT:      -7.7      2.902      5.601
REMARK  Name = 
REMARK  10 active torsions:
REMARK  status: ('A' for Active; 'I' for Inactive)
REMARK    1  A    between atoms: C_1  and  C_2
REMARK    2  A    between atoms: N_5  and  C_6
REMARK    3  A    between atoms: C_6  and  C_7
REMARK    4  A    between atoms: C_7  and  C_8
REMARK    5  A    between atoms: C_8  and  C_9
REMARK    6  A    between atoms: C_9  and  C_10
REMARK    7  A    between atoms: C_10  and  C_11
REMARK    8  A    between atoms: C_11  and  O_12
REMARK    9  A    between atoms: O_12  and  C_13
REMARK   10  A    between atoms: C_15  and  C_16
REMARK                            x       y       z     vdW  Elec       q    Type
REMARK                         _______ _______ _______ _____ _____    ______ ____
ROOT
ATOM      1  C   UNL     1       5.672   6.263  17.143  0.00  0.00    +0.000 A 
ATOM      2  N   UNL     1       6.054   5.947  15.893  0.00  0.00    +0.000 NA
ATOM      3  C   UNL     1       5.567   4.806  15.387  0.00  0.00    +0.000 A 
ATOM      4  N   UNL     1       4.745   3.977  16.059  0.00  0.00    +0.000 NA
ATOM      5  C   UNL     1       4.390   4.330  17.315  0.00  0.00    +0.000 A 
ATOM      6  C   UNL     1       4.810   5.508  17.906  0.00  0.00    +0.000 A 
ATOM      7  C   UNL     1       4.437   5.894  19.306  0.00  0.00    +0.000 C 
ATOM      8  C   UNL     1       3.253   5.093  19.843  0.00  0.00    +0.000 C 
ATOM      9  C   UNL     1       3.445   3.610  19.548  0.00  0.00    +0.000 C 
ATOM     10  C   UNL     1       3.481   3.373  18.038  0.00  0.00    +0.000 C 
ENDROOT
BRANCH   3  11
ATOM     11  C   UNL     1       6.012   4.408  14.035  0.00  0.00    +0.000 A 
ATOM     12  C   UNL     1       7.194   4.920  13.466  0.00  0.00    +0.000 A 
ATOM     13  C   UNL     1       7.626   4.515  12.196  0.00  0.00    +0.000 A 
ATOM     14  C   UNL     1       6.884   3.594  11.469  0.00  0.00    +0.000 A 
ATOM     15  C   UNL     1       5.701   3.081  12.000  0.00  0.00    +0.000 A 
ATOM     16  C   UNL     1       5.272   3.490  13.269  0.00  0.00    +0.000 A 
ENDBRANCH   3  11
BRANCH   1  17
ATOM     17  O   UNL     1       6.197   7.399  17.735  0.00  0.00    +0.000 OA
BRANCH  17  18
ATOM     18  C   UNL     1       7.511   7.690  17.269  0.00  0.00    +0.000 C 
BRANCH  18  19
ATOM     19  C   UNL     1       8.321   8.262  18.427  0.00  0.00    +0.000 C 
BRANCH  19  20
ATOM     20  C   UNL     1       8.688   9.728  18.205  0.00  0.00    +0.000 C 
BRANCH  20  21
ATOM     21  C   UNL     1       9.294  10.370  19.453  0.00  0.00    +0.000 C 
BRANCH  21  22
ATOM     22  C   UNL     1      10.548  11.169  19.111  0.00  0.00    +0.000 C 
BRANCH  22  23
ATOM     23  C   UNL     1      10.290  12.681  19.154  0.00  0.00    +0.000 C 
BRANCH  23  28
ATOM     24  C   UNL     1      12.310  16.802  18.218  0.00  0.00    +0.000 C 
ATOM     25  C   UNL     1      11.324  15.813  17.602  0.00  0.00    +0.000 C 
ATOM     26  C   UNL     1      10.080  15.668  18.491  0.00  0.00    +0.000 C 
ATOM     27  C   UNL     1       9.169  14.546  17.995  0.00  0.00    +0.000 C 
ATOM     28  N   UNL     1       9.861  13.255  17.868  0.00  0.00    +0.000 NA
ATOM     29  C   UNL     1      10.986  13.390  16.930  0.00  0.00    +0.000 C 
ATOM     30  C   UNL     1      12.000  14.456  17.354  0.00  0.00    +0.000 C 
ENDBRANCH  23  28
ENDBRANCH  22  23
ENDBRANCH  21  22
ENDBRANCH  20  21
ENDBRANCH  19  20
ENDBRANCH  18  19
ENDBRANCH  17  18
ENDBRANCH   1  17
TORSDOF 9
ENDMDL
MODEL 7
REMARK VINA RESULT:      -7.7      1.078      1.443
REMARK  Name = 
REMARK  10 active torsions:
REMARK  status: ('A' for Active; 'I' for Inactive)
REMARK    1  A    between atoms: C_1  and  C_2
REMARK    2  A    between atoms: N_5  and  C_6
REMARK    3  A    between atoms: C_6  and  C_7
REMARK    4  A    between atoms: C_7  and  C_8
REMARK    5  A    between atoms: C_8  and  C_9
REMARK    6  A    between atoms: C_9  and  C_10
REMARK    7  A    between atoms: C_10  and  C_11
REMARK    8  A    between atoms: C_11  and  O_12
REMARK    9  A    between atoms: O_12  and  C_13
REMARK   10  A    between atoms: C_15  and  C_16
REMARK                            x       y       z     vdW  Elec       q    Type
REMARK                         _______ _______ _______ _____ _____    ______ ____
ROOT
ATOM      1  C   UNL     1       4.098   5.575  18.388  0.00  0.00    +0.000 A 
ATOM      2  N   UNL     1       3.574   6.737  18.816  0.00  0.00    +0.000 NA
ATOM      3  C   UNL     1       2.401   6.665  19.460  0.00  0.00    +0.000 A 
ATOM      4  N   UNL     1       1.734   5.516  19.681  0.00  0.00    +0.000 NA
ATOM      5  C   UNL     1       2.294   4.371  19.229  0.00  0.00    +0.000 A 
ATOM      6  C   UNL     1       3.521   4.341  18.590  0.00  0.00    +0.000 A 
ATOM      7  C   UNL     1       4.136   3.078  18.068  0.00  0.00    +0.000 C 
ATOM      8  C   UNL     1       3.499   1.822  18.660  0.00  0.00    +0.000 C 
ATOM      9  C   UNL     1       1.979   1.937  18.619  0.00  0.00    +0.000 C 
ATOM     10  C   UNL     1       1.514   3.109  19.483  0.00  0.00    +0.000 C 
ENDROOT
BRANCH   3  11
ATOM     11  C   UNL     1       1.777   7.932  19.895  0.00  0.00    +0.000 A 
ATOM     12  C   UNL     1       1.537   8.986  18.991  0.00  0.00    +0.000 A 
ATOM     13  C   UNL     1       0.917  10.173  19.404  0.00  0.00    +0.000 A 
ATOM     14  C   UNL     1       0.529  10.331  20.728  0.00  0.00    +0.000 A 
ATOM     15  C   UNL     1       0.767   9.312  21.649  0.00  0.00    +0.000 A 
ATOM     16  C   UNL     1       1.389   8.128  21.232  0.00  0.00    +0.000 A 
ENDBRANCH   3  11
BRANCH   1  17
ATOM     17  O   UNL     1       5.277   5.600  17.663  0.00  0.00    +0.000 OA
BRANCH  17  18
ATOM     18  C   UNL     1       6.424   5.681  18.505  0.00  0.00    +0.000 C 
BRANCH  18  19
ATOM     19  C   UNL     1       7.585   6.241  17.692  0.00  0.00    +0.000 C 
BRANCH  19  20
ATOM     20  C   UNL     1       7.493   7.757  17.525  0.00  0.00    +0.000 C 
BRANCH  20  21
ATOM     21  C   UNL     1       8.460   8.502  18.446  0.00  0.00    +0.000 C 
BRANCH  21  22
ATOM     22  C   UNL     1       8.418  10.005  18.193  0.00  0.00    +0.000 C 
BRANCH  22  23
ATOM     23  C   UNL     1       9.751  10.681  18.544  0.00  0.00    +0.000 C 
BRANCH  23  28
ATOM     24  C   UNL     1      12.321  14.555  17.980  0.00  0.00    +0.000 C 
ATOM     25  C   UNL     1      11.387  13.905  18.998  0.00  0.00    +0.000 C 
ATOM     26  C   UNL     1      11.970  12.573  19.490  0.00  0.00    +0.000 C 
ATOM     27  C   UNL     1      10.970  11.815  20.361  0.00  0.00    +0.000 C 
ATOM     28  N   UNL     1       9.678  11.593  19.696  0.00  0.00    +0.000 NA
ATOM     29  C   UNL     1       9.086  12.889  19.327  0.00  0.00    +0.000 C 
ATOM     30  C   UNL     1       9.982  13.720  18.405  0.00  0.00    +0.000 C 
ENDBRANCH  23  28
ENDBRANCH  22  23
ENDBRANCH  21  22
ENDBRANCH  20  21
ENDBRANCH  19  20
ENDBRANCH  18  19
ENDBRANCH  17  18
ENDBRANCH   1  17
TORSDOF 9
ENDMDL
MODEL 8
REMARK VINA RESULT:      -7.6      0.869      1.625
REMARK  Name = 
REMARK  10 active torsions:
REMARK  status: ('A' for Active; 'I' for Inactive)
REMARK    1  A    between atoms: C_1  and  C_2
REMARK    2  A    between atoms: N_5  and  C_6
REMARK    3  A    between atoms: C_6  and  C_7
REMARK    4  A    between atoms: C_7  and  C_8
REMARK    5  A    between atoms: C_8  and  C_9
REMARK    6  A    between atoms: C_9  and  C_10
REMARK    7  A    between atoms: C_10  and  C_11
REMARK    8  A    between atoms: C_11  and  O_12
REMARK    9  A    between atoms: O_12  and  C_13
REMARK   10  A    between atoms: C_15  and  C_16
REMARK                            x       y       z     vdW  Elec       q    Type
REMARK                         _______ _______ _______ _____ _____    ______ ____
ROOT
ATOM      1  C   UNL     1       3.819   5.830  18.453  0.00  0.00    +0.000 A 
ATOM      2  N   UNL     1       3.237   7.014  18.714  0.00  0.00    +0.000 NA
ATOM      3  C   UNL     1       2.300   7.023  19.673  0.00  0.00    +0.000 A 
ATOM      4  N   UNL     1       1.916   5.930  20.358  0.00  0.00    +0.000 NA
ATOM      5  C   UNL     1       2.523   4.759  20.060  0.00  0.00    +0.000 A 
ATOM      6  C   UNL     1       3.529   4.659  19.115  0.00  0.00    +0.000 A 
ATOM      7  C   UNL     1       4.190   3.360  18.766  0.00  0.00    +0.000 C 
ATOM      8  C   UNL     1       3.948   2.274  19.812  0.00  0.00    +0.000 C 
ATOM      9  C   UNL     1       2.472   2.234  20.194  0.00  0.00    +0.000 C 
ATOM     10  C   UNL     1       2.058   3.557  20.838  0.00  0.00    +0.000 C 
ENDROOT
BRANCH   3  11
ATOM     11  C   UNL     1       1.607   8.300  19.944  0.00  0.00    +0.000 A 
ATOM     12  C   UNL     1       1.355   9.237  18.922  0.00  0.00    +0.000 A 
ATOM     13  C   UNL     1       0.670  10.431  19.180  0.00  0.00    +0.000 A 
ATOM     14  C   UNL     1       0.227  10.715  20.465  0.00  0.00    +0.000 A 
ATOM     15  C   UNL     1       0.475   9.815  21.501  0.00  0.00    +0.000 A 
ATOM     16  C   UNL     1       1.161   8.623  21.238  0.00  0.00    +0.000 A 
ENDBRANCH   3  11
BRANCH   1  17
ATOM     17  O   UNL     1       4.748   5.754  17.430  0.00  0.00    +0.000 OA
BRANCH  17  18
ATOM     18  C   UNL     1       5.370   7.010  17.174  0.00  0.00    +0.000 C 
BRANCH  18  19
ATOM     19  C   UNL     1       6.850   6.772  16.898  0.00  0.00    +0.000 C 
BRANCH  19  20
ATOM     20  C   UNL     1       7.737   7.265  18.040  0.00  0.00    +0.000 C 
BRANCH  20  21
ATOM     21  C   UNL     1       8.049   8.757  17.931  0.00  0.00    +0.000 C 
BRANCH  21  22
ATOM     22  C   UNL     1       8.994   9.208  19.040  0.00  0.00    +0.000 C 
BRANCH  22  23
ATOM     23  C   UNL     1       9.097  10.737  19.116  0.00  0.00    +0.000 C 
BRANCH  23  28
ATOM     24  C   UNL     1      10.817  15.063  19.630  0.00  0.00    +0.000 C 
ATOM     25  C   UNL     1      10.483  14.056  18.532  0.00  0.00    +0.000 C 
ATOM     26  C   UNL     1       8.980  13.744  18.526  0.00  0.00    +0.000 C 
ATOM     27  C   UNL     1       8.652  12.602  17.566  0.00  0.00    +0.000 C 
ATOM     28  N   UNL     1       9.427  11.382  17.834  0.00  0.00    +0.000 NA
ATOM     29  C   UNL     1      10.864  11.680  17.731  0.00  0.00    +0.000 C 
ATOM     30  C   UNL     1      11.323  12.780  18.691  0.00  0.00    +0.000 C 
ENDBRANCH  23  28
ENDBRANCH  22  23
ENDBRANCH  21  22
ENDBRANCH  20  21
ENDBRANCH  19  20
ENDBRANCH  18  19
ENDBRANCH  17  18
ENDBRANCH   1  17
TORSDOF 9
ENDMDL
MODEL 9
REMARK VINA RESULT:      -7.6      4.331      6.758
REMARK  Name = 
REMARK  10 active torsions:
REMARK  status: ('A' for Active; 'I' for Inactive)
REMARK    1  A    between atoms: C_1  and  C_2
REMARK    2  A    between atoms: N_5  and  C_6
REMARK    3  A    between atoms: C_6  and  C_7
REMARK    4  A    between atoms: C_7  and  C_8
REMARK    5  A    between atoms: C_8  and  C_9
REMARK    6  A    between atoms: C_9  and  C_10
REMARK    7  A    between atoms: C_10  and  C_11
REMARK    8  A    between atoms: C_11  and  O_12
REMARK    9  A    between atoms: O_12  and  C_13
REMARK   10  A    between atoms: C_15  and  C_16
REMARK                            x       y       z     vdW  Elec       q    Type
REMARK                         _______ _______ _______ _____ _____    ______ ____
ROOT
ATOM      1  C   UNL     1       4.603   5.041  19.337  0.00  0.00    +0.000 A 
ATOM      2  N   UNL     1       4.087   6.282  19.398  0.00  0.00    +0.000 NA
ATOM      3  C   UNL     1       2.798   6.413  19.051  0.00  0.00    +0.000 A 
ATOM      4  N   UNL     1       2.022   5.391  18.645  0.00  0.00    +0.000 NA
ATOM      5  C   UNL     1       2.582   4.161  18.594  0.00  0.00    +0.000 A 
ATOM      6  C   UNL     1       3.891   3.921  18.970  0.00  0.00    +0.000 A 
ATOM      7  C   UNL     1       4.523   2.564  18.895  0.00  0.00    +0.000 C 
ATOM      8  C   UNL     1       3.496   1.441  18.767  0.00  0.00    +0.000 C 
ATOM      9  C   UNL     1       2.460   1.796  17.706  0.00  0.00    +0.000 C 
ATOM     10  C   UNL     1       1.687   3.047  18.122  0.00  0.00    +0.000 C 
ENDROOT
BRANCH   3  11
ATOM     11  C   UNL     1       2.221   7.773  19.058  0.00  0.00    +0.000 A 
ATOM     12  C   UNL     1       2.286   8.610  17.926  0.00  0.00    +0.000 A 
ATOM     13  C   UNL     1       1.709   9.887  17.929  0.00  0.00    +0.000 A 
ATOM     14  C   UNL     1       1.060  10.354  19.065  0.00  0.00    +0.000 A 
ATOM     15  C   UNL     1       0.993   9.555  20.205  0.00  0.00    +0.000 A 
ATOM     16  C   UNL     1       1.573   8.280  20.198  0.00  0.00    +0.000 A 
ENDBRANCH   3  11
BRANCH   1  17
ATOM     17  O   UNL     1       5.944   4.861  19.624  0.00  0.00    +0.000 OA
BRANCH  17  18
ATOM     18  C   UNL     1       6.784   5.666  18.801  0.00  0.00    +0.000 C 
BRANCH  18  19
ATOM     19  C   UNL     1       7.234   4.834  17.606  0.00  0.00    +0.000 C 
BRANCH  19  20
ATOM     20  C   UNL     1       6.966   5.541  16.278  0.00  0.00    +0.000 C 
BRANCH  20  21
ATOM     21  C   UNL     1       5.495   5.468  15.869  0.00  0.00    +0.000 C 
BRANCH  21  22
ATOM     22  C   UNL     1       5.220   4.238  15.010  0.00  0.00    +0.000 C 
BRANCH  22  23
ATOM     23  C   UNL     1       6.408   3.900  14.099  0.00  0.00    +0.000 C 
BRANCH  23  28
ATOM     24  C   UNL     1       6.246   0.320  11.084  0.00  0.00    +0.000 C 
ATOM     25  C   UNL     1       6.165   1.844  11.100  0.00  0.00    +0.000 C 
ATOM     26  C   UNL     1       7.478   2.448  11.620  0.00  0.00    +0.000 C 
ATOM     27  C   UNL     1       7.355   3.957  11.824  0.00  0.00    +0.000 C 
ATOM     28  N   UNL     1       6.237   4.331  12.702  0.00  0.00    +0.000 NA
ATOM     29  C   UNL     1       4.975   3.833  12.131  0.00  0.00    +0.000 C 
ATOM     30  C   UNL     1       4.961   2.316  11.929  0.00  0.00    +0.000 C 
ENDBRANCH  23  28
ENDBRANCH  22  23
ENDBRANCH  21  22
ENDBRANCH  20  21
ENDBRANCH  19  20
ENDBRANCH  18  19
ENDBRANCH  17  18
ENDBRANCH   1  17
TORSDOF 9
ENDMDL
