MODEL 1
REMARK VINA RESULT:      -7.2      0.000      0.000
REMARK  Name = 
REMARK  2 active torsions:
REMARK  status: ('A' for Active; 'I' for Inactive)
REMARK    1  A    between atoms: N_1  and  C_2
REMARK    2  A    between atoms: C_2  and  C_3
REMARK                            x       y       z     vdW  Elec       q    Type
REMARK                         _______ _______ _______ _____ _____    ______ ____
ROOT
ATOM      1  C   UNL     1       5.795   5.141  17.576  0.00  0.00    +0.000 C 
ATOM      2  C   UNL     1       6.334   5.581  18.965  0.00  0.00    +0.000 C 
ATOM      3  C   UNL     1       7.745   6.167  18.885  0.00  0.00    +0.000 C 
ATOM      4  C   UNL     1       7.789   7.310  17.883  0.00  0.00    +0.000 C 
ATOM      5  N   UNL     1       7.183   6.987  16.614  0.00  0.00    +0.000 N 
ATOM      6  C   UNL     1       5.991   6.288  16.520  0.00  0.00    +0.000 C 
ATOM      7  O   UNL     1       5.253   6.506  15.563  0.00  0.00    +0.000 OA
ATOM      8  H   UNL     1       7.249   7.683  15.880  0.00  0.00    +0.000 HD
ENDROOT
BRANCH   1   9
ATOM      9  C   UNL     1       4.324   4.673  17.646  0.00  0.00    +0.000 A 
ATOM     10  C   UNL     1       3.997   3.321  17.377  0.00  0.00    +0.000 A 
ATOM     11  C   UNL     1       2.682   2.849  17.409  0.00  0.00    +0.000 A 
ATOM     12  C   UNL     1       1.642   3.716  17.710  0.00  0.00    +0.000 A 
ATOM     13  C   UNL     1       1.922   5.055  17.969  0.00  0.00    +0.000 A 
ATOM     14  C   UNL     1       3.242   5.535  17.932  0.00  0.00    +0.000 A 
ATOM     15 CL   UNL     1       3.427   7.230  18.234  0.00  0.00    +0.000 Cl
ENDBRANCH   1   9
BRANCH   1  16
ATOM     16  N   UNL     1       6.688   4.030  17.109  0.00  0.00    +0.000 NA
ATOM     17  H   UNL     1       6.960   4.203  16.144  0.00  0.00    +0.000 HD
ATOM     18  H   UNL     1       6.158   3.159  17.119  0.00  0.00    +0.000 HD
ENDBRANCH   1  16
TORSDOF 2
ENDMDL
MODEL 2
REMARK VINA RESULT:      -7.1      3.074      4.794
REMARK  Name = 
REMARK  2 active torsions:
REMARK  status: ('A' for Active; 'I' for Inactive)
REMARK    1  A    between atoms: N_1  and  C_2
REMARK    2  A    between atoms: C_2  and  C_3
REMARK                            x       y       z     vdW  Elec       q    Type
REMARK                         _______ _______ _______ _____ _____    ______ ____
ROOT
ATOM      1  C   UNL     1       2.995   3.318  18.407  0.00  0.00    +0.000 C 
ATOM      2  C   UNL     1       1.578   3.882  18.702  0.00  0.00    +0.000 C 
ATOM      3  C   UNL     1       0.814   3.036  19.724  0.00  0.00    +0.000 C 
ATOM      4  C   UNL     1       1.628   2.880  20.999  0.00  0.00    +0.000 C 
ATOM      5  N   UNL     1       2.995   2.478  20.764  0.00  0.00    +0.000 N 
ATOM      6  C   UNL     1       3.761   3.021  19.746  0.00  0.00    +0.000 C 
ATOM      7  O   UNL     1       4.977   3.101  19.902  0.00  0.00    +0.000 OA
ATOM      8  H   UNL     1       3.565   2.284  21.579  0.00  0.00    +0.000 HD
ENDROOT
BRANCH   1   9
ATOM      9  C   UNL     1       3.807   4.246  17.476  0.00  0.00    +0.000 A 
ATOM     10  C   UNL     1       4.547   3.699  16.400  0.00  0.00    +0.000 A 
ATOM     11  C   UNL     1       5.313   4.492  15.540  0.00  0.00    +0.000 A 
ATOM     12  C   UNL     1       5.367   5.865  15.727  0.00  0.00    +0.000 A 
ATOM     13  C   UNL     1       4.663   6.438  16.782  0.00  0.00    +0.000 A 
ATOM     14  C   UNL     1       3.897   5.645  17.654  0.00  0.00    +0.000 A 
ATOM     15 CL   UNL     1       3.113   6.496  18.941  0.00  0.00    +0.000 Cl
ENDBRANCH   1   9
BRANCH   1  16
ATOM     16  N   UNL     1       2.791   1.972  17.774  0.00  0.00    +0.000 NA
ATOM     17  H   UNL     1       3.179   1.255  18.382  0.00  0.00    +0.000 HD
ATOM     18  H   UNL     1       3.315   1.941  16.900  0.00  0.00    +0.000 HD
ENDBRANCH   1  16
TORSDOF 2
ENDMDL
MODEL 3
REMARK VINA RESULT:      -6.9      2.657      3.535
REMARK  Name = 
REMARK  2 active torsions:
REMARK  status: ('A' for Active; 'I' for Inactive)
REMARK    1  A    between atoms: N_1  and  C_2
REMARK    2  A    between atoms: C_2  and  C_3
REMARK                            x       y       z     vdW  Elec       q    Type
REMARK                         _______ _______ _______ _____ _____    ______ ____
ROOT
ATOM      1  C   UNL     1       4.254   4.739  17.862  0.00  0.00    +0.000 C 
ATOM      2  C   UNL     1       4.069   4.179  16.424  0.00  0.00    +0.000 C 
ATOM      3  C   UNL     1       5.235   4.544  15.501  0.00  0.00    +0.000 C 
ATOM      4  C   UNL     1       6.554   4.093  16.108  0.00  0.00    +0.000 C 
ATOM      5  N   UNL     1       6.715   4.483  17.489  0.00  0.00    +0.000 N 
ATOM      6  C   UNL     1       5.684   4.389  18.410  0.00  0.00    +0.000 C 
ATOM      7  O   UNL     1       5.964   4.184  19.588  0.00  0.00    +0.000 OA
ATOM      8  H   UNL     1       7.606   4.277  17.925  0.00  0.00    +0.000 HD
ENDROOT
BRANCH   1   9
ATOM      9  C   UNL     1       3.141   4.257  18.819  0.00  0.00    +0.000 A 
ATOM     10  C   UNL     1       2.439   5.193  19.618  0.00  0.00    +0.000 A 
ATOM     11  C   UNL     1       1.437   4.810  20.513  0.00  0.00    +0.000 A 
ATOM     12  C   UNL     1       1.100   3.471  20.644  0.00  0.00    +0.000 A 
ATOM     13  C   UNL     1       1.775   2.520  19.884  0.00  0.00    +0.000 A 
ATOM     14  C   UNL     1       2.788   2.900  18.987  0.00  0.00    +0.000 A 
ATOM     15 CL   UNL     1       3.564   1.600  18.146  0.00  0.00    +0.000 Cl
ENDBRANCH   1   9
BRANCH   1  16
ATOM     16  N   UNL     1       4.244   6.234  17.739  0.00  0.00    +0.000 NA
ATOM     17  H   UNL     1       4.893   6.629  18.415  0.00  0.00    +0.000 HD
ATOM     18  H   UNL     1       3.314   6.574  17.981  0.00  0.00    +0.000 HD
ENDBRANCH   1  16
TORSDOF 2
ENDMDL
MODEL 4
REMARK VINA RESULT:      -6.8      2.082      2.679
REMARK  Name = 
REMARK  2 active torsions:
REMARK  status: ('A' for Active; 'I' for Inactive)
REMARK    1  A    between atoms: N_1  and  C_2
REMARK    2  A    between atoms: C_2  and  C_3
REMARK                            x       y       z     vdW  Elec       q    Type
REMARK                         _______ _______ _______ _____ _____    ______ ____
ROOT
ATOM      1  C   UNL     1       5.061   4.382  18.541  0.00  0.00    +0.000 C 
ATOM      2  C   UNL     1       6.323   5.288  18.582  0.00  0.00    +0.000 C 
ATOM      3  C   UNL     1       7.491   4.697  17.787  0.00  0.00    +0.000 C 
ATOM      4  C   UNL     1       7.064   4.401  16.358  0.00  0.00    +0.000 C 
ATOM      5  N   UNL     1       5.824   3.668  16.268  0.00  0.00    +0.000 N 
ATOM      6  C   UNL     1       4.730   3.964  17.063  0.00  0.00    +0.000 C 
ATOM      7  O   UNL     1       3.604   3.751  16.621  0.00  0.00    +0.000 OA
ATOM      8  H   UNL     1       5.528   3.374  15.344  0.00  0.00    +0.000 HD
ENDROOT
BRANCH   1   9
ATOM      9  C   UNL     1       3.849   5.044  19.234  0.00  0.00    +0.000 A 
ATOM     10  C   UNL     1       3.173   4.368  20.278  0.00  0.00    +0.000 A 
ATOM     11  C   UNL     1       2.061   4.913  20.926  0.00  0.00    +0.000 A 
ATOM     12  C   UNL     1       1.582   6.159  20.550  0.00  0.00    +0.000 A 
ATOM     13  C   UNL     1       2.213   6.850  19.519  0.00  0.00    +0.000 A 
ATOM     14  C   UNL     1       3.327   6.303  18.860  0.00  0.00    +0.000 A 
ATOM     15 CL   UNL     1       3.976   7.261  17.573  0.00  0.00    +0.000 Cl
ENDBRANCH   1   9
BRANCH   1  16
ATOM     16  N   UNL     1       5.436   3.103  19.229  0.00  0.00    +0.000 NA
ATOM     17  H   UNL     1       6.133   3.300  19.944  0.00  0.00    +0.000 HD
ATOM     18  H   UNL     1       5.873   2.482  18.548  0.00  0.00    +0.000 HD
ENDBRANCH   1  16
TORSDOF 2
ENDMDL
MODEL 5
REMARK VINA RESULT:      -6.6      2.177      4.765
REMARK  Name = 
REMARK  2 active torsions:
REMARK  status: ('A' for Active; 'I' for Inactive)
REMARK    1  A    between atoms: N_1  and  C_2
REMARK    2  A    between atoms: C_2  and  C_3
REMARK                            x       y       z     vdW  Elec       q    Type
REMARK                         _______ _______ _______ _____ _____    ______ ____
ROOT
ATOM      1  C   UNL     1       4.712   4.322  18.517  0.00  0.00    +0.000 C 
ATOM      2  C   UNL     1       4.350   3.649  17.164  0.00  0.00    +0.000 C 
ATOM      3  C   UNL     1       3.136   2.724  17.277  0.00  0.00    +0.000 C 
ATOM      4  C   UNL     1       1.949   3.476  17.859  0.00  0.00    +0.000 C 
ATOM      5  N   UNL     1       2.270   4.222  19.053  0.00  0.00    +0.000 N 
ATOM      6  C   UNL     1       3.435   4.961  19.173  0.00  0.00    +0.000 C 
ATOM      7  O   UNL     1       3.427   5.963  19.882  0.00  0.00    +0.000 OA
ATOM      8  H   UNL     1       1.502   4.682  19.529  0.00  0.00    +0.000 HD
ENDROOT
BRANCH   1   9
ATOM      9  C   UNL     1       5.854   5.350  18.366  0.00  0.00    +0.000 A 
ATOM     10  C   UNL     1       6.982   5.287  19.220  0.00  0.00    +0.000 A 
ATOM     11  C   UNL     1       8.035   6.203  19.139  0.00  0.00    +0.000 A 
ATOM     12  C   UNL     1       7.995   7.222  18.198  0.00  0.00    +0.000 A 
ATOM     13  C   UNL     1       6.897   7.324  17.348  0.00  0.00    +0.000 A 
ATOM     14  C   UNL     1       5.834   6.409  17.431  0.00  0.00    +0.000 A 
ATOM     15 CL   UNL     1       4.522   6.692  16.337  0.00  0.00    +0.000 Cl
ENDBRANCH   1   9
BRANCH   1  16
ATOM     16  N   UNL     1       5.109   3.214  19.447  0.00  0.00    +0.000 NA
ATOM     17  H   UNL     1       5.342   3.608  20.356  0.00  0.00    +0.000 HD
ATOM     18  H   UNL     1       5.954   2.772  19.086  0.00  0.00    +0.000 HD
ENDBRANCH   1  16
TORSDOF 2
ENDMDL
MODEL 6
REMARK VINA RESULT:      -6.6      3.459      5.131
REMARK  Name = 
REMARK  2 active torsions:
REMARK  status: ('A' for Active; 'I' for Inactive)
REMARK    1  A    between atoms: N_1  and  C_2
REMARK    2  A    between atoms: C_2  and  C_3
REMARK                            x       y       z     vdW  Elec       q    Type
REMARK                         _______ _______ _______ _____ _____    ______ ____
ROOT
ATOM      1  C   UNL     1       2.657   4.678  19.224  0.00  0.00    +0.000 C 
ATOM      2  C   UNL     1       3.330   3.947  20.418  0.00  0.00    +0.000 C 
ATOM      3  C   UNL     1       2.339   3.626  21.540  0.00  0.00    +0.000 C 
ATOM      4  C   UNL     1       1.159   2.836  20.996  0.00  0.00    +0.000 C 
ATOM      5  N   UNL     1       0.579   3.412  19.807  0.00  0.00    +0.000 N 
ATOM      6  C   UNL     1       1.354   3.922  18.778  0.00  0.00    +0.000 C 
ATOM      7  O   UNL     1       0.915   3.878  17.632  0.00  0.00    +0.000 OA
ATOM      8  H   UNL     1      -0.258   2.972  19.442  0.00  0.00    +0.000 HD
ENDROOT
BRANCH   1   9
ATOM      9  C   UNL     1       3.634   4.881  18.044  0.00  0.00    +0.000 A 
ATOM     10  C   UNL     1       3.966   6.189  17.616  0.00  0.00    +0.000 A 
ATOM     11  C   UNL     1       4.829   6.429  16.543  0.00  0.00    +0.000 A 
ATOM     12  C   UNL     1       5.391   5.364  15.855  0.00  0.00    +0.000 A 
ATOM     13  C   UNL     1       5.078   4.062  16.238  0.00  0.00    +0.000 A 
ATOM     14  C   UNL     1       4.206   3.817  17.312  0.00  0.00    +0.000 A 
ATOM     15 CL   UNL     1       3.882   2.148  17.642  0.00  0.00    +0.000 Cl
ENDBRANCH   1   9
BRANCH   1  16
ATOM     16  N   UNL     1       2.177   5.997  19.753  0.00  0.00    +0.000 NA
ATOM     17  H   UNL     1       1.863   6.574  18.975  0.00  0.00    +0.000 HD
ATOM     18  H   UNL     1       2.962   6.480  20.187  0.00  0.00    +0.000 HD
ENDBRANCH   1  16
TORSDOF 2
ENDMDL
MODEL 7
REMARK VINA RESULT:      -6.6      2.574      3.163
REMARK  Name = 
REMARK  2 active torsions:
REMARK  status: ('A' for Active; 'I' for Inactive)
REMARK    1  A    between atoms: N_1  and  C_2
REMARK    2  A    between atoms: C_2  and  C_3
REMARK                            x       y       z     vdW  Elec       q    Type
REMARK                         _______ _______ _______ _____ _____    ______ ____
ROOT
ATOM      1  C   UNL     1       4.409   4.266  18.544  0.00  0.00    +0.000 C 
ATOM      2  C   UNL     1       4.375   5.799  18.293  0.00  0.00    +0.000 C 
ATOM      3  C   UNL     1       5.436   6.250  17.287  0.00  0.00    +0.000 C 
ATOM      4  C   UNL     1       5.302   5.470  15.989  0.00  0.00    +0.000 C 
ATOM      5  N   UNL     1       5.202   4.043  16.182  0.00  0.00    +0.000 N 
ATOM      6  C   UNL     1       4.424   3.484  17.181  0.00  0.00    +0.000 C 
ATOM      7  O   UNL     1       3.926   2.378  16.992  0.00  0.00    +0.000 OA
ATOM      8  H   UNL     1       5.188   3.465  15.349  0.00  0.00    +0.000 HD
ENDROOT
BRANCH   1   9
ATOM      9  C   UNL     1       3.254   3.801  19.459  0.00  0.00    +0.000 A 
ATOM     10  C   UNL     1       3.538   3.163  20.691  0.00  0.00    +0.000 A 
ATOM     11  C   UNL     1       2.531   2.707  21.546  0.00  0.00    +0.000 A 
ATOM     12  C   UNL     1       1.199   2.872  21.198  0.00  0.00    +0.000 A 
ATOM     13  C   UNL     1       0.880   3.484  19.989  0.00  0.00    +0.000 A 
ATOM     14  C   UNL     1       1.889   3.938  19.123  0.00  0.00    +0.000 A 
ATOM     15 CL   UNL     1       1.336   4.640  17.639  0.00  0.00    +0.000 Cl
ENDBRANCH   1   9
BRANCH   1  16
ATOM     16  N   UNL     1       5.740   3.970  19.172  0.00  0.00    +0.000 NA
ATOM     17  H   UNL     1       5.823   2.967  19.321  0.00  0.00    +0.000 HD
ATOM     18  H   UNL     1       5.773   4.413  20.089  0.00  0.00    +0.000 HD
ENDBRANCH   1  16
TORSDOF 2
ENDMDL
MODEL 8
REMARK VINA RESULT:      -6.5      2.965      4.678
REMARK  Name = 
REMARK  2 active torsions:
REMARK  status: ('A' for Active; 'I' for Inactive)
REMARK    1  A    between atoms: N_1  and  C_2
REMARK    2  A    between atoms: C_2  and  C_3
REMARK                            x       y       z     vdW  Elec       q    Type
REMARK                         _______ _______ _______ _____ _____    ______ ____
ROOT
ATOM      1  C   UNL     1       3.618   4.125  18.395  0.00  0.00    +0.000 C 
ATOM      2  C   UNL     1       3.070   5.486  18.906  0.00  0.00    +0.000 C 
ATOM      3  C   UNL     1       1.929   5.315  19.912  0.00  0.00    +0.000 C 
ATOM      4  C   UNL     1       2.365   4.423  21.063  0.00  0.00    +0.000 C 
ATOM      5  N   UNL     1       2.997   3.198  20.634  0.00  0.00    +0.000 N 
ATOM      6  C   UNL     1       3.918   3.163  19.600  0.00  0.00    +0.000 C 
ATOM      7  O   UNL     1       4.801   2.311  19.626  0.00  0.00    +0.000 OA
ATOM      8  H   UNL     1       3.240   2.528  21.355  0.00  0.00    +0.000 HD
ENDROOT
BRANCH   1   9
ATOM      9  C   UNL     1       4.852   4.302  17.483  0.00  0.00    +0.000 A 
ATOM     10  C   UNL     1       4.811   3.853  16.140  0.00  0.00    +0.000 A 
ATOM     11  C   UNL     1       5.905   3.973  15.278  0.00  0.00    +0.000 A 
ATOM     12  C   UNL     1       7.084   4.545  15.730  0.00  0.00    +0.000 A 
ATOM     13  C   UNL     1       7.167   4.988  17.047  0.00  0.00    +0.000 A 
ATOM     14  C   UNL     1       6.072   4.865  17.920  0.00  0.00    +0.000 A 
ATOM     15 CL   UNL     1       6.341   5.421  19.537  0.00  0.00    +0.000 Cl
ENDBRANCH   1   9
BRANCH   1  16
ATOM     16  N   UNL     1       2.492   3.470  17.650  0.00  0.00    +0.000 NA
ATOM     17  H   UNL     1       2.096   4.135  16.990  0.00  0.00    +0.000 HD
ATOM     18  H   UNL     1       1.756   3.232  18.314  0.00  0.00    +0.000 HD
ENDBRANCH   1  16
TORSDOF 2
ENDMDL
MODEL 9
REMARK VINA RESULT:      -6.5      2.577      4.692
REMARK  Name = 
REMARK  2 active torsions:
REMARK  status: ('A' for Active; 'I' for Inactive)
REMARK    1  A    between atoms: N_1  and  C_2
REMARK    2  A    between atoms: C_2  and  C_3
REMARK                            x       y       z     vdW  Elec       q    Type
REMARK                         _______ _______ _______ _____ _____    ______ ____
ROOT
ATOM      1  C   UNL     1       4.201   3.603  18.489  0.00  0.00    +0.000 C 
ATOM      2  C   UNL     1       3.292   2.482  17.913  0.00  0.00    +0.000 C 
ATOM      3  C   UNL     1       2.270   1.977  18.935  0.00  0.00    +0.000 C 
ATOM      4  C   UNL     1       1.449   3.134  19.481  0.00  0.00    +0.000 C 
ATOM      5  N   UNL     1       2.250   4.255  19.913  0.00  0.00    +0.000 N 
ATOM      6  C   UNL     1       3.334   4.714  19.184  0.00  0.00    +0.000 C 
ATOM      7  O   UNL     1       3.622   5.906  19.243  0.00  0.00    +0.000 OA
ATOM      8  H   UNL     1       1.764   5.025  20.357  0.00  0.00    +0.000 HD
ENDROOT
BRANCH   1   9
ATOM      9  C   UNL     1       5.140   4.197  17.416  0.00  0.00    +0.000 A 
ATOM     10  C   UNL     1       4.893   3.952  16.043  0.00  0.00    +0.000 A 
ATOM     11  C   UNL     1       5.721   4.449  15.033  0.00  0.00    +0.000 A 
ATOM     12  C   UNL     1       6.832   5.212  15.361  0.00  0.00    +0.000 A 
ATOM     13  C   UNL     1       7.115   5.465  16.700  0.00  0.00    +0.000 A 
ATOM     14  C   UNL     1       6.289   4.961  17.720  0.00  0.00    +0.000 A 
ATOM     15 CL   UNL     1       6.795   5.324  19.335  0.00  0.00    +0.000 Cl
ENDBRANCH   1   9
BRANCH   1  16
ATOM     16  N   UNL     1       4.990   2.977  19.602  0.00  0.00    +0.000 NA
ATOM     17  H   UNL     1       4.475   3.078  20.474  0.00  0.00    +0.000 HD
ATOM     18  H   UNL     1       5.865   3.489  19.710  0.00  0.00    +0.000 HD
ENDBRANCH   1  16
TORSDOF 2
ENDMDL
