MODEL 1
REMARK VINA RESULT:      -8.1      0.000      0.000
REMARK  Name = 
REMARK  6 active torsions:
REMARK  status: ('A' for Active; 'I' for Inactive)
REMARK    1  A    between atoms: C_2  and  C_22
REMARK    2  A    between atoms: N_3  and  C_4
REMARK    3  A    between atoms: C_4  and  C_5
REMARK    4  A    between atoms: C_5  and  N_6
REMARK    5  A    between atoms: N_9  and  C_10
REMARK    6  A    between atoms: C_18  and  O_19
REMARK                            x       y       z     vdW  Elec       q    Type
REMARK                         _______ _______ _______ _____ _____    ______ ____
ROOT
ATOM      1  N   UNL     1       7.089   6.901  18.160  0.00  0.00    +0.000 NA
ATOM      2  C   UNL     1       5.640   6.841  17.867  0.00  0.00    +0.000 C 
ATOM      3  C   UNL     1       5.138   5.670  16.989  0.00  0.00    +0.000 C 
ATOM      4  N   UNL     1       5.671   4.341  17.391  0.00  0.00    +0.000 NA
ATOM      5  C   UNL     1       7.137   4.488  17.282  0.00  0.00    +0.000 C 
ATOM      6  C   UNL     1       7.733   5.570  18.205  0.00  0.00    +0.000 C 
ENDROOT
BRANCH   4   7
ATOM      7  C   UNL     1       5.166   3.984  18.756  0.00  0.00    +0.000 C 
ATOM      8  C   UNL     1       4.293   5.148  19.328  0.00  0.00    +0.000 C 
ATOM      9  C   UNL     1       2.999   4.505  19.700  0.00  0.00    +0.000 A 
ATOM     10  C   UNL     1       1.863   5.145  20.167  0.00  0.00    +0.000 A 
ATOM     11  C   UNL     1       0.736   4.375  20.451  0.00  0.00    +0.000 A 
ATOM     12  C   UNL     1       0.761   2.985  20.270  0.00  0.00    +0.000 A 
ATOM     13  C   UNL     1       1.915   2.352  19.806  0.00  0.00    +0.000 A 
ATOM     14  C   UNL     1       3.029   3.126  19.520  0.00  0.00    +0.000 A 
ATOM     15  C   UNL     1       4.368   2.655  19.046  0.00  0.00    +0.000 C 
BRANCH  15  16
ATOM     16  O   UNL     1       4.222   1.771  17.951  0.00  0.00    +0.000 OA
ATOM     17  H   UNL     1       3.367   1.328  18.085  0.00  0.00    +0.000 HD
ENDBRANCH  15  16
ENDBRANCH   4   7
BRANCH   1  18
ATOM     18  C   UNL     1       7.793   7.829  17.266  0.00  0.00    +0.000 C 
BRANCH  18  19
ATOM     19  C   UNL     1       7.747   9.282  17.788  0.00  0.00    +0.000 C 
BRANCH  19  22
ATOM     20  O   UNL     1       8.783  11.865  17.872  0.00  0.00    +0.000 OA
ATOM     21  C   UNL     1       9.417  10.971  18.423  0.00  0.00    +0.000 C 
ATOM     22  N   UNL     1       8.971   9.664  18.449  0.00  0.00    +0.000 N 
ATOM     23  H   UNL     1       9.558   8.943  18.848  0.00  0.00    +0.000 HD
BRANCH  21  24
ATOM     24  C   UNL     1      10.777  11.149  19.141  0.00  0.00    +0.000 C 
ATOM     25  C   UNL     1      11.853  11.965  18.378  0.00  0.00    +0.000 C 
ATOM     26  C   UNL     1      12.310  12.512  19.743  0.00  0.00    +0.000 C 
ATOM     27  C   UNL     1      10.887  12.219  20.259  0.00  0.00    +0.000 C 
ENDBRANCH  21  24
ENDBRANCH  19  22
ENDBRANCH  18  19
ENDBRANCH   1  18
TORSDOF 6
ENDMDL
MODEL 2
REMARK VINA RESULT:      -7.8      4.930      7.073
REMARK  Name = 
REMARK  6 active torsions:
REMARK  status: ('A' for Active; 'I' for Inactive)
REMARK    1  A    between atoms: C_2  and  C_22
REMARK    2  A    between atoms: N_3  and  C_4
REMARK    3  A    between atoms: C_4  and  C_5
REMARK    4  A    between atoms: C_5  and  N_6
REMARK    5  A    between atoms: N_9  and  C_10
REMARK    6  A    between atoms: C_18  and  O_19
REMARK                            x       y       z     vdW  Elec       q    Type
REMARK                         _______ _______ _______ _____ _____    ______ ____
ROOT
ATOM      1  N   UNL     1       5.650   5.425  17.814  0.00  0.00    +0.000 NA
ATOM      2  C   UNL     1       4.530   5.943  16.998  0.00  0.00    +0.000 C 
ATOM      3  C   UNL     1       3.098   5.519  17.400  0.00  0.00    +0.000 C 
ATOM      4  N   UNL     1       2.818   5.641  18.856  0.00  0.00    +0.000 NA
ATOM      5  C   UNL     1       3.823   4.770  19.497  0.00  0.00    +0.000 C 
ATOM      6  C   UNL     1       5.283   5.187  19.228  0.00  0.00    +0.000 C 
ENDROOT
BRANCH   4   7
ATOM      7  C   UNL     1       2.872   7.083  19.263  0.00  0.00    +0.000 C 
ATOM      8  C   UNL     1       2.454   7.996  18.064  0.00  0.00    +0.000 C 
ATOM      9  C   UNL     1       1.355   8.850  18.602  0.00  0.00    +0.000 A 
ATOM     10  C   UNL     1       0.594   9.762  17.890  0.00  0.00    +0.000 A 
ATOM     11  C   UNL     1      -0.404  10.463  18.564  0.00  0.00    +0.000 A 
ATOM     12  C   UNL     1      -0.623  10.250  19.932  0.00  0.00    +0.000 A 
ATOM     13  C   UNL     1       0.157   9.334  20.640  0.00  0.00    +0.000 A 
ATOM     14  C   UNL     1       1.143   8.636  19.960  0.00  0.00    +0.000 A 
ATOM     15  C   UNL     1       2.106   7.639  20.525  0.00  0.00    +0.000 C 
BRANCH  15  16
ATOM     16  O   UNL     1       1.422   6.677  21.305  0.00  0.00    +0.000 OA
ATOM     17  H   UNL     1       0.588   7.102  21.571  0.00  0.00    +0.000 HD
ENDBRANCH  15  16
ENDBRANCH   4   7
BRANCH   1  18
ATOM     18  C   UNL     1       6.283   4.252  17.200  0.00  0.00    +0.000 C 
BRANCH  18  19
ATOM     19  C   UNL     1       7.217   4.643  16.033  0.00  0.00    +0.000 C 
BRANCH  19  22
ATOM     20  O   UNL     1       7.985   5.644  13.551  0.00  0.00    +0.000 OA
ATOM     21  C   UNL     1       7.156   4.740  13.578  0.00  0.00    +0.000 C 
ATOM     22  N   UNL     1       6.730   4.169  14.760  0.00  0.00    +0.000 N 
ATOM     23  H   UNL     1       5.991   3.478  14.745  0.00  0.00    +0.000 HD
BRANCH  21  24
ATOM     24  C   UNL     1       6.465   4.122  12.337  0.00  0.00    +0.000 C 
ATOM     25  C   UNL     1       6.875   2.671  11.976  0.00  0.00    +0.000 C 
ATOM     26  C   UNL     1       5.419   2.441  11.531  0.00  0.00    +0.000 C 
ATOM     27  C   UNL     1       5.020   3.580  12.490  0.00  0.00    +0.000 C 
ENDBRANCH  21  24
ENDBRANCH  19  22
ENDBRANCH  18  19
ENDBRANCH   1  18
TORSDOF 6
ENDMDL
MODEL 3
REMARK VINA RESULT:      -7.8      4.631      7.119
REMARK  Name = 
REMARK  6 active torsions:
REMARK  status: ('A' for Active; 'I' for Inactive)
REMARK    1  A    between atoms: C_2  and  C_22
REMARK    2  A    between atoms: N_3  and  C_4
REMARK    3  A    between atoms: C_4  and  C_5
REMARK    4  A    between atoms: C_5  and  N_6
REMARK    5  A    between atoms: N_9  and  C_10
REMARK    6  A    between atoms: C_18  and  O_19
REMARK                            x       y       z     vdW  Elec       q    Type
REMARK                         _______ _______ _______ _____ _____    ______ ____
ROOT
ATOM      1  N   UNL     1       5.609   5.696  18.642  0.00  0.00    +0.000 NA
ATOM      2  C   UNL     1       5.151   6.599  17.563  0.00  0.00    +0.000 C 
ATOM      3  C   UNL     1       3.682   6.466  17.098  0.00  0.00    +0.000 C 
ATOM      4  N   UNL     1       2.698   6.401  18.213  0.00  0.00    +0.000 NA
ATOM      5  C   UNL     1       3.110   5.218  18.995  0.00  0.00    +0.000 C 
ATOM      6  C   UNL     1       4.532   5.314  19.583  0.00  0.00    +0.000 C 
ENDROOT
BRANCH   4   7
ATOM      7  C   UNL     1       2.701   7.696  18.968  0.00  0.00    +0.000 C 
ATOM      8  C   UNL     1       2.239   8.863  18.035  0.00  0.00    +0.000 C 
ATOM      9  C   UNL     1       1.113   9.512  18.767  0.00  0.00    +0.000 A 
ATOM     10  C   UNL     1       0.312  10.543  18.304  0.00  0.00    +0.000 A 
ATOM     11  C   UNL     1      -0.707  11.014  19.131  0.00  0.00    +0.000 A 
ATOM     12  C   UNL     1      -0.907  10.457  20.401  0.00  0.00    +0.000 A 
ATOM     13  C   UNL     1      -0.087   9.424  20.859  0.00  0.00    +0.000 A 
ATOM     14  C   UNL     1       0.919   8.957  20.028  0.00  0.00    +0.000 A 
ATOM     15  C   UNL     1       1.925   7.889  20.327  0.00  0.00    +0.000 C 
BRANCH  15  16
ATOM     16  O   UNL     1       1.284   6.736  20.840  0.00  0.00    +0.000 OA
ATOM     17  H   UNL     1       0.617   7.066  21.468  0.00  0.00    +0.000 HD
ENDBRANCH  15  16
ENDBRANCH   4   7
BRANCH   1  18
ATOM     18  C   UNL     1       6.327   4.529  18.115  0.00  0.00    +0.000 C 
BRANCH  18  19
ATOM     19  C   UNL     1       7.076   4.853  16.804  0.00  0.00    +0.000 C 
BRANCH  19  22
ATOM     20  O   UNL     1       7.348   5.490  14.107  0.00  0.00    +0.000 OA
ATOM     21  C   UNL     1       6.807   4.428  14.398  0.00  0.00    +0.000 C 
ATOM     22  N   UNL     1       6.646   4.020  15.707  0.00  0.00    +0.000 N 
ATOM     23  H   UNL     1       6.128   3.175  15.908  0.00  0.00    +0.000 HD
BRANCH  21  24
ATOM     24  C   UNL     1       6.223   3.413  13.384  0.00  0.00    +0.000 C 
ATOM     25  C   UNL     1       4.811   3.734  12.829  0.00  0.00    +0.000 C 
ATOM     26  C   UNL     1       5.274   3.131  11.490  0.00  0.00    +0.000 C 
ATOM     27  C   UNL     1       6.716   3.471  11.915  0.00  0.00    +0.000 C 
ENDBRANCH  21  24
ENDBRANCH  19  22
ENDBRANCH  18  19
ENDBRANCH   1  18
TORSDOF 6
ENDMDL
MODEL 4
REMARK VINA RESULT:      -7.7      4.514      7.566
REMARK  Name = 
REMARK  6 active torsions:
REMARK  status: ('A' for Active; 'I' for Inactive)
REMARK    1  A    between atoms: C_2  and  C_22
REMARK    2  A    between atoms: N_3  and  C_4
REMARK    3  A    between atoms: C_4  and  C_5
REMARK    4  A    between atoms: C_5  and  N_6
REMARK    5  A    between atoms: N_9  and  C_10
REMARK    6  A    between atoms: C_18  and  O_19
REMARK                            x       y       z     vdW  Elec       q    Type
REMARK                         _______ _______ _______ _____ _____    ______ ____
ROOT
ATOM      1  N   UNL     1       4.025   4.122  19.660  0.00  0.00    +0.000 NA
ATOM      2  C   UNL     1       3.358   4.033  18.342  0.00  0.00    +0.000 C 
ATOM      3  C   UNL     1       3.491   5.246  17.392  0.00  0.00    +0.000 C 
ATOM      4  N   UNL     1       4.878   5.769  17.269  0.00  0.00    +0.000 NA
ATOM      5  C   UNL     1       5.252   6.139  18.649  0.00  0.00    +0.000 C 
ATOM      6  C   UNL     1       5.244   4.961  19.643  0.00  0.00    +0.000 C 
ENDROOT
BRANCH   4   7
ATOM      7  C   UNL     1       5.755   4.736  16.628  0.00  0.00    +0.000 C 
ATOM      8  C   UNL     1       4.953   3.954  15.536  0.00  0.00    +0.000 C 
ATOM      9  C   UNL     1       5.776   4.076  14.298  0.00  0.00    +0.000 A 
ATOM     10  C   UNL     1       5.439   3.624  13.034  0.00  0.00    +0.000 A 
ATOM     11  C   UNL     1       6.336   3.841  11.989  0.00  0.00    +0.000 A 
ATOM     12  C   UNL     1       7.552   4.499  12.222  0.00  0.00    +0.000 A 
ATOM     13  C   UNL     1       7.883   4.942  13.503  0.00  0.00    +0.000 A 
ATOM     14  C   UNL     1       6.983   4.728  14.535  0.00  0.00    +0.000 A 
ATOM     15  C   UNL     1       7.148   5.089  15.978  0.00  0.00    +0.000 C 
BRANCH  15  16
ATOM     16  O   UNL     1       7.566   6.435  16.106  0.00  0.00    +0.000 OA
ATOM     17  H   UNL     1       6.911   6.857  16.689  0.00  0.00    +0.000 HD
ENDBRANCH  15  16
ENDBRANCH   4   7
BRANCH   1  18
ATOM     18  C   UNL     1       3.093   4.517  20.723  0.00  0.00    +0.000 C 
BRANCH  18  19
ATOM     19  C   UNL     1       1.834   5.212  20.159  0.00  0.00    +0.000 C 
BRANCH  19  22
ATOM     20  O   UNL     1       2.171   7.835  19.286  0.00  0.00    +0.000 OA
ATOM     21  C   UNL     1       1.696   7.654  20.404  0.00  0.00    +0.000 C 
ATOM     22  N   UNL     1       1.475   6.390  20.912  0.00  0.00    +0.000 N 
ATOM     23  H   UNL     1       1.153   6.283  21.865  0.00  0.00    +0.000 HD
BRANCH  21  24
ATOM     24  C   UNL     1       1.296   8.772  21.397  0.00  0.00    +0.000 C 
ATOM     25  C   UNL     1       0.687  10.056  20.775  0.00  0.00    +0.000 C 
ATOM     26  C   UNL     1      -0.219  10.147  22.017  0.00  0.00    +0.000 C 
ATOM     27  C   UNL     1      -0.038   8.625  22.176  0.00  0.00    +0.000 C 
ENDBRANCH  21  24
ENDBRANCH  19  22
ENDBRANCH  18  19
ENDBRANCH   1  18
TORSDOF 6
ENDMDL
MODEL 5
REMARK VINA RESULT:      -7.6      1.297      1.521
REMARK  Name = 
REMARK  6 active torsions:
REMARK  status: ('A' for Active; 'I' for Inactive)
REMARK    1  A    between atoms: C_2  and  C_22
REMARK    2  A    between atoms: N_3  and  C_4
REMARK    3  A    between atoms: C_4  and  C_5
REMARK    4  A    between atoms: C_5  and  N_6
REMARK    5  A    between atoms: N_9  and  C_10
REMARK    6  A    between atoms: C_18  and  O_19
REMARK                            x       y       z     vdW  Elec       q    Type
REMARK                         _______ _______ _______ _____ _____    ______ ____
ROOT
ATOM      1  N   UNL     1       7.155   7.252  18.153  0.00  0.00    +0.000 NA
ATOM      2  C   UNL     1       5.974   7.076  17.280  0.00  0.00    +0.000 C 
ATOM      3  C   UNL     1       5.743   5.675  16.666  0.00  0.00    +0.000 C 
ATOM      4  N   UNL     1       5.876   4.558  17.640  0.00  0.00    +0.000 NA
ATOM      5  C   UNL     1       7.254   4.685  18.156  0.00  0.00    +0.000 C 
ATOM      6  C   UNL     1       7.538   6.019  18.876  0.00  0.00    +0.000 C 
ENDROOT
BRANCH   4   7
ATOM      7  C   UNL     1       4.797   4.658  18.676  0.00  0.00    +0.000 C 
ATOM      8  C   UNL     1       3.439   5.043  18.003  0.00  0.00    +0.000 C 
ATOM      9  C   UNL     1       2.481   3.990  18.448  0.00  0.00    +0.000 A 
ATOM     10  C   UNL     1       1.165   3.845  18.041  0.00  0.00    +0.000 A 
ATOM     11  C   UNL     1       0.424   2.785  18.559  0.00  0.00    +0.000 A 
ATOM     12  C   UNL     1       1.000   1.894  19.474  0.00  0.00    +0.000 A 
ATOM     13  C   UNL     1       2.325   2.057  19.883  0.00  0.00    +0.000 A 
ATOM     14  C   UNL     1       3.058   3.109  19.358  0.00  0.00    +0.000 A 
ATOM     15  C   UNL     1       4.471   3.485  19.679  0.00  0.00    +0.000 C 
BRANCH  15  16
ATOM     16  O   UNL     1       5.314   2.352  19.598  0.00  0.00    +0.000 OA
ATOM     17  H   UNL     1       4.759   1.638  19.237  0.00  0.00    +0.000 HD
ENDBRANCH  15  16
ENDBRANCH   4   7
BRANCH   1  18
ATOM     18  C   UNL     1       8.287   7.848  17.433  0.00  0.00    +0.000 C 
BRANCH  18  19
ATOM     19  C   UNL     1       8.269   9.391  17.504  0.00  0.00    +0.000 C 
BRANCH  19  22
ATOM     20  O   UNL     1       9.247  11.965  17.919  0.00  0.00    +0.000 OA
ATOM     21  C   UNL     1       9.277  11.177  18.860  0.00  0.00    +0.000 C 
ATOM     22  N   UNL     1       8.796   9.888  18.752  0.00  0.00    +0.000 N 
ATOM     23  H   UNL     1       8.907   9.246  19.527  0.00  0.00    +0.000 HD
BRANCH  21  24
ATOM     24  C   UNL     1       9.850  11.483  20.266  0.00  0.00    +0.000 C 
ATOM     25  C   UNL     1      10.222  12.962  20.548  0.00  0.00    +0.000 C 
ATOM     26  C   UNL     1       9.753  12.734  21.997  0.00  0.00    +0.000 C 
ATOM     27  C   UNL     1       8.861  11.599  21.456  0.00  0.00    +0.000 C 
ENDBRANCH  21  24
ENDBRANCH  19  22
ENDBRANCH  18  19
ENDBRANCH   1  18
TORSDOF 6
ENDMDL
MODEL 6
REMARK VINA RESULT:      -7.5      1.647      1.903
REMARK  Name = 
REMARK  6 active torsions:
REMARK  status: ('A' for Active; 'I' for Inactive)
REMARK    1  A    between atoms: C_2  and  C_22
REMARK    2  A    between atoms: N_3  and  C_4
REMARK    3  A    between atoms: C_4  and  C_5
REMARK    4  A    between atoms: C_5  and  N_6
REMARK    5  A    between atoms: N_9  and  C_10
REMARK    6  A    between atoms: C_18  and  O_19
REMARK                            x       y       z     vdW  Elec       q    Type
REMARK                         _______ _______ _______ _____ _____    ______ ____
ROOT
ATOM      1  N   UNL     1       7.110   7.782  18.193  0.00  0.00    +0.000 NA
ATOM      2  C   UNL     1       5.894   7.765  17.351  0.00  0.00    +0.000 C 
ATOM      3  C   UNL     1       5.609   6.481  16.535  0.00  0.00    +0.000 C 
ATOM      4  N   UNL     1       5.753   5.224  17.316  0.00  0.00    +0.000 NA
ATOM      5  C   UNL     1       7.151   5.245  17.790  0.00  0.00    +0.000 C 
ATOM      6  C   UNL     1       7.491   6.444  18.698  0.00  0.00    +0.000 C 
ENDROOT
BRANCH   4   7
ATOM      7  C   UNL     1       4.715   5.177  18.396  0.00  0.00    +0.000 C 
ATOM      8  C   UNL     1       3.290   5.376  17.782  0.00  0.00    +0.000 C 
ATOM      9  C   UNL     1       2.502   4.203  18.261  0.00  0.00    +0.000 A 
ATOM     10  C   UNL     1       1.202   3.882  17.908  0.00  0.00    +0.000 A 
ATOM     11  C   UNL     1       0.632   2.732  18.450  0.00  0.00    +0.000 A 
ATOM     12  C   UNL     1       1.361   1.926  19.336  0.00  0.00    +0.000 A 
ATOM     13  C   UNL     1       2.668   2.266  19.690  0.00  0.00    +0.000 A 
ATOM     14  C   UNL     1       3.230   3.408  19.141  0.00  0.00    +0.000 A 
ATOM     15  C   UNL     1       4.591   3.971  19.405  0.00  0.00    +0.000 C 
BRANCH  15  16
ATOM     16  O   UNL     1       5.576   2.962  19.283  0.00  0.00    +0.000 OA
ATOM     17  H   UNL     1       6.397   3.355  19.626  0.00  0.00    +0.000 HD
ENDBRANCH  15  16
ENDBRANCH   4   7
BRANCH   1  18
ATOM     18  C   UNL     1       8.228   8.465  17.531  0.00  0.00    +0.000 C 
BRANCH  18  19
ATOM     19  C   UNL     1       8.916   9.486  18.464  0.00  0.00    +0.000 C 
BRANCH  19  22
ATOM     20  O   UNL     1      10.997  11.240  19.055  0.00  0.00    +0.000 OA
ATOM     21  C   UNL     1      10.192  11.569  18.188  0.00  0.00    +0.000 C 
ATOM     22  N   UNL     1       9.141  10.755  17.815  0.00  0.00    +0.000 N 
ATOM     23  H   UNL     1       8.457  11.094  17.151  0.00  0.00    +0.000 HD
BRANCH  21  24
ATOM     24  C   UNL     1      10.213  12.907  17.408  0.00  0.00    +0.000 C 
ATOM     25  C   UNL     1      10.411  14.191  18.255  0.00  0.00    +0.000 C 
ATOM     26  C   UNL     1      11.223  14.762  17.078  0.00  0.00    +0.000 C 
ATOM     27  C   UNL     1      11.514  13.306  16.663  0.00  0.00    +0.000 C 
ENDBRANCH  21  24
ENDBRANCH  19  22
ENDBRANCH  18  19
ENDBRANCH   1  18
TORSDOF 6
ENDMDL
MODEL 7
REMARK VINA RESULT:      -7.5      1.185      1.414
REMARK  Name = 
REMARK  6 active torsions:
REMARK  status: ('A' for Active; 'I' for Inactive)
REMARK    1  A    between atoms: C_2  and  C_22
REMARK    2  A    between atoms: N_3  and  C_4
REMARK    3  A    between atoms: C_4  and  C_5
REMARK    4  A    between atoms: C_5  and  N_6
REMARK    5  A    between atoms: N_9  and  C_10
REMARK    6  A    between atoms: C_18  and  O_19
REMARK                            x       y       z     vdW  Elec       q    Type
REMARK                         _______ _______ _______ _____ _____    ______ ____
ROOT
ATOM      1  N   UNL     1       7.042   6.840  18.310  0.00  0.00    +0.000 NA
ATOM      2  C   UNL     1       5.593   6.804  18.017  0.00  0.00    +0.000 C 
ATOM      3  C   UNL     1       5.090   5.717  17.037  0.00  0.00    +0.000 C 
ATOM      4  N   UNL     1       5.627   4.358  17.314  0.00  0.00    +0.000 NA
ATOM      5  C   UNL     1       7.092   4.517  17.215  0.00  0.00    +0.000 C 
ATOM      6  C   UNL     1       7.689   5.511  18.232  0.00  0.00    +0.000 C 
ENDROOT
BRANCH   4   7
ATOM      7  C   UNL     1       5.127   3.876  18.642  0.00  0.00    +0.000 C 
ATOM      8  C   UNL     1       4.299   5.001  19.345  0.00  0.00    +0.000 C 
ATOM      9  C   UNL     1       2.989   4.364  19.668  0.00  0.00    +0.000 A 
ATOM     10  C   UNL     1       1.881   4.988  20.217  0.00  0.00    +0.000 A 
ATOM     11  C   UNL     1       0.733   4.228  20.436  0.00  0.00    +0.000 A 
ATOM     12  C   UNL     1       0.709   2.865  20.111  0.00  0.00    +0.000 A 
ATOM     13  C   UNL     1       1.836   2.247  19.566  0.00  0.00    +0.000 A 
ATOM     14  C   UNL     1       2.972   3.011  19.345  0.00  0.00    +0.000 A 
ATOM     15  C   UNL     1       4.289   2.550  18.804  0.00  0.00    +0.000 C 
BRANCH  15  16
ATOM     16  O   UNL     1       4.101   1.791  17.625  0.00  0.00    +0.000 OA
ATOM     17  H   UNL     1       4.255   0.865  17.883  0.00  0.00    +0.000 HD
ENDBRANCH  15  16
ENDBRANCH   4   7
BRANCH   1  18
ATOM     18  C   UNL     1       7.742   7.847  17.503  0.00  0.00    +0.000 C 
BRANCH  18  19
ATOM     19  C   UNL     1       8.613   8.781  18.371  0.00  0.00    +0.000 C 
BRANCH  19  22
ATOM     20  O   UNL     1      10.098  10.873  19.455  0.00  0.00    +0.000 OA
ATOM     21  C   UNL     1       9.357  11.120  18.508  0.00  0.00    +0.000 C 
ATOM     22  N   UNL     1       8.599  10.143  17.895  0.00  0.00    +0.000 N 
ATOM     23  H   UNL     1       7.944  10.400  17.168  0.00  0.00    +0.000 HD
BRANCH  21  24
ATOM     24  C   UNL     1       9.147  12.519  17.878  0.00  0.00    +0.000 C 
ATOM     25  C   UNL     1       8.934  13.693  18.869  0.00  0.00    +0.000 C 
ATOM     26  C   UNL     1       9.715  14.579  17.881  0.00  0.00    +0.000 C 
ATOM     27  C   UNL     1      10.390  13.293  17.367  0.00  0.00    +0.000 C 
ENDBRANCH  21  24
ENDBRANCH  19  22
ENDBRANCH  18  19
ENDBRANCH   1  18
TORSDOF 6
ENDMDL
MODEL 8
REMARK VINA RESULT:      -7.4      1.088      1.169
REMARK  Name = 
REMARK  6 active torsions:
REMARK  status: ('A' for Active; 'I' for Inactive)
REMARK    1  A    between atoms: C_2  and  C_22
REMARK    2  A    between atoms: N_3  and  C_4
REMARK    3  A    between atoms: C_4  and  C_5
REMARK    4  A    between atoms: C_5  and  N_6
REMARK    5  A    between atoms: N_9  and  C_10
REMARK    6  A    between atoms: C_18  and  O_19
REMARK                            x       y       z     vdW  Elec       q    Type
REMARK                         _______ _______ _______ _____ _____    ______ ____
ROOT
ATOM      1  N   UNL     1       7.033   7.398  18.239  0.00  0.00    +0.000 NA
ATOM      2  C   UNL     1       5.924   7.021  17.336  0.00  0.00    +0.000 C 
ATOM      3  C   UNL     1       5.875   5.557  16.838  0.00  0.00    +0.000 C 
ATOM      4  N   UNL     1       6.075   4.547  17.912  0.00  0.00    +0.000 NA
ATOM      5  C   UNL     1       7.403   4.867  18.473  0.00  0.00    +0.000 C 
ATOM      6  C   UNL     1       7.506   6.279  19.084  0.00  0.00    +0.000 C 
ENDROOT
BRANCH   4   7
ATOM      7  C   UNL     1       4.939   4.612  18.888  0.00  0.00    +0.000 C 
ATOM      8  C   UNL     1       3.654   5.157  18.181  0.00  0.00    +0.000 C 
ATOM      9  C   UNL     1       2.606   4.131  18.455  0.00  0.00    +0.000 A 
ATOM     10  C   UNL     1       1.313   4.118  17.958  0.00  0.00    +0.000 A 
ATOM     11  C   UNL     1       0.475   3.064  18.316  0.00  0.00    +0.000 A 
ATOM     12  C   UNL     1       0.935   2.046  19.163  0.00  0.00    +0.000 A 
ATOM     13  C   UNL     1       2.237   2.076  19.664  0.00  0.00    +0.000 A 
ATOM     14  C   UNL     1       3.066   3.124  19.297  0.00  0.00    +0.000 A 
ATOM     15  C   UNL     1       4.476   3.368  19.739  0.00  0.00    +0.000 C 
BRANCH  15  16
ATOM     16  O   UNL     1       5.251   2.194  19.587  0.00  0.00    +0.000 OA
ATOM     17  H   UNL     1       4.643   1.455  19.760  0.00  0.00    +0.000 HD
ENDBRANCH  15  16
ENDBRANCH   4   7
BRANCH   1  18
ATOM     18  C   UNL     1       8.131   8.053  17.519  0.00  0.00    +0.000 C 
BRANCH  18  19
ATOM     19  C   UNL     1       8.104   9.588  17.695  0.00  0.00    +0.000 C 
BRANCH  19  22
ATOM     20  O   UNL     1       8.901  12.247  17.483  0.00  0.00    +0.000 OA
ATOM     21  C   UNL     1       9.691  11.444  17.970  0.00  0.00    +0.000 C 
ATOM     22  N   UNL     1       9.376  10.110  18.133  0.00  0.00    +0.000 N 
ATOM     23  H   UNL     1      10.081   9.467  18.469  0.00  0.00    +0.000 HD
BRANCH  21  24
ATOM     24  C   UNL     1      11.125  11.779  18.452  0.00  0.00    +0.000 C 
ATOM     25  C   UNL     1      11.456  13.285  18.624  0.00  0.00    +0.000 C 
ATOM     26  C   UNL     1      12.330  12.886  19.827  0.00  0.00    +0.000 C 
ATOM     27  C   UNL     1      11.450  11.628  19.961  0.00  0.00    +0.000 C 
ENDBRANCH  21  24
ENDBRANCH  19  22
ENDBRANCH  18  19
ENDBRANCH   1  18
TORSDOF 6
ENDMDL
MODEL 9
REMARK VINA RESULT:      -7.4      4.748      6.887
REMARK  Name = 
REMARK  6 active torsions:
REMARK  status: ('A' for Active; 'I' for Inactive)
REMARK    1  A    between atoms: C_2  and  C_22
REMARK    2  A    between atoms: N_3  and  C_4
REMARK    3  A    between atoms: C_4  and  C_5
REMARK    4  A    between atoms: C_5  and  N_6
REMARK    5  A    between atoms: N_9  and  C_10
REMARK    6  A    between atoms: C_18  and  O_19
REMARK                            x       y       z     vdW  Elec       q    Type
REMARK                         _______ _______ _______ _____ _____    ______ ____
ROOT
ATOM      1  N   UNL     1       4.825   5.387  19.016  0.00  0.00    +0.000 NA
ATOM      2  C   UNL     1       4.421   6.265  17.896  0.00  0.00    +0.000 C 
ATOM      3  C   UNL     1       2.921   6.294  17.518  0.00  0.00    +0.000 C 
ATOM      4  N   UNL     1       2.007   6.436  18.683  0.00  0.00    +0.000 NA
ATOM      5  C   UNL     1       2.312   5.266  19.531  0.00  0.00    +0.000 C 
ATOM      6  C   UNL     1       3.767   5.216  20.037  0.00  0.00    +0.000 C 
ENDROOT
BRANCH   4   7
ATOM      7  C   UNL     1       2.220   7.769  19.335  0.00  0.00    +0.000 C 
ATOM      8  C   UNL     1       1.874   8.919  18.333  0.00  0.00    +0.000 C 
ATOM      9  C   UNL     1       0.882   9.767  19.056  0.00  0.00    +0.000 A 
ATOM     10  C   UNL     1       0.205  10.863  18.546  0.00  0.00    +0.000 A 
ATOM     11  C   UNL     1      -0.700  11.527  19.371  0.00  0.00    +0.000 A 
ATOM     12  C   UNL     1      -0.912  11.095  20.688  0.00  0.00    +0.000 A 
ATOM     13  C   UNL     1      -0.217   9.994  21.192  0.00  0.00    +0.000 A 
ATOM     14  C   UNL     1       0.676   9.335  20.362  0.00  0.00    +0.000 A 
ATOM     15  C   UNL     1       1.543   8.163  20.704  0.00  0.00    +0.000 C 
BRANCH  15  16
ATOM     16  O   UNL     1       0.779   7.149  21.329  0.00  0.00    +0.000 OA
ATOM     17  H   UNL     1       1.425   6.558  21.751  0.00  0.00    +0.000 HD
ENDBRANCH  15  16
ENDBRANCH   4   7
BRANCH   1  18
ATOM     18  C   UNL     1       5.355   4.102  18.544  0.00  0.00    +0.000 C 
BRANCH  18  19
ATOM     19  C   UNL     1       6.654   4.277  17.727  0.00  0.00    +0.000 C 
BRANCH  19  22
ATOM     20  O   UNL     1       7.551   6.141  15.863  0.00  0.00    +0.000 OA
ATOM     21  C   UNL     1       6.889   5.191  15.457  0.00  0.00    +0.000 C 
ATOM     22  N   UNL     1       6.419   4.208  16.304  0.00  0.00    +0.000 N 
ATOM     23  H   UNL     1       5.814   3.483  15.943  0.00  0.00    +0.000 HD
BRANCH  21  24
ATOM     24  C   UNL     1       6.474   4.954  13.984  0.00  0.00    +0.000 C 
ATOM     25  C   UNL     1       7.623   4.938  12.942  0.00  0.00    +0.000 C 
ATOM     26  C   UNL     1       6.832   3.854  12.186  0.00  0.00    +0.000 C 
ATOM     27  C   UNL     1       6.162   3.503  13.529  0.00  0.00    +0.000 C 
ENDBRANCH  21  24
ENDBRANCH  19  22
ENDBRANCH  18  19
ENDBRANCH   1  18
TORSDOF 6
ENDMDL
