MODEL 1
REMARK VINA RESULT:      -7.7      0.000      0.000
REMARK  Name = 
REMARK  13 active torsions:
REMARK  status: ('A' for Active; 'I' for Inactive)
REMARK    1  A    between atoms: C_1  and  C_2
REMARK    2  A    between atoms: C_2  and  O_3
REMARK    3  A    between atoms: O_3  and  C_4
REMARK    4  A    between atoms: C_4  and  C_6
REMARK    5  A    between atoms: C_9  and  N_10
REMARK    6  A    between atoms: C_12  and  C_13
REMARK    7  A    between atoms: C_13  and  O_14
REMARK    8  A    between atoms: O_14  and  C_15
REMARK    9  A    between atoms: C_18  and  C_19
REMARK   10  A    between atoms: C_20  and  C_21
REMARK   11  A    between atoms: C_21  and  C_22
REMARK   12  A    between atoms: C_25  and  O_26
REMARK   13  A    between atoms: O_26  and  C_27
REMARK                            x       y       z     vdW  Elec       q    Type
REMARK                         _______ _______ _______ _____ _____    ______ ____
ROOT
ATOM      1  N   UNL     1       2.459   6.491  19.161  0.00  0.00    +0.000 N 
ATOM      2  C   UNL     1       3.042   6.222  17.948  0.00  0.00    +0.000 A 
ATOM      3  C   UNL     1       3.451   4.912  18.033  0.00  0.00    +0.000 A 
ATOM      4  N   UNL     1       3.097   4.411  19.252  0.00  0.00    +0.000 NA
ATOM      5  N   UNL     1       2.488   5.377  19.931  0.00  0.00    +0.000 NA
ENDROOT
BRANCH   1   9
ATOM      6  C   UNL     1       0.713  10.118  20.437  0.00  0.00    +0.000 A 
ATOM      7  C   UNL     1       1.108   9.953  19.106  0.00  0.00    +0.000 A 
ATOM      8  C   UNL     1       1.687   8.757  18.685  0.00  0.00    +0.000 A 
ATOM      9  C   UNL     1       1.878   7.708  19.593  0.00  0.00    +0.000 A 
ATOM     10  C   UNL     1       1.498   7.870  20.932  0.00  0.00    +0.000 A 
ATOM     11  C   UNL     1       0.916   9.074  21.351  0.00  0.00    +0.000 A 
BRANCH   6  12
ATOM     12  C   UNL     1       0.148  11.431  20.839  0.00  0.00    +0.000 C 
ATOM     13  O   UNL     1       0.584  12.103  21.757  0.00  0.00    +0.000 OA
BRANCH  12  14
ATOM     14  O   UNL     1      -0.968  11.700  20.119  0.00  0.00    +0.000 OA
BRANCH  14  16
ATOM     15  C   UNL     1      -2.615  13.310  20.732  0.00  0.00    +0.000 C 
ATOM     16  C   UNL     1      -1.288  13.094  20.027  0.00  0.00    +0.000 C 
ENDBRANCH  14  16
ENDBRANCH  12  14
ENDBRANCH   6  12
ENDBRANCH   1   9
BRANCH   3  17
ATOM     17  C   UNL     1       4.070   4.082  16.971  0.00  0.00    +0.000 C 
BRANCH  17  18
ATOM     18  O   UNL     1       5.426   3.711  17.276  0.00  0.00    +0.000 OA
BRANCH  18  19
ATOM     19  C   UNL     1       6.239   4.789  17.534  0.00  0.00    +0.000 A 
ATOM     20  C   UNL     1       6.805   4.975  18.810  0.00  0.00    +0.000 A 
ATOM     21  C   UNL     1       7.571   6.101  19.114  0.00  0.00    +0.000 A 
ATOM     22  C   UNL     1       7.838   7.049  18.134  0.00  0.00    +0.000 A 
ATOM     23  C   UNL     1       7.329   6.834  16.847  0.00  0.00    +0.000 A 
ATOM     24  C   UNL     1       6.545   5.711  16.526  0.00  0.00    +0.000 A 
BRANCH  22  25
ATOM     25  C   UNL     1       8.584   8.256  18.500  0.00  0.00    +0.000 C 
ATOM     26  C   UNL     1       8.271   9.480  18.047  0.00  0.00    +0.000 C 
BRANCH  26  27
ATOM     27  C   UNL     1       9.059  10.665  18.478  0.00  0.00    +0.000 C 
ATOM     28  C   UNL     1       9.663  10.612  19.855  0.00  0.00    +0.000 C 
ATOM     29  O   UNL     1       9.214  11.637  17.747  0.00  0.00    +0.000 OA
ENDBRANCH  26  27
ENDBRANCH  22  25
BRANCH  24  30
ATOM     30  O   UNL     1       6.185   5.727  15.207  0.00  0.00    +0.000 OA
ATOM     31  C   UNL     1       6.758   4.803  14.302  0.00  0.00    +0.000 C 
ENDBRANCH  24  30
ENDBRANCH  18  19
ENDBRANCH  17  18
ENDBRANCH   3  17
TORSDOF 10
ENDMDL
MODEL 2
REMARK VINA RESULT:      -7.7      2.935     10.094
REMARK  Name = 
REMARK  13 active torsions:
REMARK  status: ('A' for Active; 'I' for Inactive)
REMARK    1  A    between atoms: C_1  and  C_2
REMARK    2  A    between atoms: C_2  and  O_3
REMARK    3  A    between atoms: O_3  and  C_4
REMARK    4  A    between atoms: C_4  and  C_6
REMARK    5  A    between atoms: C_9  and  N_10
REMARK    6  A    between atoms: C_12  and  C_13
REMARK    7  A    between atoms: C_13  and  O_14
REMARK    8  A    between atoms: O_14  and  C_15
REMARK    9  A    between atoms: C_18  and  C_19
REMARK   10  A    between atoms: C_20  and  C_21
REMARK   11  A    between atoms: C_21  and  C_22
REMARK   12  A    between atoms: C_25  and  O_26
REMARK   13  A    between atoms: O_26  and  C_27
REMARK                            x       y       z     vdW  Elec       q    Type
REMARK                         _______ _______ _______ _____ _____    ______ ____
ROOT
ATOM      1  N   UNL     1       2.991   5.932  18.955  0.00  0.00    +0.000 N 
ATOM      2  C   UNL     1       2.530   7.176  19.305  0.00  0.00    +0.000 A 
ATOM      3  C   UNL     1       1.710   6.961  20.388  0.00  0.00    +0.000 A 
ATOM      4  N   UNL     1       1.708   5.630  20.688  0.00  0.00    +0.000 NA
ATOM      5  N   UNL     1       2.494   5.011  19.815  0.00  0.00    +0.000 NA
ENDROOT
BRANCH   1   9
ATOM      6  C   UNL     1       5.620   4.945  15.801  0.00  0.00    +0.000 A 
ATOM      7  C   UNL     1       5.491   6.271  16.226  0.00  0.00    +0.000 A 
ATOM      8  C   UNL     1       4.621   6.597  17.265  0.00  0.00    +0.000 A 
ATOM      9  C   UNL     1       3.867   5.599  17.894  0.00  0.00    +0.000 A 
ATOM     10  C   UNL     1       3.980   4.269  17.466  0.00  0.00    +0.000 A 
ATOM     11  C   UNL     1       4.856   3.946  16.422  0.00  0.00    +0.000 A 
BRANCH   6  12
ATOM     12  C   UNL     1       6.524   4.664  14.658  0.00  0.00    +0.000 C 
ATOM     13  O   UNL     1       7.482   5.358  14.366  0.00  0.00    +0.000 OA
BRANCH  12  14
ATOM     14  O   UNL     1       6.059   3.612  13.942  0.00  0.00    +0.000 OA
BRANCH  14  16
ATOM     15  C   UNL     1       5.231   3.030  11.784  0.00  0.00    +0.000 C 
ATOM     16  C   UNL     1       6.382   3.661  12.547  0.00  0.00    +0.000 C 
ENDBRANCH  14  16
ENDBRANCH  12  14
ENDBRANCH   6  12
ENDBRANCH   1   9
BRANCH   3  17
ATOM     17  C   UNL     1       1.013   7.974  21.216  0.00  0.00    +0.000 C 
BRANCH  17  18
ATOM     18  O   UNL     1       1.057   9.290  20.637  0.00  0.00    +0.000 OA
BRANCH  18  19
ATOM     19  C   UNL     1       0.129  10.151  21.174  0.00  0.00    +0.000 A 
ATOM     20  C   UNL     1      -0.176  10.115  22.548  0.00  0.00    +0.000 A 
ATOM     21  C   UNL     1      -1.168  10.927  23.099  0.00  0.00    +0.000 A 
ATOM     22  C   UNL     1      -1.848  11.837  22.299  0.00  0.00    +0.000 A 
ATOM     23  C   UNL     1      -1.503  11.919  20.945  0.00  0.00    +0.000 A 
ATOM     24  C   UNL     1      -0.514  11.100  20.371  0.00  0.00    +0.000 A 
BRANCH  22  25
ATOM     25  C   UNL     1      -2.935  12.626  22.890  0.00  0.00    +0.000 C 
ATOM     26  C   UNL     1      -3.926  13.169  22.167  0.00  0.00    +0.000 C 
BRANCH  26  27
ATOM     27  C   UNL     1      -5.008  13.939  22.835  0.00  0.00    +0.000 C 
ATOM     28  C   UNL     1      -4.627  14.710  24.070  0.00  0.00    +0.000 C 
ATOM     29  O   UNL     1      -6.154  13.950  22.401  0.00  0.00    +0.000 OA
ENDBRANCH  26  27
ENDBRANCH  22  25
BRANCH  24  30
ATOM     30  O   UNL     1      -0.356  11.384  19.043  0.00  0.00    +0.000 OA
ATOM     31  C   UNL     1      -1.311  10.935  18.101  0.00  0.00    +0.000 C 
ENDBRANCH  24  30
ENDBRANCH  18  19
ENDBRANCH  17  18
ENDBRANCH   3  17
TORSDOF 10
ENDMDL
MODEL 3
REMARK VINA RESULT:      -7.7      1.079      1.587
REMARK  Name = 
REMARK  13 active torsions:
REMARK  status: ('A' for Active; 'I' for Inactive)
REMARK    1  A    between atoms: C_1  and  C_2
REMARK    2  A    between atoms: C_2  and  O_3
REMARK    3  A    between atoms: O_3  and  C_4
REMARK    4  A    between atoms: C_4  and  C_6
REMARK    5  A    between atoms: C_9  and  N_10
REMARK    6  A    between atoms: C_12  and  C_13
REMARK    7  A    between atoms: C_13  and  O_14
REMARK    8  A    between atoms: O_14  and  C_15
REMARK    9  A    between atoms: C_18  and  C_19
REMARK   10  A    between atoms: C_20  and  C_21
REMARK   11  A    between atoms: C_21  and  C_22
REMARK   12  A    between atoms: C_25  and  O_26
REMARK   13  A    between atoms: O_26  and  C_27
REMARK                            x       y       z     vdW  Elec       q    Type
REMARK                         _______ _______ _______ _____ _____    ______ ____
ROOT
ATOM      1  N   UNL     1       2.962   6.412  18.992  0.00  0.00    +0.000 N 
ATOM      2  C   UNL     1       3.705   6.017  17.909  0.00  0.00    +0.000 A 
ATOM      3  C   UNL     1       4.245   4.805  18.272  0.00  0.00    +0.000 A 
ATOM      4  N   UNL     1       3.812   4.480  19.524  0.00  0.00    +0.000 NA
ATOM      5  N   UNL     1       3.027   5.461  19.954  0.00  0.00    +0.000 NA
ENDROOT
BRANCH   1   9
ATOM      6  C   UNL     1       0.715   9.960  19.439  0.00  0.00    +0.000 A 
ATOM      7  C   UNL     1       0.883   9.088  20.520  0.00  0.00    +0.000 A 
ATOM      8  C   UNL     1       1.622   7.916  20.371  0.00  0.00    +0.000 A 
ATOM      9  C   UNL     1       2.205   7.600  19.137  0.00  0.00    +0.000 A 
ATOM     10  C   UNL     1       2.030   8.461  18.046  0.00  0.00    +0.000 A 
ATOM     11  C   UNL     1       1.287   9.639  18.199  0.00  0.00    +0.000 A 
BRANCH   6  12
ATOM     12  C   UNL     1      -0.123  11.168  19.642  0.00  0.00    +0.000 C 
ATOM     13  O   UNL     1      -0.710  11.418  20.681  0.00  0.00    +0.000 OA
BRANCH  12  14
ATOM     14  O   UNL     1      -0.224  11.867  18.486  0.00  0.00    +0.000 OA
BRANCH  14  16
ATOM     15  C   UNL     1       1.580  13.418  18.344  0.00  0.00    +0.000 C 
ATOM     16  C   UNL     1       0.094  13.259  18.610  0.00  0.00    +0.000 C 
ENDBRANCH  14  16
ENDBRANCH  12  14
ENDBRANCH   6  12
ENDBRANCH   1   9
BRANCH   3  17
ATOM     17  C   UNL     1       5.068   3.892  17.443  0.00  0.00    +0.000 C 
BRANCH  17  18
ATOM     18  O   UNL     1       6.463   3.930  17.793  0.00  0.00    +0.000 OA
BRANCH  18  19
ATOM     19  C   UNL     1       6.985   5.202  17.810  0.00  0.00    +0.000 A 
ATOM     20  C   UNL     1       7.633   5.699  18.957  0.00  0.00    +0.000 A 
ATOM     21  C   UNL     1       8.103   7.012  19.020  0.00  0.00    +0.000 A 
ATOM     22  C   UNL     1       7.982   7.850  17.918  0.00  0.00    +0.000 A 
ATOM     23  C   UNL     1       7.394   7.338  16.756  0.00  0.00    +0.000 A 
ATOM     24  C   UNL     1       6.906   6.021  16.678  0.00  0.00    +0.000 A 
BRANCH  22  25
ATOM     25  C   UNL     1       8.418   9.245  18.039  0.00  0.00    +0.000 C 
ATOM     26  C   UNL     1       9.176   9.693  19.051  0.00  0.00    +0.000 C 
BRANCH  26  27
ATOM     27  C   UNL     1       9.600  11.118  19.098  0.00  0.00    +0.000 C 
ATOM     28  C   UNL     1       9.869  11.700  20.460  0.00  0.00    +0.000 C 
ATOM     29  O   UNL     1       9.728  11.787  18.079  0.00  0.00    +0.000 OA
ENDBRANCH  26  27
ENDBRANCH  22  25
BRANCH  24  30
ATOM     30  O   UNL     1       6.394   5.763  15.436  0.00  0.00    +0.000 OA
ATOM     31  C   UNL     1       7.080   4.900  14.549  0.00  0.00    +0.000 C 
ENDBRANCH  24  30
ENDBRANCH  18  19
ENDBRANCH  17  18
ENDBRANCH   3  17
TORSDOF 10
ENDMDL
MODEL 4
REMARK VINA RESULT:      -7.6      1.203      1.337
REMARK  Name = 
REMARK  13 active torsions:
REMARK  status: ('A' for Active; 'I' for Inactive)
REMARK    1  A    between atoms: C_1  and  C_2
REMARK    2  A    between atoms: C_2  and  O_3
REMARK    3  A    between atoms: O_3  and  C_4
REMARK    4  A    between atoms: C_4  and  C_6
REMARK    5  A    between atoms: C_9  and  N_10
REMARK    6  A    between atoms: C_12  and  C_13
REMARK    7  A    between atoms: C_13  and  O_14
REMARK    8  A    between atoms: O_14  and  C_15
REMARK    9  A    between atoms: C_18  and  C_19
REMARK   10  A    between atoms: C_20  and  C_21
REMARK   11  A    between atoms: C_21  and  C_22
REMARK   12  A    between atoms: C_25  and  O_26
REMARK   13  A    between atoms: O_26  and  C_27
REMARK                            x       y       z     vdW  Elec       q    Type
REMARK                         _______ _______ _______ _____ _____    ______ ____
ROOT
ATOM      1  N   UNL     1       2.844   6.409  19.024  0.00  0.00    +0.000 N 
ATOM      2  C   UNL     1       3.503   5.983  17.899  0.00  0.00    +0.000 A 
ATOM      3  C   UNL     1       4.089   4.792  18.260  0.00  0.00    +0.000 A 
ATOM      4  N   UNL     1       3.764   4.508  19.554  0.00  0.00    +0.000 NA
ATOM      5  N   UNL     1       3.001   5.494  20.011  0.00  0.00    +0.000 NA
ENDROOT
BRANCH   1   9
ATOM      6  C   UNL     1       0.563   9.931  19.498  0.00  0.00    +0.000 A 
ATOM      7  C   UNL     1       1.180   9.647  18.276  0.00  0.00    +0.000 A 
ATOM      8  C   UNL     1       1.935   8.487  18.121  0.00  0.00    +0.000 A 
ATOM      9  C   UNL     1       2.083   7.592  19.188  0.00  0.00    +0.000 A 
ATOM     10  C   UNL     1       1.480   7.876  20.421  0.00  0.00    +0.000 A 
ATOM     11  C   UNL     1       0.721   9.043  20.572  0.00  0.00    +0.000 A 
BRANCH   6  12
ATOM     12  C   UNL     1      -0.188  11.206  19.620  0.00  0.00    +0.000 C 
ATOM     13  O   UNL     1       0.339  12.283  19.838  0.00  0.00    +0.000 OA
BRANCH  12  14
ATOM     14  O   UNL     1      -1.520  10.971  19.568  0.00  0.00    +0.000 OA
BRANCH  14  16
ATOM     15  C   UNL     1      -2.319  11.493  17.384  0.00  0.00    +0.000 C 
ATOM     16  C   UNL     1      -1.966  10.372  18.345  0.00  0.00    +0.000 C 
ENDBRANCH  14  16
ENDBRANCH  12  14
ENDBRANCH   6  12
ENDBRANCH   1   9
BRANCH   3  17
ATOM     17  C   UNL     1       4.856   3.859  17.399  0.00  0.00    +0.000 C 
BRANCH  17  18
ATOM     18  O   UNL     1       6.260   3.839  17.716  0.00  0.00    +0.000 OA
BRANCH  18  19
ATOM     19  C   UNL     1       6.831   5.090  17.729  0.00  0.00    +0.000 A 
ATOM     20  C   UNL     1       7.514   5.557  18.869  0.00  0.00    +0.000 A 
ATOM     21  C   UNL     1       8.036   6.850  18.930  0.00  0.00    +0.000 A 
ATOM     22  C   UNL     1       7.934   7.696  17.833  0.00  0.00    +0.000 A 
ATOM     23  C   UNL     1       7.311   7.213  16.677  0.00  0.00    +0.000 A 
ATOM     24  C   UNL     1       6.770   5.916  16.601  0.00  0.00    +0.000 A 
BRANCH  22  25
ATOM     25  C   UNL     1       8.427   9.072  17.952  0.00  0.00    +0.000 C 
ATOM     26  C   UNL     1       9.063   9.534  19.039  0.00  0.00    +0.000 C 
BRANCH  26  27
ATOM     27  C   UNL     1       9.555  10.937  19.083  0.00  0.00    +0.000 C 
ATOM     28  C   UNL     1      10.280  11.438  17.863  0.00  0.00    +0.000 C 
ATOM     29  O   UNL     1       9.377  11.652  20.061  0.00  0.00    +0.000 OA
ENDBRANCH  26  27
ENDBRANCH  22  25
BRANCH  24  30
ATOM     30  O   UNL     1       6.231   5.683  15.366  0.00  0.00    +0.000 OA
ATOM     31  C   UNL     1       6.971   4.975  14.389  0.00  0.00    +0.000 C 
ENDBRANCH  24  30
ENDBRANCH  18  19
ENDBRANCH  17  18
ENDBRANCH   3  17
TORSDOF 10
ENDMDL
MODEL 5
REMARK VINA RESULT:      -7.6      2.904      9.861
REMARK  Name = 
REMARK  13 active torsions:
REMARK  status: ('A' for Active; 'I' for Inactive)
REMARK    1  A    between atoms: C_1  and  C_2
REMARK    2  A    between atoms: C_2  and  O_3
REMARK    3  A    between atoms: O_3  and  C_4
REMARK    4  A    between atoms: C_4  and  C_6
REMARK    5  A    between atoms: C_9  and  N_10
REMARK    6  A    between atoms: C_12  and  C_13
REMARK    7  A    between atoms: C_13  and  O_14
REMARK    8  A    between atoms: O_14  and  C_15
REMARK    9  A    between atoms: C_18  and  C_19
REMARK   10  A    between atoms: C_20  and  C_21
REMARK   11  A    between atoms: C_21  and  C_22
REMARK   12  A    between atoms: C_25  and  O_26
REMARK   13  A    between atoms: O_26  and  C_27
REMARK                            x       y       z     vdW  Elec       q    Type
REMARK                         _______ _______ _______ _____ _____    ______ ____
ROOT
ATOM      1  N   UNL     1       3.121   6.126  18.890  0.00  0.00    +0.000 N 
ATOM      2  C   UNL     1       2.610   7.359  19.205  0.00  0.00    +0.000 A 
ATOM      3  C   UNL     1       1.833   7.148  20.320  0.00  0.00    +0.000 A 
ATOM      4  N   UNL     1       1.904   5.832  20.671  0.00  0.00    +0.000 NA
ATOM      5  N   UNL     1       2.694   5.216  19.799  0.00  0.00    +0.000 NA
ENDROOT
BRANCH   1   9
ATOM      6  C   UNL     1       5.673   5.123  15.679  0.00  0.00    +0.000 A 
ATOM      7  C   UNL     1       4.918   4.134  16.317  0.00  0.00    +0.000 A 
ATOM      8  C   UNL     1       4.078   4.465  17.378  0.00  0.00    +0.000 A 
ATOM      9  C   UNL     1       3.982   5.792  17.816  0.00  0.00    +0.000 A 
ATOM     10  C   UNL     1       4.746   6.787  17.191  0.00  0.00    +0.000 A 
ATOM     11  C   UNL     1       5.588   6.450  16.124  0.00  0.00    +0.000 A 
BRANCH   6  12
ATOM     12  C   UNL     1       6.588   4.705  14.586  0.00  0.00    +0.000 C 
ATOM     13  O   UNL     1       7.568   5.343  14.243  0.00  0.00    +0.000 OA
BRANCH  12  14
ATOM     14  O   UNL     1       6.109   3.595  13.975  0.00  0.00    +0.000 OA
BRANCH  14  16
ATOM     15  C   UNL     1       4.995   3.188  11.907  0.00  0.00    +0.000 C 
ATOM     16  C   UNL     1       6.313   3.570  12.556  0.00  0.00    +0.000 C 
ENDBRANCH  14  16
ENDBRANCH  12  14
ENDBRANCH   6  12
ENDBRANCH   1   9
BRANCH   3  17
ATOM     17  C   UNL     1       1.111   8.159  21.130  0.00  0.00    +0.000 C 
BRANCH  17  18
ATOM     18  O   UNL     1       0.146   8.900  20.361  0.00  0.00    +0.000 OA
BRANCH  18  19
ATOM     19  C   UNL     1      -0.317  10.021  21.008  0.00  0.00    +0.000 A 
ATOM     20  C   UNL     1      -0.507  10.022  22.403  0.00  0.00    +0.000 A 
ATOM     21  C   UNL     1      -1.046  11.124  23.068  0.00  0.00    +0.000 A 
ATOM     22  C   UNL     1      -1.363  12.278  22.362  0.00  0.00    +0.000 A 
ATOM     23  C   UNL     1      -1.116  12.303  20.985  0.00  0.00    +0.000 A 
ATOM     24  C   UNL     1      -0.584  11.198  20.296  0.00  0.00    +0.000 A 
BRANCH  22  25
ATOM     25  C   UNL     1      -1.995  13.393  23.075  0.00  0.00    +0.000 C 
ATOM     26  C   UNL     1      -1.374  14.099  24.032  0.00  0.00    +0.000 C 
BRANCH  26  27
ATOM     27  C   UNL     1      -2.069  15.233  24.699  0.00  0.00    +0.000 C 
ATOM     28  C   UNL     1      -3.126  15.944  23.898  0.00  0.00    +0.000 C 
ATOM     29  O   UNL     1      -1.798  15.570  25.845  0.00  0.00    +0.000 OA
ENDBRANCH  26  27
ENDBRANCH  22  25
BRANCH  24  30
ATOM     30  O   UNL     1      -0.426  11.479  18.968  0.00  0.00    +0.000 OA
ATOM     31  C   UNL     1      -1.379  12.276  18.291  0.00  0.00    +0.000 C 
ENDBRANCH  24  30
ENDBRANCH  18  19
ENDBRANCH  17  18
ENDBRANCH   3  17
TORSDOF 10
ENDMDL
MODEL 6
REMARK VINA RESULT:      -7.6      3.089      9.804
REMARK  Name = 
REMARK  13 active torsions:
REMARK  status: ('A' for Active; 'I' for Inactive)
REMARK    1  A    between atoms: C_1  and  C_2
REMARK    2  A    between atoms: C_2  and  O_3
REMARK    3  A    between atoms: O_3  and  C_4
REMARK    4  A    between atoms: C_4  and  C_6
REMARK    5  A    between atoms: C_9  and  N_10
REMARK    6  A    between atoms: C_12  and  C_13
REMARK    7  A    between atoms: C_13  and  O_14
REMARK    8  A    between atoms: O_14  and  C_15
REMARK    9  A    between atoms: C_18  and  C_19
REMARK   10  A    between atoms: C_20  and  C_21
REMARK   11  A    between atoms: C_21  and  C_22
REMARK   12  A    between atoms: C_25  and  O_26
REMARK   13  A    between atoms: O_26  and  C_27
REMARK                            x       y       z     vdW  Elec       q    Type
REMARK                         _______ _______ _______ _____ _____    ______ ____
ROOT
ATOM      1  N   UNL     1       3.491   5.721  18.683  0.00  0.00    +0.000 N 
ATOM      2  C   UNL     1       2.546   6.702  18.849  0.00  0.00    +0.000 A 
ATOM      3  C   UNL     1       2.005   6.469  20.092  0.00  0.00    +0.000 A 
ATOM      4  N   UNL     1       2.631   5.396  20.657  0.00  0.00    +0.000 NA
ATOM      5  N   UNL     1       3.538   4.950  19.797  0.00  0.00    +0.000 NA
ENDROOT
BRANCH   1   9
ATOM      6  C   UNL     1       5.991   5.068  15.344  0.00  0.00    +0.000 A 
ATOM      7  C   UNL     1       5.751   4.039  16.259  0.00  0.00    +0.000 A 
ATOM      8  C   UNL     1       4.928   4.255  17.362  0.00  0.00    +0.000 A 
ATOM      9  C   UNL     1       4.333   5.507  17.565  0.00  0.00    +0.000 A 
ATOM     10  C   UNL     1       4.580   6.548  16.661  0.00  0.00    +0.000 A 
ATOM     11  C   UNL     1       5.407   6.327  15.553  0.00  0.00    +0.000 A 
BRANCH   6  12
ATOM     12  C   UNL     1       6.916   4.795  14.214  0.00  0.00    +0.000 C 
ATOM     13  O   UNL     1       7.789   5.565  13.854  0.00  0.00    +0.000 OA
BRANCH  12  14
ATOM     14  O   UNL     1       6.568   3.643  13.594  0.00  0.00    +0.000 OA
BRANCH  14  16
ATOM     15  C   UNL     1       4.947   3.245  11.892  0.00  0.00    +0.000 C 
ATOM     16  C   UNL     1       6.338   3.778  12.186  0.00  0.00    +0.000 C 
ENDBRANCH  14  16
ENDBRANCH  12  14
ENDBRANCH   6  12
ENDBRANCH   1   9
BRANCH   3  17
ATOM     17  C   UNL     1       0.995   7.282  20.810  0.00  0.00    +0.000 C 
BRANCH  17  18
ATOM     18  O   UNL     1       1.586   8.319  21.615  0.00  0.00    +0.000 OA
BRANCH  18  19
ATOM     19  C   UNL     1       0.757   9.400  21.801  0.00  0.00    +0.000 A 
ATOM     20  C   UNL     1       0.036   9.555  23.001  0.00  0.00    +0.000 A 
ATOM     21  C   UNL     1      -0.867  10.605  23.181  0.00  0.00    +0.000 A 
ATOM     22  C   UNL     1      -1.035  11.559  22.185  0.00  0.00    +0.000 A 
ATOM     23  C   UNL     1      -0.273  11.441  21.017  0.00  0.00    +0.000 A 
ATOM     24  C   UNL     1       0.633  10.385  20.814  0.00  0.00    +0.000 A 
BRANCH  22  25
ATOM     25  C   UNL     1      -2.043  12.608  22.372  0.00  0.00    +0.000 C 
ATOM     26  C   UNL     1      -3.243  12.383  22.927  0.00  0.00    +0.000 C 
BRANCH  26  27
ATOM     27  C   UNL     1      -4.209  13.500  23.106  0.00  0.00    +0.000 C 
ATOM     28  C   UNL     1      -5.314  13.608  22.090  0.00  0.00    +0.000 C 
ATOM     29  O   UNL     1      -4.114  14.291  24.037  0.00  0.00    +0.000 OA
ENDBRANCH  26  27
ENDBRANCH  22  25
BRANCH  24  30
ATOM     30  O   UNL     1       1.261  10.505  19.605  0.00  0.00    +0.000 OA
ATOM     31  C   UNL     1       1.550  11.785  19.078  0.00  0.00    +0.000 C 
ENDBRANCH  24  30
ENDBRANCH  18  19
ENDBRANCH  17  18
ENDBRANCH   3  17
TORSDOF 10
ENDMDL
MODEL 7
REMARK VINA RESULT:      -7.6      2.900      8.683
REMARK  Name = 
REMARK  13 active torsions:
REMARK  status: ('A' for Active; 'I' for Inactive)
REMARK    1  A    between atoms: C_1  and  C_2
REMARK    2  A    between atoms: C_2  and  O_3
REMARK    3  A    between atoms: O_3  and  C_4
REMARK    4  A    between atoms: C_4  and  C_6
REMARK    5  A    between atoms: C_9  and  N_10
REMARK    6  A    between atoms: C_12  and  C_13
REMARK    7  A    between atoms: C_13  and  O_14
REMARK    8  A    between atoms: O_14  and  C_15
REMARK    9  A    between atoms: C_18  and  C_19
REMARK   10  A    between atoms: C_20  and  C_21
REMARK   11  A    between atoms: C_21  and  C_22
REMARK   12  A    between atoms: C_25  and  O_26
REMARK   13  A    between atoms: O_26  and  C_27
REMARK                            x       y       z     vdW  Elec       q    Type
REMARK                         _______ _______ _______ _____ _____    ______ ____
ROOT
ATOM      1  N   UNL     1       2.933   6.238  18.844  0.00  0.00    +0.000 N 
ATOM      2  C   UNL     1       2.518   7.505  19.164  0.00  0.00    +0.000 A 
ATOM      3  C   UNL     1       1.711   7.348  20.267  0.00  0.00    +0.000 A 
ATOM      4  N   UNL     1       1.672   6.027  20.606  0.00  0.00    +0.000 NA
ATOM      5  N   UNL     1       2.423   5.358  19.739  0.00  0.00    +0.000 NA
ENDROOT
BRANCH   1   9
ATOM      6  C   UNL     1       5.473   5.075  15.677  0.00  0.00    +0.000 A 
ATOM      7  C   UNL     1       5.387   6.417  16.058  0.00  0.00    +0.000 A 
ATOM      8  C   UNL     1       4.547   6.801  17.102  0.00  0.00    +0.000 A 
ATOM      9  C   UNL     1       3.779   5.845  17.778  0.00  0.00    +0.000 A 
ATOM     10  C   UNL     1       3.848   4.500  17.393  0.00  0.00    +0.000 A 
ATOM     11  C   UNL     1       4.695   4.118  16.345  0.00  0.00    +0.000 A 
BRANCH   6  12
ATOM     12  C   UNL     1       6.346   4.731  14.527  0.00  0.00    +0.000 C 
ATOM     13  O   UNL     1       7.445   5.225  14.340  0.00  0.00    +0.000 OA
BRANCH  12  14
ATOM     14  O   UNL     1       5.699   3.895  13.680  0.00  0.00    +0.000 OA
BRANCH  14  16
ATOM     15  C   UNL     1       5.677   2.504  11.745  0.00  0.00    +0.000 C 
ATOM     16  C   UNL     1       6.404   3.628  12.462  0.00  0.00    +0.000 C 
ENDBRANCH  14  16
ENDBRANCH  12  14
ENDBRANCH   6  12
ENDBRANCH   1   9
BRANCH   3  17
ATOM     17  C   UNL     1       1.061   8.406  21.076  0.00  0.00    +0.000 C 
BRANCH  17  18
ATOM     18  O   UNL     1       0.200   9.254  20.294  0.00  0.00    +0.000 OA
BRANCH  18  19
ATOM     19  C   UNL     1       0.749  10.486  20.026  0.00  0.00    +0.000 A 
ATOM     20  C   UNL     1       1.339  10.755  18.777  0.00  0.00    +0.000 A 
ATOM     21  C   UNL     1       1.968  11.973  18.512  0.00  0.00    +0.000 A 
ATOM     22  C   UNL     1       1.978  12.977  19.472  0.00  0.00    +0.000 A 
ATOM     23  C   UNL     1       1.337  12.734  20.693  0.00  0.00    +0.000 A 
ATOM     24  C   UNL     1       0.708  11.509  20.981  0.00  0.00    +0.000 A 
BRANCH  22  25
ATOM     25  C   UNL     1       2.707  14.217  19.193  0.00  0.00    +0.000 C 
ATOM     26  C   UNL     1       2.685  14.830  18.000  0.00  0.00    +0.000 C 
BRANCH  26  27
ATOM     27  C   UNL     1       3.432  16.099  17.792  0.00  0.00    +0.000 C 
ATOM     28  C   UNL     1       2.687  17.222  17.123  0.00  0.00    +0.000 C 
ATOM     29  O   UNL     1       4.597  16.228  18.152  0.00  0.00    +0.000 OA
ENDBRANCH  26  27
ENDBRANCH  22  25
BRANCH  24  30
ATOM     30  O   UNL     1       0.147  11.529  22.228  0.00  0.00    +0.000 OA
ATOM     31  C   UNL     1      -0.947  12.384  22.502  0.00  0.00    +0.000 C 
ENDBRANCH  24  30
ENDBRANCH  18  19
ENDBRANCH  17  18
ENDBRANCH   3  17
TORSDOF 10
ENDMDL
MODEL 8
REMARK VINA RESULT:      -7.5      2.882      9.626
REMARK  Name = 
REMARK  13 active torsions:
REMARK  status: ('A' for Active; 'I' for Inactive)
REMARK    1  A    between atoms: C_1  and  C_2
REMARK    2  A    between atoms: C_2  and  O_3
REMARK    3  A    between atoms: O_3  and  C_4
REMARK    4  A    between atoms: C_4  and  C_6
REMARK    5  A    between atoms: C_9  and  N_10
REMARK    6  A    between atoms: C_12  and  C_13
REMARK    7  A    between atoms: C_13  and  O_14
REMARK    8  A    between atoms: O_14  and  C_15
REMARK    9  A    between atoms: C_18  and  C_19
REMARK   10  A    between atoms: C_20  and  C_21
REMARK   11  A    between atoms: C_21  and  C_22
REMARK   12  A    between atoms: C_25  and  O_26
REMARK   13  A    between atoms: O_26  and  C_27
REMARK                            x       y       z     vdW  Elec       q    Type
REMARK                         _______ _______ _______ _____ _____    ______ ____
ROOT
ATOM      1  N   UNL     1       3.391   5.483  18.938  0.00  0.00    +0.000 N 
ATOM      2  C   UNL     1       2.541   6.542  19.134  0.00  0.00    +0.000 A 
ATOM      3  C   UNL     1       1.929   6.288  20.340  0.00  0.00    +0.000 A 
ATOM      4  N   UNL     1       2.423   5.126  20.855  0.00  0.00    +0.000 NA
ATOM      5  N   UNL     1       3.317   4.644  19.999  0.00  0.00    +0.000 NA
ENDROOT
BRANCH   1   9
ATOM      6  C   UNL     1       5.977   4.811  15.668  0.00  0.00    +0.000 A 
ATOM      7  C   UNL     1       5.899   6.076  16.260  0.00  0.00    +0.000 A 
ATOM      8  C   UNL     1       5.044   6.298  17.337  0.00  0.00    +0.000 A 
ATOM      9  C   UNL     1       4.253   5.256  17.838  0.00  0.00    +0.000 A 
ATOM     10  C   UNL     1       4.314   3.989  17.242  0.00  0.00    +0.000 A 
ATOM     11  C   UNL     1       5.177   3.770  16.160  0.00  0.00    +0.000 A 
BRANCH   6  12
ATOM     12  C   UNL     1       6.869   4.646  14.493  0.00  0.00    +0.000 C 
ATOM     13  O   UNL     1       7.705   5.466  14.157  0.00  0.00    +0.000 OA
BRANCH  12  14
ATOM     14  O   UNL     1       6.535   3.527  13.806  0.00  0.00    +0.000 OA
BRANCH  14  16
ATOM     15  C   UNL     1       5.045   3.277  11.963  0.00  0.00    +0.000 C 
ATOM     16  C   UNL     1       6.435   3.713  12.389  0.00  0.00    +0.000 C 
ENDBRANCH  14  16
ENDBRANCH  12  14
ENDBRANCH   6  12
ENDBRANCH   1   9
BRANCH   3  17
ATOM     17  C   UNL     1       0.975   7.153  21.075  0.00  0.00    +0.000 C 
BRANCH  17  18
ATOM     18  O   UNL     1       1.592   8.345  21.594  0.00  0.00    +0.000 OA
BRANCH  18  19
ATOM     19  C   UNL     1       0.701   9.372  21.797  0.00  0.00    +0.000 A 
ATOM     20  C   UNL     1       0.015   9.500  23.019  0.00  0.00    +0.000 A 
ATOM     21  C   UNL     1      -0.948  10.491  23.219  0.00  0.00    +0.000 A 
ATOM     22  C   UNL     1      -1.215  11.416  22.217  0.00  0.00    +0.000 A 
ATOM     23  C   UNL     1      -0.489  11.330  21.023  0.00  0.00    +0.000 A 
ATOM     24  C   UNL     1       0.477  10.331  20.801  0.00  0.00    +0.000 A 
BRANCH  22  25
ATOM     25  C   UNL     1      -2.282  12.400  22.427  0.00  0.00    +0.000 C 
ATOM     26  C   UNL     1      -2.160  13.696  22.103  0.00  0.00    +0.000 C 
BRANCH  26  27
ATOM     27  C   UNL     1      -3.292  14.635  22.324  0.00  0.00    +0.000 C 
ATOM     28  C   UNL     1      -4.234  14.843  21.169  0.00  0.00    +0.000 C 
ATOM     29  O   UNL     1      -3.454  15.209  23.395  0.00  0.00    +0.000 OA
ENDBRANCH  26  27
ENDBRANCH  22  25
BRANCH  24  30
ATOM     30  O   UNL     1       1.052  10.473  19.568  0.00  0.00    +0.000 OA
ATOM     31  C   UNL     1       0.296  10.223  18.399  0.00  0.00    +0.000 C 
ENDBRANCH  24  30
ENDBRANCH  18  19
ENDBRANCH  17  18
ENDBRANCH   3  17
TORSDOF 10
ENDMDL
MODEL 9
REMARK VINA RESULT:      -7.5      1.186      1.517
REMARK  Name = 
REMARK  13 active torsions:
REMARK  status: ('A' for Active; 'I' for Inactive)
REMARK    1  A    between atoms: C_1  and  C_2
REMARK    2  A    between atoms: C_2  and  O_3
REMARK    3  A    between atoms: O_3  and  C_4
REMARK    4  A    between atoms: C_4  and  C_6
REMARK    5  A    between atoms: C_9  and  N_10
REMARK    6  A    between atoms: C_12  and  C_13
REMARK    7  A    between atoms: C_13  and  O_14
REMARK    8  A    between atoms: O_14  and  C_15
REMARK    9  A    between atoms: C_18  and  C_19
REMARK   10  A    between atoms: C_20  and  C_21
REMARK   11  A    between atoms: C_21  and  C_22
REMARK   12  A    between atoms: C_25  and  O_26
REMARK   13  A    between atoms: O_26  and  C_27
REMARK                            x       y       z     vdW  Elec       q    Type
REMARK                         _______ _______ _______ _____ _____    ______ ____
ROOT
ATOM      1  N   UNL     1       2.619   6.456  18.846  0.00  0.00    +0.000 N 
ATOM      2  C   UNL     1       3.848   6.001  19.250  0.00  0.00    +0.000 A 
ATOM      3  C   UNL     1       3.946   4.731  18.730  0.00  0.00    +0.000 A 
ATOM      4  N   UNL     1       2.817   4.453  18.016  0.00  0.00    +0.000 NA
ATOM      5  N   UNL     1       2.016   5.510  18.086  0.00  0.00    +0.000 NA
ENDROOT
BRANCH   1   9
ATOM      6  C   UNL     1       0.835  10.197  19.653  0.00  0.00    +0.000 A 
ATOM      7  C   UNL     1       1.302   9.899  18.370  0.00  0.00    +0.000 A 
ATOM      8  C   UNL     1       1.893   8.665  18.104  0.00  0.00    +0.000 A 
ATOM      9  C   UNL     1       2.025   7.712  19.121  0.00  0.00    +0.000 A 
ATOM     10  C   UNL     1       1.573   8.008  20.414  0.00  0.00    +0.000 A 
ATOM     11  C   UNL     1       0.979   9.249  20.677  0.00  0.00    +0.000 A 
BRANCH   6  12
ATOM     12  C   UNL     1       0.260  11.546  19.890  0.00  0.00    +0.000 C 
ATOM     13  O   UNL     1      -0.397  12.155  19.064  0.00  0.00    +0.000 OA
BRANCH  12  14
ATOM     14  O   UNL     1       0.668  12.024  21.090  0.00  0.00    +0.000 OA
BRANCH  14  16
ATOM     15  C   UNL     1       2.444  13.554  20.661  0.00  0.00    +0.000 C 
ATOM     16  C   UNL     1       0.994  13.419  21.087  0.00  0.00    +0.000 C 
ENDBRANCH  14  16
ENDBRANCH  12  14
ENDBRANCH   6  12
ENDBRANCH   1   9
BRANCH   3  17
ATOM     17  C   UNL     1       5.106   3.810  18.792  0.00  0.00    +0.000 C 
BRANCH  17  18
ATOM     18  O   UNL     1       6.058   4.043  17.739  0.00  0.00    +0.000 OA
BRANCH  18  19
ATOM     19  C   UNL     1       6.735   5.232  17.872  0.00  0.00    +0.000 A 
ATOM     20  C   UNL     1       7.637   5.432  18.934  0.00  0.00    +0.000 A 
ATOM     21  C   UNL     1       8.277   6.656  19.130  0.00  0.00    +0.000 A 
ATOM     22  C   UNL     1       8.072   7.701  18.238  0.00  0.00    +0.000 A 
ATOM     23  C   UNL     1       7.225   7.485  17.145  0.00  0.00    +0.000 A 
ATOM     24  C   UNL     1       6.563   6.261  16.938  0.00  0.00    +0.000 A 
BRANCH  22  25
ATOM     25  C   UNL     1       8.701   8.998  18.509  0.00  0.00    +0.000 C 
ATOM     26  C   UNL     1       8.415  10.112  17.819  0.00  0.00    +0.000 C 
BRANCH  26  27
ATOM     27  C   UNL     1       9.076  11.400  18.163  0.00  0.00    +0.000 C 
ATOM     28  C   UNL     1      10.269  11.325  19.077  0.00  0.00    +0.000 C 
ATOM     29  O   UNL     1       8.672  12.469  17.722  0.00  0.00    +0.000 OA
ENDBRANCH  26  27
ENDBRANCH  22  25
BRANCH  24  30
ATOM     30  O   UNL     1       5.808   6.300  15.798  0.00  0.00    +0.000 OA
ATOM     31  C   UNL     1       5.893   5.251  14.853  0.00  0.00    +0.000 C 
ENDBRANCH  24  30
ENDBRANCH  18  19
ENDBRANCH  17  18
ENDBRANCH   3  17
TORSDOF 10
ENDMDL
