MODEL 1
REMARK VINA RESULT:      -7.8      0.000      0.000
REMARK  Name = 
REMARK  9 active torsions:
REMARK  status: ('A' for Active; 'I' for Inactive)
REMARK    1  A    between atoms: C_1  and  C_2
REMARK    2  A    between atoms: C_2  and  C_3
REMARK    3  A    between atoms: C_3  and  N_4
REMARK    4  A    between atoms: C_8  and  C_9
REMARK    5  A    between atoms: C_12  and  C_13
REMARK    6  A    between atoms: C_13  and  O_15
REMARK    7  A    between atoms: O_15  and  C_16
REMARK    8  A    between atoms: N_22  and  C_23
REMARK    9  A    between atoms: C_28  and  C_29
REMARK                            x       y       z     vdW  Elec       q    Type
REMARK                         _______ _______ _______ _____ _____    ______ ____
ROOT
ATOM      1  N   UNL     1      -1.553  12.005  19.483  0.00  0.00    +0.000 NA
ATOM      2  C   UNL     1      -0.888  11.166  20.183  0.00  0.00    +0.000 C 
ATOM      3  S   UNL     1      -0.100   9.718  19.589  0.00  0.00    +0.000 S 
ATOM      4  C   UNL     1       0.484   9.288  21.147  0.00  0.00    +0.000 C 
ATOM      5  C   UNL     1       1.202   8.200  21.469  0.00  0.00    +0.000 C 
ATOM      6  C   UNL     1       0.060  10.304  22.163  0.00  0.00    +0.000 C 
ATOM      7  O   UNL     1       0.305  10.173  23.353  0.00  0.00    +0.000 OA
ATOM      8  N   UNL     1      -0.660  11.313  21.538  0.00  0.00    +0.000 N 
ENDROOT
BRANCH   5   9
ATOM      9  C   UNL     1       1.667   7.191  20.515  0.00  0.00    +0.000 A 
ATOM     10  C   UNL     1       2.227   7.586  19.298  0.00  0.00    +0.000 A 
ATOM     11  C   UNL     1       2.623   6.625  18.363  0.00  0.00    +0.000 A 
ATOM     12  C   UNL     1       2.473   5.252  18.627  0.00  0.00    +0.000 A 
ATOM     13  C   UNL     1       1.912   4.857  19.849  0.00  0.00    +0.000 A 
ATOM     14 CL   UNL     1       1.587   3.210  20.274  0.00  0.00    +0.000 Cl
ATOM     15  C   UNL     1       1.517   5.826  20.786  0.00  0.00    +0.000 A 
BRANCH  12  16
ATOM     16  C   UNL     1       2.884   4.336  17.531  0.00  0.00    +0.000 C 
ATOM     17  O   UNL     1       2.096   3.592  16.965  0.00  0.00    +0.000 OA
BRANCH  16  18
ATOM     18  O   UNL     1       4.186   4.507  17.193  0.00  0.00    +0.000 OA
ATOM     19  C   UNL     1       5.110   4.139  18.221  0.00  0.00    +0.000 C 
ENDBRANCH  16  18
ENDBRANCH  12  16
ENDBRANCH   5   9
BRANCH   8  20
ATOM     20  C   UNL     1      -1.214  12.390  22.286  0.00  0.00    +0.000 A 
ATOM     21  C   UNL     1      -2.464  12.219  22.908  0.00  0.00    +0.000 A 
ATOM     22  C   UNL     1      -3.027  13.240  23.680  0.00  0.00    +0.000 A 
ATOM     23  C   UNL     1      -2.352  14.447  23.830  0.00  0.00    +0.000 A 
ATOM     24  C   UNL     1      -1.124  14.640  23.196  0.00  0.00    +0.000 A 
ATOM     25  C   UNL     1      -0.545  13.626  22.410  0.00  0.00    +0.000 A 
ATOM     26  C   UNL     1       0.723  13.934  21.662  0.00  0.00    +0.000 C 
ENDBRANCH   8  20
BRANCH   1  27
ATOM     27  C   UNL     1      -1.749  11.796  18.054  0.00  0.00    +0.000 C 
BRANCH  27  29
ATOM     28  C   UNL     1      -3.379  10.775  16.398  0.00  0.00    +0.000 C 
ATOM     29  C   UNL     1      -3.138  11.194  17.842  0.00  0.00    +0.000 C 
ENDBRANCH  27  29
ENDBRANCH   1  27
TORSDOF 6
ENDMDL
MODEL 2
REMARK VINA RESULT:      -7.7      2.480      4.159
REMARK  Name = 
REMARK  9 active torsions:
REMARK  status: ('A' for Active; 'I' for Inactive)
REMARK    1  A    between atoms: C_1  and  C_2
REMARK    2  A    between atoms: C_2  and  C_3
REMARK    3  A    between atoms: C_3  and  N_4
REMARK    4  A    between atoms: C_8  and  C_9
REMARK    5  A    between atoms: C_12  and  C_13
REMARK    6  A    between atoms: C_13  and  O_15
REMARK    7  A    between atoms: O_15  and  C_16
REMARK    8  A    between atoms: N_22  and  C_23
REMARK    9  A    between atoms: C_28  and  C_29
REMARK                            x       y       z     vdW  Elec       q    Type
REMARK                         _______ _______ _______ _____ _____    ______ ____
ROOT
ATOM      1  N   UNL     1       0.460  10.760  21.523  0.00  0.00    +0.000 NA
ATOM      2  C   UNL     1       0.986  10.264  20.468  0.00  0.00    +0.000 C 
ATOM      3  S   UNL     1       1.387   8.579  20.205  0.00  0.00    +0.000 S 
ATOM      4  C   UNL     1       1.990   8.875  18.625  0.00  0.00    +0.000 C 
ATOM      5  C   UNL     1       2.523   7.976  17.780  0.00  0.00    +0.000 C 
ATOM      6  C   UNL     1       1.872  10.329  18.283  0.00  0.00    +0.000 C 
ATOM      7  O   UNL     1       2.299  10.786  17.233  0.00  0.00    +0.000 OA
ATOM      8  N   UNL     1       1.281  11.007  19.340  0.00  0.00    +0.000 N 
ENDROOT
BRANCH   5   9
ATOM      9  C   UNL     1       2.638   6.540  18.050  0.00  0.00    +0.000 A 
ATOM     10  C   UNL     1       1.518   5.714  17.923  0.00  0.00    +0.000 A 
ATOM     11  C   UNL     1       1.612   4.354  18.231  0.00  0.00    +0.000 A 
ATOM     12  C   UNL     1       2.826   3.791  18.664  0.00  0.00    +0.000 A 
ATOM     13  C   UNL     1       3.948   4.621  18.790  0.00  0.00    +0.000 A 
ATOM     14 CL   UNL     1       5.480   4.087  19.393  0.00  0.00    +0.000 Cl
ATOM     15  C   UNL     1       3.850   5.987  18.478  0.00  0.00    +0.000 A 
BRANCH  12  16
ATOM     16  C   UNL     1       2.780   2.345  19.008  0.00  0.00    +0.000 C 
ATOM     17  O   UNL     1       3.477   1.514  18.446  0.00  0.00    +0.000 OA
BRANCH  16  18
ATOM     18  O   UNL     1       1.960   2.104  20.060  0.00  0.00    +0.000 OA
ATOM     19  C   UNL     1       2.457   2.586  21.311  0.00  0.00    +0.000 C 
ENDBRANCH  16  18
ENDBRANCH  12  16
ENDBRANCH   5   9
BRANCH   8  20
ATOM     20  C   UNL     1       1.085  12.416  19.290  0.00  0.00    +0.000 A 
ATOM     21  C   UNL     1       2.108  13.266  19.747  0.00  0.00    +0.000 A 
ATOM     22  C   UNL     1       1.968  14.656  19.683  0.00  0.00    +0.000 A 
ATOM     23  C   UNL     1       0.801  15.211  19.171  0.00  0.00    +0.000 A 
ATOM     24  C   UNL     1      -0.233  14.381  18.738  0.00  0.00    +0.000 A 
ATOM     25  C   UNL     1      -0.113  12.979  18.801  0.00  0.00    +0.000 A 
ATOM     26  C   UNL     1      -1.303  12.140  18.426  0.00  0.00    +0.000 C 
ENDBRANCH   8  20
BRANCH   1  27
ATOM     27  C   UNL     1       0.164   9.919  22.675  0.00  0.00    +0.000 C 
BRANCH  27  29
ATOM     28  C   UNL     1      -1.495  11.823  22.922  0.00  0.00    +0.000 C 
ATOM     29  C   UNL     1      -1.161  10.382  23.282  0.00  0.00    +0.000 C 
ENDBRANCH  27  29
ENDBRANCH   1  27
TORSDOF 6
ENDMDL
MODEL 3
REMARK VINA RESULT:      -7.6      1.187      1.481
REMARK  Name = 
REMARK  9 active torsions:
REMARK  status: ('A' for Active; 'I' for Inactive)
REMARK    1  A    between atoms: C_1  and  C_2
REMARK    2  A    between atoms: C_2  and  C_3
REMARK    3  A    between atoms: C_3  and  N_4
REMARK    4  A    between atoms: C_8  and  C_9
REMARK    5  A    between atoms: C_12  and  C_13
REMARK    6  A    between atoms: C_13  and  O_15
REMARK    7  A    between atoms: O_15  and  C_16
REMARK    8  A    between atoms: N_22  and  C_23
REMARK    9  A    between atoms: C_28  and  C_29
REMARK                            x       y       z     vdW  Elec       q    Type
REMARK                         _______ _______ _______ _____ _____    ______ ____
ROOT
ATOM      1  N   UNL     1      -1.602  11.858  19.465  0.00  0.00    +0.000 NA
ATOM      2  C   UNL     1      -0.918  11.030  20.160  0.00  0.00    +0.000 C 
ATOM      3  S   UNL     1      -0.170   9.558  19.574  0.00  0.00    +0.000 S 
ATOM      4  C   UNL     1       0.472   9.162  21.117  0.00  0.00    +0.000 C 
ATOM      5  C   UNL     1       1.192   8.074  21.439  0.00  0.00    +0.000 C 
ATOM      6  C   UNL     1       0.102  10.209  22.122  0.00  0.00    +0.000 C 
ATOM      7  O   UNL     1       0.393  10.106  23.305  0.00  0.00    +0.000 OA
ATOM      8  N   UNL     1      -0.632  11.209  21.500  0.00  0.00    +0.000 N 
ENDROOT
BRANCH   5   9
ATOM      9  C   UNL     1       1.606   7.035  20.493  0.00  0.00    +0.000 A 
ATOM     10  C   UNL     1       1.188   5.715  20.678  0.00  0.00    +0.000 A 
ATOM     11  C   UNL     1       1.624   4.713  19.808  0.00  0.00    +0.000 A 
ATOM     12  C   UNL     1       2.483   5.008  18.734  0.00  0.00    +0.000 A 
ATOM     13  C   UNL     1       2.901   6.333  18.549  0.00  0.00    +0.000 A 
ATOM     14 CL   UNL     1       4.022   6.829  17.327  0.00  0.00    +0.000 Cl
ATOM     15  C   UNL     1       2.458   7.338  19.425  0.00  0.00    +0.000 A 
BRANCH  12  16
ATOM     16  C   UNL     1       2.915   3.845  17.914  0.00  0.00    +0.000 C 
ATOM     17  O   UNL     1       2.343   3.519  16.885  0.00  0.00    +0.000 OA
BRANCH  16  18
ATOM     18  O   UNL     1       4.048   3.281  18.398  0.00  0.00    +0.000 OA
ATOM     19  C   UNL     1       3.859   1.980  18.961  0.00  0.00    +0.000 C 
ENDBRANCH  16  18
ENDBRANCH  12  16
ENDBRANCH   5   9
BRANCH   8  20
ATOM     20  C   UNL     1      -1.144  12.312  22.241  0.00  0.00    +0.000 A 
ATOM     21  C   UNL     1      -2.381  12.180  22.898  0.00  0.00    +0.000 A 
ATOM     22  C   UNL     1      -2.902  13.228  23.664  0.00  0.00    +0.000 A 
ATOM     23  C   UNL     1      -2.198  14.422  23.774  0.00  0.00    +0.000 A 
ATOM     24  C   UNL     1      -0.983  14.577  23.106  0.00  0.00    +0.000 A 
ATOM     25  C   UNL     1      -0.446  13.535  22.325  0.00  0.00    +0.000 A 
ATOM     26  C   UNL     1       0.808  13.802  21.539  0.00  0.00    +0.000 C 
ENDBRANCH   8  20
BRANCH   1  27
ATOM     27  C   UNL     1      -1.858  11.614  18.052  0.00  0.00    +0.000 C 
BRANCH  27  29
ATOM     28  C   UNL     1      -4.240  11.576  17.176  0.00  0.00    +0.000 C 
ATOM     29  C   UNL     1      -3.157  10.815  17.930  0.00  0.00    +0.000 C 
ENDBRANCH  27  29
ENDBRANCH   1  27
TORSDOF 6
ENDMDL
MODEL 4
REMARK VINA RESULT:      -7.4      1.620      1.830
REMARK  Name = 
REMARK  9 active torsions:
REMARK  status: ('A' for Active; 'I' for Inactive)
REMARK    1  A    between atoms: C_1  and  C_2
REMARK    2  A    between atoms: C_2  and  C_3
REMARK    3  A    between atoms: C_3  and  N_4
REMARK    4  A    between atoms: C_8  and  C_9
REMARK    5  A    between atoms: C_12  and  C_13
REMARK    6  A    between atoms: C_13  and  O_15
REMARK    7  A    between atoms: O_15  and  C_16
REMARK    8  A    between atoms: N_22  and  C_23
REMARK    9  A    between atoms: C_28  and  C_29
REMARK                            x       y       z     vdW  Elec       q    Type
REMARK                         _______ _______ _______ _____ _____    ______ ____
ROOT
ATOM      1  N   UNL     1      -1.960  11.601  17.729  0.00  0.00    +0.000 NA
ATOM      2  C   UNL     1      -1.104  11.123  18.551  0.00  0.00    +0.000 C 
ATOM      3  S   UNL     1      -0.295   9.575  18.419  0.00  0.00    +0.000 S 
ATOM      4  C   UNL     1       0.591   9.812  19.871  0.00  0.00    +0.000 C 
ATOM      5  C   UNL     1       1.458   8.957  20.439  0.00  0.00    +0.000 C 
ATOM      6  C   UNL     1       0.255  11.139  20.479  0.00  0.00    +0.000 C 
ATOM      7  O   UNL     1       0.715  11.497  21.553  0.00  0.00    +0.000 OA
ATOM      8  N   UNL     1      -0.658  11.802  19.670  0.00  0.00    +0.000 N 
ENDROOT
BRANCH   5   9
ATOM      9  C   UNL     1       1.845   7.661  19.876  0.00  0.00    +0.000 A 
ATOM     10  C   UNL     1       2.555   7.605  18.675  0.00  0.00    +0.000 A 
ATOM     11  C   UNL     1       2.880   6.370  18.108  0.00  0.00    +0.000 A 
ATOM     12  C   UNL     1       2.507   5.166  18.733  0.00  0.00    +0.000 A 
ATOM     13  C   UNL     1       1.795   5.223  19.939  0.00  0.00    +0.000 A 
ATOM     14 CL   UNL     1       1.197   3.829  20.773  0.00  0.00    +0.000 Cl
ATOM     15  C   UNL     1       1.473   6.467  20.505  0.00  0.00    +0.000 A 
BRANCH  12  16
ATOM     16  C   UNL     1       2.867   3.922  18.002  0.00  0.00    +0.000 C 
ATOM     17  O   UNL     1       2.086   3.349  17.256  0.00  0.00    +0.000 OA
BRANCH  16  18
ATOM     18  O   UNL     1       4.165   3.582  18.195  0.00  0.00    +0.000 OA
ATOM     19  C   UNL     1       4.410   2.878  19.415  0.00  0.00    +0.000 C 
ENDBRANCH  16  18
ENDBRANCH  12  16
ENDBRANCH   5   9
BRANCH   8  20
ATOM     20  C   UNL     1      -1.176  13.076  20.038  0.00  0.00    +0.000 A 
ATOM     21  C   UNL     1      -2.390  13.142  20.746  0.00  0.00    +0.000 A 
ATOM     22  C   UNL     1      -2.914  14.372  21.155  0.00  0.00    +0.000 A 
ATOM     23  C   UNL     1      -2.237  15.549  20.854  0.00  0.00    +0.000 A 
ATOM     24  C   UNL     1      -1.045  15.500  20.130  0.00  0.00    +0.000 A 
ATOM     25  C   UNL     1      -0.505  14.271  19.703  0.00  0.00    +0.000 A 
ATOM     26  C   UNL     1       0.719  14.291  18.831  0.00  0.00    +0.000 C 
ENDBRANCH   8  20
BRANCH   1  27
ATOM     27  C   UNL     1      -2.381  10.837  16.562  0.00  0.00    +0.000 C 
BRANCH  27  29
ATOM     28  C   UNL     1      -4.591  11.656  17.503  0.00  0.00    +0.000 C 
ATOM     29  C   UNL     1      -3.843  11.175  16.267  0.00  0.00    +0.000 C 
ENDBRANCH  27  29
ENDBRANCH   1  27
TORSDOF 6
ENDMDL
MODEL 5
REMARK VINA RESULT:      -7.4      0.709      1.097
REMARK  Name = 
REMARK  9 active torsions:
REMARK  status: ('A' for Active; 'I' for Inactive)
REMARK    1  A    between atoms: C_1  and  C_2
REMARK    2  A    between atoms: C_2  and  C_3
REMARK    3  A    between atoms: C_3  and  N_4
REMARK    4  A    between atoms: C_8  and  C_9
REMARK    5  A    between atoms: C_12  and  C_13
REMARK    6  A    between atoms: C_13  and  O_15
REMARK    7  A    between atoms: O_15  and  C_16
REMARK    8  A    between atoms: N_22  and  C_23
REMARK    9  A    between atoms: C_28  and  C_29
REMARK                            x       y       z     vdW  Elec       q    Type
REMARK                         _______ _______ _______ _____ _____    ______ ____
ROOT
ATOM      1  N   UNL     1      -1.850  11.980  19.783  0.00  0.00    +0.000 NA
ATOM      2  C   UNL     1      -1.139  11.151  20.449  0.00  0.00    +0.000 C 
ATOM      3  S   UNL     1      -0.297   9.757  19.804  0.00  0.00    +0.000 S 
ATOM      4  C   UNL     1       0.327   9.308  21.340  0.00  0.00    +0.000 C 
ATOM      5  C   UNL     1       1.097   8.244  21.621  0.00  0.00    +0.000 C 
ATOM      6  C   UNL     1      -0.125  10.274  22.391  0.00  0.00    +0.000 C 
ATOM      7  O   UNL     1       0.141  10.120  23.573  0.00  0.00    +0.000 OA
ATOM      8  N   UNL     1      -0.898  11.268  21.805  0.00  0.00    +0.000 N 
ENDROOT
BRANCH   5   9
ATOM      9  C   UNL     1       1.592   7.284  20.631  0.00  0.00    +0.000 A 
ATOM     10  C   UNL     1       2.243   7.739  19.482  0.00  0.00    +0.000 A 
ATOM     11  C   UNL     1       2.670   6.829  18.510  0.00  0.00    +0.000 A 
ATOM     12  C   UNL     1       2.460   5.448  18.669  0.00  0.00    +0.000 A 
ATOM     13  C   UNL     1       1.807   4.992  19.823  0.00  0.00    +0.000 A 
ATOM     14 CL   UNL     1       1.403   3.334  20.113  0.00  0.00    +0.000 Cl
ATOM     15  C   UNL     1       1.382   5.910  20.798  0.00  0.00    +0.000 A 
BRANCH  12  16
ATOM     16  C   UNL     1       2.914   4.592  17.541  0.00  0.00    +0.000 C 
ATOM     17  O   UNL     1       2.205   3.729  17.045  0.00  0.00    +0.000 OA
BRANCH  16  18
ATOM     18  O   UNL     1       4.139   4.958  17.093  0.00  0.00    +0.000 OA
ATOM     19  C   UNL     1       4.912   3.881  16.558  0.00  0.00    +0.000 C 
ENDBRANCH  16  18
ENDBRANCH  12  16
ENDBRANCH   5   9
BRANCH   8  20
ATOM     20  C   UNL     1      -1.488  12.298  22.592  0.00  0.00    +0.000 A 
ATOM     21  C   UNL     1      -2.734  12.063  23.202  0.00  0.00    +0.000 A 
ATOM     22  C   UNL     1      -3.331  13.036  24.010  0.00  0.00    +0.000 A 
ATOM     23  C   UNL     1      -2.695  14.257  24.209  0.00  0.00    +0.000 A 
ATOM     24  C   UNL     1      -1.472  14.513  23.589  0.00  0.00    +0.000 A 
ATOM     25  C   UNL     1      -0.858  13.548  22.767  0.00  0.00    +0.000 A 
ATOM     26  C   UNL     1       0.401  13.925  22.037  0.00  0.00    +0.000 C 
ENDBRANCH   8  20
BRANCH   1  27
ATOM     27  C   UNL     1      -2.057  11.803  18.352  0.00  0.00    +0.000 C 
BRANCH  27  29
ATOM     28  C   UNL     1      -0.293  13.621  18.507  0.00  0.00    +0.000 C 
ATOM     29  C   UNL     1      -0.990  12.608  17.609  0.00  0.00    +0.000 C 
ENDBRANCH  27  29
ENDBRANCH   1  27
TORSDOF 6
ENDMDL
MODEL 6
REMARK VINA RESULT:      -7.4      1.597      2.139
REMARK  Name = 
REMARK  9 active torsions:
REMARK  status: ('A' for Active; 'I' for Inactive)
REMARK    1  A    between atoms: C_1  and  C_2
REMARK    2  A    between atoms: C_2  and  C_3
REMARK    3  A    between atoms: C_3  and  N_4
REMARK    4  A    between atoms: C_8  and  C_9
REMARK    5  A    between atoms: C_12  and  C_13
REMARK    6  A    between atoms: C_13  and  O_15
REMARK    7  A    between atoms: O_15  and  C_16
REMARK    8  A    between atoms: N_22  and  C_23
REMARK    9  A    between atoms: C_28  and  C_29
REMARK                            x       y       z     vdW  Elec       q    Type
REMARK                         _______ _______ _______ _____ _____    ______ ____
ROOT
ATOM      1  N   UNL     1      -2.273  11.434  18.273  0.00  0.00    +0.000 NA
ATOM      2  C   UNL     1      -1.237  11.023  18.900  0.00  0.00    +0.000 C 
ATOM      3  S   UNL     1      -0.468   9.460  18.715  0.00  0.00    +0.000 S 
ATOM      4  C   UNL     1       0.745   9.817  19.878  0.00  0.00    +0.000 C 
ATOM      5  C   UNL     1       1.733   9.006  20.291  0.00  0.00    +0.000 C 
ATOM      6  C   UNL     1       0.554  11.198  20.426  0.00  0.00    +0.000 C 
ATOM      7  O   UNL     1       1.259  11.646  21.317  0.00  0.00    +0.000 OA
ATOM      8  N   UNL     1      -0.537  11.794  19.808  0.00  0.00    +0.000 N 
ENDROOT
BRANCH   5   9
ATOM      9  C   UNL     1       1.984   7.660  19.771  0.00  0.00    +0.000 A 
ATOM     10  C   UNL     1       2.519   7.494  18.491  0.00  0.00    +0.000 A 
ATOM     11  C   UNL     1       2.710   6.211  17.972  0.00  0.00    +0.000 A 
ATOM     12  C   UNL     1       2.378   5.068  18.722  0.00  0.00    +0.000 A 
ATOM     13  C   UNL     1       1.842   5.236  20.006  0.00  0.00    +0.000 A 
ATOM     14 CL   UNL     1       1.307   3.929  21.007  0.00  0.00    +0.000 Cl
ATOM     15  C   UNL     1       1.653   6.528  20.525  0.00  0.00    +0.000 A 
BRANCH  12  16
ATOM     16  C   UNL     1       2.581   3.765  18.036  0.00  0.00    +0.000 C 
ATOM     17  O   UNL     1       1.900   3.410  17.085  0.00  0.00    +0.000 OA
BRANCH  16  18
ATOM     18  O   UNL     1       3.650   3.096  18.532  0.00  0.00    +0.000 OA
ATOM     19  C   UNL     1       3.473   1.679  18.599  0.00  0.00    +0.000 C 
ENDBRANCH  16  18
ENDBRANCH  12  16
ENDBRANCH   5   9
BRANCH   8  20
ATOM     20  C   UNL     1      -0.962  13.103  20.175  0.00  0.00    +0.000 A 
ATOM     21  C   UNL     1      -0.467  14.208  19.459  0.00  0.00    +0.000 A 
ATOM     22  C   UNL     1      -0.887  15.507  19.766  0.00  0.00    +0.000 A 
ATOM     23  C   UNL     1      -1.798  15.716  20.796  0.00  0.00    +0.000 A 
ATOM     24  C   UNL     1      -2.277  14.631  21.531  0.00  0.00    +0.000 A 
ATOM     25  C   UNL     1      -1.861  13.317  21.241  0.00  0.00    +0.000 A 
ATOM     26  C   UNL     1      -2.324  12.204  22.140  0.00  0.00    +0.000 C 
ENDBRANCH   8  20
BRANCH   1  27
ATOM     27  C   UNL     1      -2.959  10.572  17.320  0.00  0.00    +0.000 C 
BRANCH  27  29
ATOM     28  C   UNL     1      -2.914  10.132  14.820  0.00  0.00    +0.000 C 
ATOM     29  C   UNL     1      -2.801  11.176  15.924  0.00  0.00    +0.000 C 
ENDBRANCH  27  29
ENDBRANCH   1  27
TORSDOF 6
ENDMDL
MODEL 7
REMARK VINA RESULT:      -7.2      2.451      3.963
REMARK  Name = 
REMARK  9 active torsions:
REMARK  status: ('A' for Active; 'I' for Inactive)
REMARK    1  A    between atoms: C_1  and  C_2
REMARK    2  A    between atoms: C_2  and  C_3
REMARK    3  A    between atoms: C_3  and  N_4
REMARK    4  A    between atoms: C_8  and  C_9
REMARK    5  A    between atoms: C_12  and  C_13
REMARK    6  A    between atoms: C_13  and  O_15
REMARK    7  A    between atoms: O_15  and  C_16
REMARK    8  A    between atoms: N_22  and  C_23
REMARK    9  A    between atoms: C_28  and  C_29
REMARK                            x       y       z     vdW  Elec       q    Type
REMARK                         _______ _______ _______ _____ _____    ______ ____
ROOT
ATOM      1  N   UNL     1       0.022  11.438  21.629  0.00  0.00    +0.000 NA
ATOM      2  C   UNL     1       0.624  10.806  20.693  0.00  0.00    +0.000 C 
ATOM      3  S   UNL     1       0.904   9.079  20.624  0.00  0.00    +0.000 S 
ATOM      4  C   UNL     1       1.715   9.179  19.113  0.00  0.00    +0.000 C 
ATOM      5  C   UNL     1       2.263   8.167  18.420  0.00  0.00    +0.000 C 
ATOM      6  C   UNL     1       1.766  10.599  18.639  0.00  0.00    +0.000 C 
ATOM      7  O   UNL     1       2.353  10.922  17.618  0.00  0.00    +0.000 OA
ATOM      8  N   UNL     1       1.115  11.416  19.554  0.00  0.00    +0.000 N 
ENDROOT
BRANCH   5   9
ATOM      9  C   UNL     1       2.219   6.758  18.820  0.00  0.00    +0.000 A 
ATOM     10  C   UNL     1       2.084   6.419  20.168  0.00  0.00    +0.000 A 
ATOM     11  C   UNL     1       2.095   5.077  20.558  0.00  0.00    +0.000 A 
ATOM     12  C   UNL     1       2.234   4.047  19.610  0.00  0.00    +0.000 A 
ATOM     13  C   UNL     1       2.368   4.389  18.257  0.00  0.00    +0.000 A 
ATOM     14 CL   UNL     1       2.633   3.237  16.993  0.00  0.00    +0.000 Cl
ATOM     15  C   UNL     1       2.355   5.739  17.870  0.00  0.00    +0.000 A 
BRANCH  12  16
ATOM     16  C   UNL     1       2.282   2.667  20.159  0.00  0.00    +0.000 C 
ATOM     17  O   UNL     1       1.449   1.818  19.876  0.00  0.00    +0.000 OA
BRANCH  16  18
ATOM     18  O   UNL     1       3.392   2.461  20.909  0.00  0.00    +0.000 OA
ATOM     19  C   UNL     1       4.548   2.091  20.154  0.00  0.00    +0.000 C 
ENDBRANCH  16  18
ENDBRANCH  12  16
ENDBRANCH   5   9
BRANCH   8  20
ATOM     20  C   UNL     1       1.051  12.825  19.363  0.00  0.00    +0.000 A 
ATOM     21  C   UNL     1       2.120  13.625  19.804  0.00  0.00    +0.000 A 
ATOM     22  C   UNL     1       2.110  15.010  19.605  0.00  0.00    +0.000 A 
ATOM     23  C   UNL     1       1.028  15.610  18.970  0.00  0.00    +0.000 A 
ATOM     24  C   UNL     1      -0.051  14.832  18.550  0.00  0.00    +0.000 A 
ATOM     25  C   UNL     1      -0.062  13.438  18.749  0.00  0.00    +0.000 A 
ATOM     26  C   UNL     1      -1.301  12.671  18.377  0.00  0.00    +0.000 C 
ENDBRANCH   8  20
BRANCH   1  27
ATOM     27  C   UNL     1      -0.480  10.732  22.801  0.00  0.00    +0.000 C 
BRANCH  27  29
ATOM     28  C   UNL     1      -2.163  12.580  22.358  0.00  0.00    +0.000 C 
ATOM     29  C   UNL     1      -1.801  11.378  23.221  0.00  0.00    +0.000 C 
ENDBRANCH  27  29
ENDBRANCH   1  27
TORSDOF 6
ENDMDL
MODEL 8
REMARK VINA RESULT:      -7.2      2.298      3.949
REMARK  Name = 
REMARK  9 active torsions:
REMARK  status: ('A' for Active; 'I' for Inactive)
REMARK    1  A    between atoms: C_1  and  C_2
REMARK    2  A    between atoms: C_2  and  C_3
REMARK    3  A    between atoms: C_3  and  N_4
REMARK    4  A    between atoms: C_8  and  C_9
REMARK    5  A    between atoms: C_12  and  C_13
REMARK    6  A    between atoms: C_13  and  O_15
REMARK    7  A    between atoms: O_15  and  C_16
REMARK    8  A    between atoms: N_22  and  C_23
REMARK    9  A    between atoms: C_28  and  C_29
REMARK                            x       y       z     vdW  Elec       q    Type
REMARK                         _______ _______ _______ _____ _____    ______ ____
ROOT
ATOM      1  N   UNL     1       0.440  10.743  21.519  0.00  0.00    +0.000 NA
ATOM      2  C   UNL     1       1.011  10.276  20.473  0.00  0.00    +0.000 C 
ATOM      3  S   UNL     1       1.467   8.607  20.200  0.00  0.00    +0.000 S 
ATOM      4  C   UNL     1       2.108   8.943  18.642  0.00  0.00    +0.000 C 
ATOM      5  C   UNL     1       2.691   8.071  17.802  0.00  0.00    +0.000 C 
ATOM      6  C   UNL     1       1.959  10.397  18.316  0.00  0.00    +0.000 C 
ATOM      7  O   UNL     1       2.404  10.881  17.286  0.00  0.00    +0.000 OA
ATOM      8  N   UNL     1       1.318  11.043  19.365  0.00  0.00    +0.000 N 
ENDROOT
BRANCH   5   9
ATOM      9  C   UNL     1       2.838   6.635  18.055  0.00  0.00    +0.000 A 
ATOM     10  C   UNL     1       3.860   5.917  17.431  0.00  0.00    +0.000 A 
ATOM     11  C   UNL     1       3.971   4.538  17.629  0.00  0.00    +0.000 A 
ATOM     12  C   UNL     1       3.067   3.850  18.459  0.00  0.00    +0.000 A 
ATOM     13  C   UNL     1       2.042   4.572  19.085  0.00  0.00    +0.000 A 
ATOM     14 CL   UNL     1       0.809   3.849  20.061  0.00  0.00    +0.000 Cl
ATOM     15  C   UNL     1       1.936   5.959  18.885  0.00  0.00    +0.000 A 
BRANCH  12  16
ATOM     16  C   UNL     1       3.262   2.379  18.545  0.00  0.00    +0.000 C 
ATOM     17  O   UNL     1       2.486   1.583  18.036  0.00  0.00    +0.000 OA
BRANCH  16  18
ATOM     18  O   UNL     1       4.428   2.060  19.157  0.00  0.00    +0.000 OA
ATOM     19  C   UNL     1       4.388   2.168  20.583  0.00  0.00    +0.000 C 
ENDBRANCH  16  18
ENDBRANCH  12  16
ENDBRANCH   5   9
BRANCH   8  20
ATOM     20  C   UNL     1       1.084  12.447  19.328  0.00  0.00    +0.000 A 
ATOM     21  C   UNL     1       2.077  13.319  19.809  0.00  0.00    +0.000 A 
ATOM     22  C   UNL     1       1.900  14.706  19.759  0.00  0.00    +0.000 A 
ATOM     23  C   UNL     1       0.725  15.235  19.236  0.00  0.00    +0.000 A 
ATOM     24  C   UNL     1      -0.280  14.381  18.780  0.00  0.00    +0.000 A 
ATOM     25  C   UNL     1      -0.122  12.983  18.828  0.00  0.00    +0.000 A 
ATOM     26  C   UNL     1      -1.283  12.116  18.427  0.00  0.00    +0.000 C 
ENDBRANCH   8  20
BRANCH   1  27
ATOM     27  C   UNL     1       0.134   9.877  22.650  0.00  0.00    +0.000 C 
BRANCH  27  29
ATOM     28  C   UNL     1      -1.529  11.782  22.858  0.00  0.00    +0.000 C 
ATOM     29  C   UNL     1      -1.158  10.373  23.300  0.00  0.00    +0.000 C 
ENDBRANCH  27  29
ENDBRANCH   1  27
TORSDOF 6
ENDMDL
MODEL 9
REMARK VINA RESULT:      -7.1      1.523      1.672
REMARK  Name = 
REMARK  9 active torsions:
REMARK  status: ('A' for Active; 'I' for Inactive)
REMARK    1  A    between atoms: C_1  and  C_2
REMARK    2  A    between atoms: C_2  and  C_3
REMARK    3  A    between atoms: C_3  and  N_4
REMARK    4  A    between atoms: C_8  and  C_9
REMARK    5  A    between atoms: C_12  and  C_13
REMARK    6  A    between atoms: C_13  and  O_15
REMARK    7  A    between atoms: O_15  and  C_16
REMARK    8  A    between atoms: N_22  and  C_23
REMARK    9  A    between atoms: C_28  and  C_29
REMARK                            x       y       z     vdW  Elec       q    Type
REMARK                         _______ _______ _______ _____ _____    ______ ____
ROOT
ATOM      1  N   UNL     1      -2.916  11.643  18.612  0.00  0.00    +0.000 NA
ATOM      2  C   UNL     1      -1.859  11.298  19.245  0.00  0.00    +0.000 C 
ATOM      3  S   UNL     1      -0.908   9.855  18.962  0.00  0.00    +0.000 S 
ATOM      4  C   UNL     1       0.217  10.243  20.201  0.00  0.00    +0.000 C 
ATOM      5  C   UNL     1       1.279   9.517  20.586  0.00  0.00    +0.000 C 
ATOM      6  C   UNL     1      -0.151  11.540  20.854  0.00  0.00    +0.000 C 
ATOM      7  O   UNL     1       0.468  11.985  21.809  0.00  0.00    +0.000 OA
ATOM      8  N   UNL     1      -1.284  12.061  20.244  0.00  0.00    +0.000 N 
ENDROOT
BRANCH   5   9
ATOM      9  C   UNL     1       1.702   8.259  19.965  0.00  0.00    +0.000 A 
ATOM     10  C   UNL     1       2.234   8.261  18.674  0.00  0.00    +0.000 A 
ATOM     11  C   UNL     1       2.589   7.057  18.059  0.00  0.00    +0.000 A 
ATOM     12  C   UNL     1       2.426   5.828  18.724  0.00  0.00    +0.000 A 
ATOM     13  C   UNL     1       1.893   5.827  20.020  0.00  0.00    +0.000 A 
ATOM     14 CL   UNL     1       1.555   4.390  20.924  0.00  0.00    +0.000 Cl
ATOM     15  C   UNL     1       1.539   7.040  20.634  0.00  0.00    +0.000 A 
BRANCH  12  16
ATOM     16  C   UNL     1       2.793   4.618  17.942  0.00  0.00    +0.000 C 
ATOM     17  O   UNL     1       1.962   3.931  17.367  0.00  0.00    +0.000 OA
BRANCH  16  18
ATOM     18  O   UNL     1       4.136   4.449  17.877  0.00  0.00    +0.000 OA
ATOM     19  C   UNL     1       4.584   3.779  16.696  0.00  0.00    +0.000 C 
ENDBRANCH  16  18
ENDBRANCH  12  16
ENDBRANCH   5   9
BRANCH   8  20
ATOM     20  C   UNL     1      -1.870  13.275  20.700  0.00  0.00    +0.000 A 
ATOM     21  C   UNL     1      -2.917  13.219  21.638  0.00  0.00    +0.000 A 
ATOM     22  C   UNL     1      -3.496  14.390  22.137  0.00  0.00    +0.000 A 
ATOM     23  C   UNL     1      -3.043  15.629  21.698  0.00  0.00    +0.000 A 
ATOM     24  C   UNL     1      -2.023  15.699  20.747  0.00  0.00    +0.000 A 
ATOM     25  C   UNL     1      -1.433  14.531  20.229  0.00  0.00    +0.000 A 
ATOM     26  C   UNL     1      -0.419  14.669  19.126  0.00  0.00    +0.000 C 
ENDBRANCH   8  20
BRANCH   1  27
ATOM     27  C   UNL     1      -3.466  10.796  17.561  0.00  0.00    +0.000 C 
BRANCH  27  29
ATOM     28  C   UNL     1      -2.829  10.284  15.159  0.00  0.00    +0.000 C 
ATOM     29  C   UNL     1      -3.037  11.367  16.209  0.00  0.00    +0.000 C 
ENDBRANCH  27  29
ENDBRANCH   1  27
TORSDOF 6
ENDMDL
