MODEL 1
REMARK VINA RESULT:      -8.1      0.000      0.000
REMARK  Name = 
REMARK  7 active torsions:
REMARK  status: ('A' for Active; 'I' for Inactive)
REMARK    1  A    between atoms: C_1  and  O_2
REMARK    2  A    between atoms: O_2  and  C_3
REMARK    3  A    between atoms: C_3  and  C_5
REMARK    4  A    between atoms: C_8  and  N_9
REMARK    5  A    between atoms: C_10  and  C_12
REMARK    6  A    between atoms: C_12  and  N_13
REMARK    7  A    between atoms: C_18  and  C_19
REMARK                            x       y       z     vdW  Elec       q    Type
REMARK                         _______ _______ _______ _____ _____    ______ ____
ROOT
ATOM      1  N   UNL     1       0.165  11.491  19.299  0.00  0.00    +0.000 N 
ATOM      2  N   UNL     1       0.977  10.666  18.550  0.00  0.00    +0.000 NA
ATOM      3  C   UNL     1       1.113   9.624  19.309  0.00  0.00    +0.000 A 
ATOM      4  C   UNL     1       1.854   8.456  19.008  0.00  0.00    +0.000 A 
ATOM      5  C   UNL     1       2.563   8.066  17.909  0.00  0.00    +0.000 A 
ATOM      6  C   UNL     1       3.065   6.785  18.236  0.00  0.00    +0.000 A 
ATOM      7  N   UNL     1       2.692   6.420  19.477  0.00  0.00    +0.000 NA
ATOM      8  N   UNL     1       1.923   7.438  19.939  0.00  0.00    +0.000 N 
ATOM      9  C   UNL     1       1.248   7.557  21.164  0.00  0.00    +0.000 A 
ATOM     10  C   UNL     1       0.525   8.662  21.442  0.00  0.00    +0.000 A 
ATOM     11  N   UNL     1       0.478   9.672  20.510  0.00  0.00    +0.000 N 
ATOM     12  C   UNL     1      -0.189  10.877  20.521  0.00  0.00    +0.000 A 
ATOM     13  O   UNL     1      -0.942  11.310  21.376  0.00  0.00    +0.000 OA
ENDROOT
BRANCH   6  14
ATOM     14  C   UNL     1       3.913   5.958  17.377  0.00  0.00    +0.000 A 
ATOM     15  C   UNL     1       3.852   4.560  17.435  0.00  0.00    +0.000 A 
ATOM     16  C   UNL     1       4.736   3.785  16.678  0.00  0.00    +0.000 A 
ATOM     17  C   UNL     1       5.672   4.406  15.859  0.00  0.00    +0.000 A 
ATOM     18  F   UNL     1       6.532   3.662  15.153  0.00  0.00    +0.000 F 
ATOM     19  C   UNL     1       5.730   5.790  15.766  0.00  0.00    +0.000 A 
ATOM     20  C   UNL     1       4.849   6.566  16.522  0.00  0.00    +0.000 A 
ENDBRANCH   6  14
BRANCH   1  21
ATOM     21  C   UNL     1      -0.422  12.688  18.743  0.00  0.00    +0.000 C 
BRANCH  21  23
ATOM     22  N   UNL     1       1.816  13.710  18.901  0.00  0.00    +0.000 N 
ATOM     23  C   UNL     1       0.450  13.938  18.838  0.00  0.00    +0.000 C 
ATOM     24  O   UNL     1      -0.087  15.046  18.814  0.00  0.00    +0.000 OA
ATOM     25  H   UNL     1       2.103  12.760  18.671  0.00  0.00    +0.000 HD
BRANCH  22  29
ATOM     26  C   UNL     1       4.805  16.686  19.300  0.00  0.00    +0.000 A 
ATOM     27  C   UNL     1       4.357  15.992  20.426  0.00  0.00    +0.000 A 
ATOM     28  C   UNL     1       3.377  15.002  20.305  0.00  0.00    +0.000 A 
ATOM     29  C   UNL     1       2.822  14.688  19.062  0.00  0.00    +0.000 A 
ATOM     30  C   UNL     1       3.292  15.361  17.928  0.00  0.00    +0.000 A 
ATOM     31  C   UNL     1       4.270  16.363  18.047  0.00  0.00    +0.000 A 
BRANCH  26  32
ATOM     32  C   UNL     1       5.847  17.731  19.497  0.00  0.00    +0.000 C 
ATOM     33  O   UNL     1       5.757  18.629  20.324  0.00  0.00    +0.000 OA
BRANCH  32  35
ATOM     34  C   UNL     1       7.890  16.660  19.140  0.00  0.00    +0.000 C 
ATOM     35  O   UNL     1       6.883  17.544  18.643  0.00  0.00    +0.000 OA
ENDBRANCH  32  35
ENDBRANCH  26  32
ENDBRANCH  22  29
ENDBRANCH  21  23
ENDBRANCH   1  21
TORSDOF 6
ENDMDL
MODEL 2
REMARK VINA RESULT:      -7.9      0.540      1.233
REMARK  Name = 
REMARK  7 active torsions:
REMARK  status: ('A' for Active; 'I' for Inactive)
REMARK    1  A    between atoms: C_1  and  O_2
REMARK    2  A    between atoms: O_2  and  C_3
REMARK    3  A    between atoms: C_3  and  C_5
REMARK    4  A    between atoms: C_8  and  N_9
REMARK    5  A    between atoms: C_10  and  C_12
REMARK    6  A    between atoms: C_12  and  N_13
REMARK    7  A    between atoms: C_18  and  C_19
REMARK                            x       y       z     vdW  Elec       q    Type
REMARK                         _______ _______ _______ _____ _____    ______ ____
ROOT
ATOM      1  N   UNL     1       0.368  11.683  19.319  0.00  0.00    +0.000 N 
ATOM      2  N   UNL     1       1.164  10.835  18.578  0.00  0.00    +0.000 NA
ATOM      3  C   UNL     1       1.239   9.778  19.325  0.00  0.00    +0.000 A 
ATOM      4  C   UNL     1       1.938   8.584  19.025  0.00  0.00    +0.000 A 
ATOM      5  C   UNL     1       2.657   8.180  17.938  0.00  0.00    +0.000 A 
ATOM      6  C   UNL     1       3.098   6.876  18.259  0.00  0.00    +0.000 A 
ATOM      7  N   UNL     1       2.680   6.510  19.484  0.00  0.00    +0.000 NA
ATOM      8  N   UNL     1       1.943   7.553  19.943  0.00  0.00    +0.000 N 
ATOM      9  C   UNL     1       1.244   7.683  21.153  0.00  0.00    +0.000 A 
ATOM     10  C   UNL     1       0.560   8.813  21.429  0.00  0.00    +0.000 A 
ATOM     11  N   UNL     1       0.577   9.837  20.511  0.00  0.00    +0.000 N 
ATOM     12  C   UNL     1      -0.040  11.068  20.523  0.00  0.00    +0.000 A 
ATOM     13  O   UNL     1      -0.795  11.520  21.366  0.00  0.00    +0.000 OA
ENDROOT
BRANCH   6  14
ATOM     14  C   UNL     1       3.933   6.026  17.408  0.00  0.00    +0.000 A 
ATOM     15  C   UNL     1       4.794   6.584  16.455  0.00  0.00    +0.000 A 
ATOM     16  C   UNL     1       5.512   5.759  15.585  0.00  0.00    +0.000 A 
ATOM     17  C   UNL     1       5.376   4.378  15.675  0.00  0.00    +0.000 A 
ATOM     18  F   UNL     1       6.047   3.590  14.825  0.00  0.00    +0.000 F 
ATOM     19  C   UNL     1       4.550   3.803  16.631  0.00  0.00    +0.000 A 
ATOM     20  C   UNL     1       3.831   4.627  17.500  0.00  0.00    +0.000 A 
ENDBRANCH   6  14
BRANCH   1  21
ATOM     21  C   UNL     1      -0.156  12.910  18.766  0.00  0.00    +0.000 C 
BRANCH  21  23
ATOM     22  N   UNL     1       2.141  13.769  19.025  0.00  0.00    +0.000 N 
ATOM     23  C   UNL     1       0.814  14.090  18.783  0.00  0.00    +0.000 C 
ATOM     24  O   UNL     1       0.385  15.220  18.547  0.00  0.00    +0.000 OA
ATOM     25  H   UNL     1       2.361  12.777  18.962  0.00  0.00    +0.000 HD
BRANCH  22  29
ATOM     26  C   UNL     1       5.336  16.507  19.524  0.00  0.00    +0.000 A 
ATOM     27  C   UNL     1       5.283  15.696  18.388  0.00  0.00    +0.000 A 
ATOM     28  C   UNL     1       4.228  14.795  18.209  0.00  0.00    +0.000 A 
ATOM     29  C   UNL     1       3.211  14.681  19.159  0.00  0.00    +0.000 A 
ATOM     30  C   UNL     1       3.247  15.514  20.283  0.00  0.00    +0.000 A 
ATOM     31  C   UNL     1       4.309  16.414  20.472  0.00  0.00    +0.000 A 
BRANCH  26  32
ATOM     32  C   UNL     1       6.487  17.441  19.657  0.00  0.00    +0.000 C 
ATOM     33  O   UNL     1       6.833  17.943  20.719  0.00  0.00    +0.000 OA
BRANCH  32  35
ATOM     34  C   UNL     1       8.505  17.720  18.517  0.00  0.00    +0.000 C 
ATOM     35  O   UNL     1       7.078  17.650  18.455  0.00  0.00    +0.000 OA
ENDBRANCH  32  35
ENDBRANCH  26  32
ENDBRANCH  22  29
ENDBRANCH  21  23
ENDBRANCH   1  21
TORSDOF 6
ENDMDL
MODEL 3
REMARK VINA RESULT:      -7.8      0.758      1.239
REMARK  Name = 
REMARK  7 active torsions:
REMARK  status: ('A' for Active; 'I' for Inactive)
REMARK    1  A    between atoms: C_1  and  O_2
REMARK    2  A    between atoms: O_2  and  C_3
REMARK    3  A    between atoms: C_3  and  C_5
REMARK    4  A    between atoms: C_8  and  N_9
REMARK    5  A    between atoms: C_10  and  C_12
REMARK    6  A    between atoms: C_12  and  N_13
REMARK    7  A    between atoms: C_18  and  C_19
REMARK                            x       y       z     vdW  Elec       q    Type
REMARK                         _______ _______ _______ _____ _____    ______ ____
ROOT
ATOM      1  N   UNL     1       0.502  11.460  19.346  0.00  0.00    +0.000 N 
ATOM      2  N   UNL     1       1.309  10.643  18.583  0.00  0.00    +0.000 NA
ATOM      3  C   UNL     1       1.378   9.558  19.291  0.00  0.00    +0.000 A 
ATOM      4  C   UNL     1       2.084   8.379  18.956  0.00  0.00    +0.000 A 
ATOM      5  C   UNL     1       2.818   8.017  17.863  0.00  0.00    +0.000 A 
ATOM      6  C   UNL     1       3.259   6.703  18.141  0.00  0.00    +0.000 A 
ATOM      7  N   UNL     1       2.826   6.290  19.346  0.00  0.00    +0.000 NA
ATOM      8  N   UNL     1       2.080   7.313  19.834  0.00  0.00    +0.000 N 
ATOM      9  C   UNL     1       1.365   7.397  21.039  0.00  0.00    +0.000 A 
ATOM     10  C   UNL     1       0.675   8.514  21.349  0.00  0.00    +0.000 A 
ATOM     11  N   UNL     1       0.700   9.571  20.470  0.00  0.00    +0.000 N 
ATOM     12  C   UNL     1       0.080  10.800  20.520  0.00  0.00    +0.000 A 
ATOM     13  O   UNL     1      -0.687  11.218  21.370  0.00  0.00    +0.000 OA
ENDROOT
BRANCH   6  14
ATOM     14  C   UNL     1       4.106   5.888  17.269  0.00  0.00    +0.000 A 
ATOM     15  C   UNL     1       4.955   6.482  16.327  0.00  0.00    +0.000 A 
ATOM     16  C   UNL     1       5.686   5.689  15.438  0.00  0.00    +0.000 A 
ATOM     17  C   UNL     1       5.575   4.305  15.497  0.00  0.00    +0.000 A 
ATOM     18  F   UNL     1       6.257   3.548  14.628  0.00  0.00    +0.000 F 
ATOM     19  C   UNL     1       4.761   3.694  16.441  0.00  0.00    +0.000 A 
ATOM     20  C   UNL     1       4.029   4.485  17.330  0.00  0.00    +0.000 A 
ENDBRANCH   6  14
BRANCH   1  21
ATOM     21  C   UNL     1      -0.018  12.706  18.833  0.00  0.00    +0.000 C 
BRANCH  21  23
ATOM     22  N   UNL     1       2.297  13.515  19.092  0.00  0.00    +0.000 N 
ATOM     23  C   UNL     1       0.988  13.856  18.789  0.00  0.00    +0.000 C 
ATOM     24  O   UNL     1       0.601  14.977  18.457  0.00  0.00    +0.000 OA
ATOM     25  H   UNL     1       2.487  12.515  19.109  0.00  0.00    +0.000 HD
BRANCH  22  29
ATOM     26  C   UNL     1       5.589  16.175  19.281  0.00  0.00    +0.000 A 
ATOM     27  C   UNL     1       4.689  16.102  20.347  0.00  0.00    +0.000 A 
ATOM     28  C   UNL     1       3.604  15.221  20.299  0.00  0.00    +0.000 A 
ATOM     29  C   UNL     1       3.392  14.402  19.188  0.00  0.00    +0.000 A 
ATOM     30  C   UNL     1       4.310  14.452  18.133  0.00  0.00    +0.000 A 
ATOM     31  C   UNL     1       5.397  15.341  18.173  0.00  0.00    +0.000 A 
BRANCH  26  32
ATOM     32  C   UNL     1       6.721  17.136  19.393  0.00  0.00    +0.000 C 
ATOM     33  O   UNL     1       7.218  17.710  18.433  0.00  0.00    +0.000 OA
BRANCH  32  35
ATOM     34  C   UNL     1       7.335  18.629  21.079  0.00  0.00    +0.000 C 
ATOM     35  O   UNL     1       7.109  17.273  20.684  0.00  0.00    +0.000 OA
ENDBRANCH  32  35
ENDBRANCH  26  32
ENDBRANCH  22  29
ENDBRANCH  21  23
ENDBRANCH   1  21
TORSDOF 6
ENDMDL
MODEL 4
REMARK VINA RESULT:      -7.7      3.949      9.379
REMARK  Name = 
REMARK  7 active torsions:
REMARK  status: ('A' for Active; 'I' for Inactive)
REMARK    1  A    between atoms: C_1  and  O_2
REMARK    2  A    between atoms: O_2  and  C_3
REMARK    3  A    between atoms: C_3  and  C_5
REMARK    4  A    between atoms: C_8  and  N_9
REMARK    5  A    between atoms: C_10  and  C_12
REMARK    6  A    between atoms: C_12  and  N_13
REMARK    7  A    between atoms: C_18  and  C_19
REMARK                            x       y       z     vdW  Elec       q    Type
REMARK                         _______ _______ _______ _____ _____    ______ ____
ROOT
ATOM      1  N   UNL     1       0.175  11.345  21.334  0.00  0.00    +0.000 N 
ATOM      2  N   UNL     1       1.411  11.835  20.970  0.00  0.00    +0.000 NA
ATOM      3  C   UNL     1       1.118  12.939  20.356  0.00  0.00    +0.000 A 
ATOM      4  C   UNL     1       2.035  13.852  19.784  0.00  0.00    +0.000 A 
ATOM      5  C   UNL     1       3.398  13.886  19.731  0.00  0.00    +0.000 A 
ATOM      6  C   UNL     1       3.706  15.066  19.017  0.00  0.00    +0.000 A 
ATOM      7  N   UNL     1       2.586  15.711  18.641  0.00  0.00    +0.000 NA
ATOM      8  N   UNL     1       1.559  14.977  19.138  0.00  0.00    +0.000 N 
ATOM      9  C   UNL     1       0.179  15.218  19.071  0.00  0.00    +0.000 A 
ATOM     10  C   UNL     1      -0.695  14.358  19.635  0.00  0.00    +0.000 A 
ATOM     11  N   UNL     1      -0.205  13.236  20.262  0.00  0.00    +0.000 N 
ATOM     12  C   UNL     1      -0.855  12.222  20.929  0.00  0.00    +0.000 A 
ATOM     13  O   UNL     1      -2.049  12.114  21.152  0.00  0.00    +0.000 OA
ENDROOT
BRANCH   6  14
ATOM     14  C   UNL     1       5.052  15.531  18.680  0.00  0.00    +0.000 A 
ATOM     15  C   UNL     1       5.938  14.716  17.965  0.00  0.00    +0.000 A 
ATOM     16  C   UNL     1       7.252  15.136  17.735  0.00  0.00    +0.000 A 
ATOM     17  C   UNL     1       7.674  16.373  18.210  0.00  0.00    +0.000 A 
ATOM     18  F   UNL     1       8.939  16.763  18.008  0.00  0.00    +0.000 F 
ATOM     19  C   UNL     1       6.803  17.208  18.896  0.00  0.00    +0.000 A 
ATOM     20  C   UNL     1       5.491  16.789  19.128  0.00  0.00    +0.000 A 
ENDBRANCH   6  14
BRANCH   1  21
ATOM     21  C   UNL     1       0.038  10.223  22.234  0.00  0.00    +0.000 C 
BRANCH  21  23
ATOM     22  N   UNL     1       1.391   8.611  20.949  0.00  0.00    +0.000 N 
ATOM     23  C   UNL     1       0.179   8.850  21.579  0.00  0.00    +0.000 C 
ATOM     24  O   UNL     1      -0.745   8.042  21.678  0.00  0.00    +0.000 OA
ATOM     25  H   UNL     1       2.125   9.283  21.163  0.00  0.00    +0.000 HD
BRANCH  22  29
ATOM     26  C   UNL     1       2.378   5.090  18.810  0.00  0.00    +0.000 A 
ATOM     27  C   UNL     1       2.544   6.340  18.210  0.00  0.00    +0.000 A 
ATOM     28  C   UNL     1       2.230   7.510  18.910  0.00  0.00    +0.000 A 
ATOM     29  C   UNL     1       1.740   7.455  20.216  0.00  0.00    +0.000 A 
ATOM     30  C   UNL     1       1.601   6.205  20.829  0.00  0.00    +0.000 A 
ATOM     31  C   UNL     1       1.908   5.027  20.127  0.00  0.00    +0.000 A 
BRANCH  26  32
ATOM     32  C   UNL     1       2.727   3.884  18.009  0.00  0.00    +0.000 C 
ATOM     33  O   UNL     1       2.101   3.523  17.021  0.00  0.00    +0.000 OA
BRANCH  32  35
ATOM     34  C   UNL     1       3.604   1.876  18.814  0.00  0.00    +0.000 C 
ATOM     35  O   UNL     1       3.814   3.261  18.528  0.00  0.00    +0.000 OA
ENDBRANCH  32  35
ENDBRANCH  26  32
ENDBRANCH  22  29
ENDBRANCH  21  23
ENDBRANCH   1  21
TORSDOF 6
ENDMDL
MODEL 5
REMARK VINA RESULT:      -7.5      5.402      7.922
REMARK  Name = 
REMARK  7 active torsions:
REMARK  status: ('A' for Active; 'I' for Inactive)
REMARK    1  A    between atoms: C_1  and  O_2
REMARK    2  A    between atoms: O_2  and  C_3
REMARK    3  A    between atoms: C_3  and  C_5
REMARK    4  A    between atoms: C_8  and  N_9
REMARK    5  A    between atoms: C_10  and  C_12
REMARK    6  A    between atoms: C_12  and  N_13
REMARK    7  A    between atoms: C_18  and  C_19
REMARK                            x       y       z     vdW  Elec       q    Type
REMARK                         _______ _______ _______ _____ _____    ______ ____
ROOT
ATOM      1  N   UNL     1       4.238   4.793  17.060  0.00  0.00    +0.000 N 
ATOM      2  N   UNL     1       3.709   5.955  17.581  0.00  0.00    +0.000 NA
ATOM      3  C   UNL     1       3.037   5.535  18.607  0.00  0.00    +0.000 A 
ATOM      4  C   UNL     1       2.297   6.333  19.512  0.00  0.00    +0.000 A 
ATOM      5  C   UNL     1       2.103   7.680  19.614  0.00  0.00    +0.000 A 
ATOM      6  C   UNL     1       1.263   7.841  20.739  0.00  0.00    +0.000 A 
ATOM      7  N   UNL     1       0.950   6.652  21.286  0.00  0.00    +0.000 NA
ATOM      8  N   UNL     1       1.610   5.726  20.545  0.00  0.00    +0.000 N 
ATOM      9  C   UNL     1       1.663   4.333  20.704  0.00  0.00    +0.000 A 
ATOM     10  C   UNL     1       2.385   3.575  19.853  0.00  0.00    +0.000 A 
ATOM     11  N   UNL     1       3.053   4.192  18.821  0.00  0.00    +0.000 N 
ATOM     12  C   UNL     1       3.867   3.676  17.839  0.00  0.00    +0.000 A 
ATOM     13  O   UNL     1       4.218   2.518  17.687  0.00  0.00    +0.000 OA
ENDROOT
BRANCH   6  14
ATOM     14  C   UNL     1       0.751   9.116  21.245  0.00  0.00    +0.000 A 
ATOM     15  C   UNL     1       0.025   9.178  22.440  0.00  0.00    +0.000 A 
ATOM     16  C   UNL     1      -0.539  10.387  22.860  0.00  0.00    +0.000 A 
ATOM     17  C   UNL     1      -0.368  11.532  22.090  0.00  0.00    +0.000 A 
ATOM     18  F   UNL     1      -0.929  12.683  22.482  0.00  0.00    +0.000 F 
ATOM     19  C   UNL     1       0.372  11.498  20.916  0.00  0.00    +0.000 A 
ATOM     20  C   UNL     1       0.935  10.291  20.495  0.00  0.00    +0.000 A 
ENDBRANCH   6  14
BRANCH   1  21
ATOM     21  C   UNL     1       5.240   4.815  16.019  0.00  0.00    +0.000 C 
BRANCH  21  23
ATOM     22  N   UNL     1       6.271   6.600  17.373  0.00  0.00    +0.000 N 
ATOM     23  C   UNL     1       6.388   5.796  16.250  0.00  0.00    +0.000 C 
ATOM     24  O   UNL     1       7.345   5.790  15.474  0.00  0.00    +0.000 OA
ATOM     25  H   UNL     1       5.547   6.315  18.030  0.00  0.00    +0.000 HD
BRANCH  22  29
ATOM     26  C   UNL     1       8.864   9.747  18.521  0.00  0.00    +0.000 A 
ATOM     27  C   UNL     1       9.058   8.462  19.031  0.00  0.00    +0.000 A 
ATOM     28  C   UNL     1       8.214   7.413  18.652  0.00  0.00    +0.000 A 
ATOM     29  C   UNL     1       7.158   7.626  17.764  0.00  0.00    +0.000 A 
ATOM     30  C   UNL     1       6.980   8.907  17.228  0.00  0.00    +0.000 A 
ATOM     31  C   UNL     1       7.821   9.965  17.613  0.00  0.00    +0.000 A 
BRANCH  26  32
ATOM     32  C   UNL     1       9.795  10.820  18.967  0.00  0.00    +0.000 C 
ATOM     33  O   UNL     1       9.976  11.114  20.141  0.00  0.00    +0.000 OA
BRANCH  32  35
ATOM     34  C   UNL     1      10.740  12.778  18.118  0.00  0.00    +0.000 C 
ATOM     35  O   UNL     1      10.396  11.408  17.904  0.00  0.00    +0.000 OA
ENDBRANCH  32  35
ENDBRANCH  26  32
ENDBRANCH  22  29
ENDBRANCH  21  23
ENDBRANCH   1  21
TORSDOF 6
ENDMDL
MODEL 6
REMARK VINA RESULT:      -7.4      0.902      1.263
REMARK  Name = 
REMARK  7 active torsions:
REMARK  status: ('A' for Active; 'I' for Inactive)
REMARK    1  A    between atoms: C_1  and  O_2
REMARK    2  A    between atoms: O_2  and  C_3
REMARK    3  A    between atoms: C_3  and  C_5
REMARK    4  A    between atoms: C_8  and  N_9
REMARK    5  A    between atoms: C_10  and  C_12
REMARK    6  A    between atoms: C_12  and  N_13
REMARK    7  A    between atoms: C_18  and  C_19
REMARK                            x       y       z     vdW  Elec       q    Type
REMARK                         _______ _______ _______ _____ _____    ______ ____
ROOT
ATOM      1  N   UNL     1       0.592  10.660  19.790  0.00  0.00    +0.000 N 
ATOM      2  N   UNL     1       1.427  10.002  18.911  0.00  0.00    +0.000 NA
ATOM      3  C   UNL     1       1.557   8.832  19.453  0.00  0.00    +0.000 A 
ATOM      4  C   UNL     1       2.314   7.750  18.945  0.00  0.00    +0.000 A 
ATOM      5  C   UNL     1       3.050   7.587  17.807  0.00  0.00    +0.000 A 
ATOM      6  C   UNL     1       3.557   6.270  17.887  0.00  0.00    +0.000 A 
ATOM      7  N   UNL     1       3.161   5.666  19.022  0.00  0.00    +0.000 NA
ATOM      8  N   UNL     1       2.374   6.569  19.659  0.00  0.00    +0.000 N 
ATOM      9  C   UNL     1       1.672   6.441  20.868  0.00  0.00    +0.000 A 
ATOM     10  C   UNL     1       0.933   7.467  21.341  0.00  0.00    +0.000 A 
ATOM     11  N   UNL     1       0.896   8.640  20.625  0.00  0.00    +0.000 N 
ATOM     12  C   UNL     1       0.218   9.816  20.858  0.00  0.00    +0.000 A 
ATOM     13  O   UNL     1      -0.556  10.069  21.765  0.00  0.00    +0.000 OA
ENDROOT
BRANCH   6  14
ATOM     14  C   UNL     1       4.430   5.633  16.901  0.00  0.00    +0.000 A 
ATOM     15  C   UNL     1       5.146   6.397  15.971  0.00  0.00    +0.000 A 
ATOM     16  C   UNL     1       5.900   5.770  14.975  0.00  0.00    +0.000 A 
ATOM     17  C   UNL     1       5.946   4.381  14.915  0.00  0.00    +0.000 A 
ATOM     18  F   UNL     1       6.650   3.783  13.946  0.00  0.00    +0.000 F 
ATOM     19  C   UNL     1       5.267   3.605  15.844  0.00  0.00    +0.000 A 
ATOM     20  C   UNL     1       4.512   4.230  16.840  0.00  0.00    +0.000 A 
ENDBRANCH   6  14
BRANCH   1  21
ATOM     21  C   UNL     1       0.005  11.940  19.467  0.00  0.00    +0.000 C 
BRANCH  21  23
ATOM     22  N   UNL     1       1.978  13.309  18.905  0.00  0.00    +0.000 N 
ATOM     23  C   UNL     1       0.895  13.148  19.755  0.00  0.00    +0.000 C 
ATOM     24  O   UNL     1       0.589  13.911  20.672  0.00  0.00    +0.000 OA
ATOM     25  H   UNL     1       1.952  12.735  18.064  0.00  0.00    +0.000 HD
BRANCH  22  29
ATOM     26  C   UNL     1       4.938  16.331  19.135  0.00  0.00    +0.000 A 
ATOM     27  C   UNL     1       4.778  15.430  20.190  0.00  0.00    +0.000 A 
ATOM     28  C   UNL     1       3.810  14.422  20.120  0.00  0.00    +0.000 A 
ATOM     29  C   UNL     1       2.981  14.298  19.004  0.00  0.00    +0.000 A 
ATOM     30  C   UNL     1       3.160  15.182  17.934  0.00  0.00    +0.000 A 
ATOM     31  C   UNL     1       4.125  16.200  18.002  0.00  0.00    +0.000 A 
BRANCH  26  32
ATOM     32  C   UNL     1       5.983  17.383  19.272  0.00  0.00    +0.000 C 
ATOM     33  O   UNL     1       5.868  18.360  20.000  0.00  0.00    +0.000 OA
BRANCH  32  35
ATOM     34  C   UNL     1       8.304  17.154  19.178  0.00  0.00    +0.000 C 
ATOM     35  O   UNL     1       7.053  17.102  18.488  0.00  0.00    +0.000 OA
ENDBRANCH  32  35
ENDBRANCH  26  32
ENDBRANCH  22  29
ENDBRANCH  21  23
ENDBRANCH   1  21
TORSDOF 6
ENDMDL
MODEL 7
REMARK VINA RESULT:      -7.4      5.499     10.350
REMARK  Name = 
REMARK  7 active torsions:
REMARK  status: ('A' for Active; 'I' for Inactive)
REMARK    1  A    between atoms: C_1  and  O_2
REMARK    2  A    between atoms: O_2  and  C_3
REMARK    3  A    between atoms: C_3  and  C_5
REMARK    4  A    between atoms: C_8  and  N_9
REMARK    5  A    between atoms: C_10  and  C_12
REMARK    6  A    between atoms: C_12  and  N_13
REMARK    7  A    between atoms: C_18  and  C_19
REMARK                            x       y       z     vdW  Elec       q    Type
REMARK                         _______ _______ _______ _____ _____    ______ ____
ROOT
ATOM      1  N   UNL     1       1.649   8.002  20.096  0.00  0.00    +0.000 N 
ATOM      2  N   UNL     1       1.031   8.765  21.064  0.00  0.00    +0.000 NA
ATOM      3  C   UNL     1       0.728   9.854  20.427  0.00  0.00    +0.000 A 
ATOM      4  C   UNL     1       0.061  10.982  20.961  0.00  0.00    +0.000 A 
ATOM      5  C   UNL     1      -0.468  11.249  22.190  0.00  0.00    +0.000 A 
ATOM      6  C   UNL     1      -1.001  12.554  22.080  0.00  0.00    +0.000 A 
ATOM      7  N   UNL     1      -0.795  13.060  20.850  0.00  0.00    +0.000 NA
ATOM      8  N   UNL     1      -0.166  12.080  20.155  0.00  0.00    +0.000 N 
ATOM      9  C   UNL     1       0.247  12.066  18.813  0.00  0.00    +0.000 A 
ATOM     10  C   UNL     1       0.865  10.982  18.300  0.00  0.00    +0.000 A 
ATOM     11  N   UNL     1       1.095   9.902  19.119  0.00  0.00    +0.000 N 
ATOM     12  C   UNL     1       1.673   8.680  18.857  0.00  0.00    +0.000 A 
ATOM     13  O   UNL     1       2.088   8.259  17.791  0.00  0.00    +0.000 OA
ENDROOT
BRANCH   6  14
ATOM     14  C   UNL     1      -1.661  13.298  23.154  0.00  0.00    +0.000 A 
ATOM     15  C   UNL     1      -2.972  12.995  23.541  0.00  0.00    +0.000 A 
ATOM     16  C   UNL     1      -3.622  13.776  24.501  0.00  0.00    +0.000 A 
ATOM     17  C   UNL     1      -2.958  14.852  25.080  0.00  0.00    +0.000 A 
ATOM     18  F   UNL     1      -3.590  15.613  25.982  0.00  0.00    +0.000 F 
ATOM     19  C   UNL     1      -1.648  15.152  24.731  0.00  0.00    +0.000 A 
ATOM     20  C   UNL     1      -0.998  14.373  23.771  0.00  0.00    +0.000 A 
ENDBRANCH   6  14
BRANCH   1  21
ATOM     21  C   UNL     1       1.964   6.609  20.314  0.00  0.00    +0.000 C 
BRANCH  21  23
ATOM     22  N   UNL     1       3.790   6.254  18.695  0.00  0.00    +0.000 N 
ATOM     23  C   UNL     1       2.518   5.874  19.094  0.00  0.00    +0.000 C 
ATOM     24  O   UNL     1       1.843   4.986  18.573  0.00  0.00    +0.000 OA
ATOM     25  H   UNL     1       4.298   6.824  19.367  0.00  0.00    +0.000 HD
BRANCH  22  29
ATOM     26  C   UNL     1       5.917   4.920  15.281  0.00  0.00    +0.000 A 
ATOM     27  C   UNL     1       5.586   4.017  16.295  0.00  0.00    +0.000 A 
ATOM     28  C   UNL     1       4.877   4.444  17.422  0.00  0.00    +0.000 A 
ATOM     29  C   UNL     1       4.489   5.778  17.563  0.00  0.00    +0.000 A 
ATOM     30  C   UNL     1       4.792   6.678  16.535  0.00  0.00    +0.000 A 
ATOM     31  C   UNL     1       5.512   6.255  15.405  0.00  0.00    +0.000 A 
BRANCH  26  32
ATOM     32  C   UNL     1       6.676   4.402  14.110  0.00  0.00    +0.000 C 
ATOM     33  O   UNL     1       6.309   3.452  13.431  0.00  0.00    +0.000 OA
BRANCH  32  35
ATOM     34  C   UNL     1       7.999   5.544  12.563  0.00  0.00    +0.000 C 
ATOM     35  O   UNL     1       7.808   5.122  13.915  0.00  0.00    +0.000 OA
ENDBRANCH  32  35
ENDBRANCH  26  32
ENDBRANCH  22  29
ENDBRANCH  21  23
ENDBRANCH   1  21
TORSDOF 6
ENDMDL
MODEL 8
REMARK VINA RESULT:      -7.3      5.417     10.823
REMARK  Name = 
REMARK  7 active torsions:
REMARK  status: ('A' for Active; 'I' for Inactive)
REMARK    1  A    between atoms: C_1  and  O_2
REMARK    2  A    between atoms: O_2  and  C_3
REMARK    3  A    between atoms: C_3  and  C_5
REMARK    4  A    between atoms: C_8  and  N_9
REMARK    5  A    between atoms: C_10  and  C_12
REMARK    6  A    between atoms: C_12  and  N_13
REMARK    7  A    between atoms: C_18  and  C_19
REMARK                            x       y       z     vdW  Elec       q    Type
REMARK                         _______ _______ _______ _____ _____    ______ ____
ROOT
ATOM      1  N   UNL     1       1.367  11.131  18.689  0.00  0.00    +0.000 N 
ATOM      2  N   UNL     1       0.196  11.126  19.417  0.00  0.00    +0.000 NA
ATOM      3  C   UNL     1       0.140  12.333  19.887  0.00  0.00    +0.000 A 
ATOM      4  C   UNL     1      -0.883  12.870  20.705  0.00  0.00    +0.000 A 
ATOM      5  C   UNL     1      -2.052  12.355  21.184  0.00  0.00    +0.000 A 
ATOM      6  C   UNL     1      -2.628  13.403  21.939  0.00  0.00    +0.000 A 
ATOM      7  N   UNL     1      -1.842  14.496  21.930  0.00  0.00    +0.000 NA
ATOM      8  N   UNL     1      -0.782  14.175  21.148  0.00  0.00    +0.000 N 
ATOM      9  C   UNL     1       0.317  14.963  20.772  0.00  0.00    +0.000 A 
ATOM     10  C   UNL     1       1.281  14.456  19.975  0.00  0.00    +0.000 A 
ATOM     11  N   UNL     1       1.173  13.152  19.554  0.00  0.00    +0.000 N 
ATOM     12  C   UNL     1       1.984  12.400  18.733  0.00  0.00    +0.000 A 
ATOM     13  O   UNL     1       2.993  12.753  18.148  0.00  0.00    +0.000 OA
ENDROOT
BRANCH   6  14
ATOM     14  C   UNL     1      -3.890  13.328  22.675  0.00  0.00    +0.000 A 
ATOM     15  C   UNL     1      -3.967  12.667  23.908  0.00  0.00    +0.000 A 
ATOM     16  C   UNL     1      -5.199  12.520  24.552  0.00  0.00    +0.000 A 
ATOM     17  C   UNL     1      -6.349  13.041  23.970  0.00  0.00    +0.000 A 
ATOM     18  F   UNL     1      -7.531  12.878  24.578  0.00  0.00    +0.000 F 
ATOM     19  C   UNL     1      -6.291  13.723  22.763  0.00  0.00    +0.000 A 
ATOM     20  C   UNL     1      -5.061  13.870  22.117  0.00  0.00    +0.000 A 
ENDBRANCH   6  14
BRANCH   1  21
ATOM     21  C   UNL     1       1.721  10.039  17.811  0.00  0.00    +0.000 C 
BRANCH  21  23
ATOM     22  N   UNL     1       2.586   7.731  17.755  0.00  0.00    +0.000 N 
ATOM     23  C   UNL     1       1.932   8.695  18.506  0.00  0.00    +0.000 C 
ATOM     24  O   UNL     1       1.559   8.559  19.672  0.00  0.00    +0.000 OA
ATOM     25  H   UNL     1       3.035   8.077  16.909  0.00  0.00    +0.000 HD
BRANCH  22  29
ATOM     26  C   UNL     1       3.405   3.761  18.987  0.00  0.00    +0.000 A 
ATOM     27  C   UNL     1       2.224   4.048  18.298  0.00  0.00    +0.000 A 
ATOM     28  C   UNL     1       1.948   5.353  17.878  0.00  0.00    +0.000 A 
ATOM     29  C   UNL     1       2.838   6.396  18.143  0.00  0.00    +0.000 A 
ATOM     30  C   UNL     1       4.035   6.105  18.806  0.00  0.00    +0.000 A 
ATOM     31  C   UNL     1       4.313   4.796  19.237  0.00  0.00    +0.000 A 
BRANCH  26  32
ATOM     32  C   UNL     1       3.637   2.352  19.409  0.00  0.00    +0.000 C 
ATOM     33  O   UNL     1       3.622   1.402  18.636  0.00  0.00    +0.000 OA
BRANCH  32  35
ATOM     34  C   UNL     1       2.686   2.457  21.538  0.00  0.00    +0.000 C 
ATOM     35  O   UNL     1       3.861   2.281  20.744  0.00  0.00    +0.000 OA
ENDBRANCH  32  35
ENDBRANCH  26  32
ENDBRANCH  22  29
ENDBRANCH  21  23
ENDBRANCH   1  21
TORSDOF 6
ENDMDL
MODEL 9
REMARK VINA RESULT:      -7.3      4.095      6.599
REMARK  Name = 
REMARK  7 active torsions:
REMARK  status: ('A' for Active; 'I' for Inactive)
REMARK    1  A    between atoms: C_1  and  O_2
REMARK    2  A    between atoms: O_2  and  C_3
REMARK    3  A    between atoms: C_3  and  C_5
REMARK    4  A    between atoms: C_8  and  N_9
REMARK    5  A    between atoms: C_10  and  C_12
REMARK    6  A    between atoms: C_12  and  N_13
REMARK    7  A    between atoms: C_18  and  C_19
REMARK                            x       y       z     vdW  Elec       q    Type
REMARK                         _______ _______ _______ _____ _____    ______ ____
ROOT
ATOM      1  N   UNL     1       0.444  11.156  19.160  0.00  0.00    +0.000 N 
ATOM      2  N   UNL     1       1.266  10.374  18.376  0.00  0.00    +0.000 NA
ATOM      3  C   UNL     1       1.447   9.318  19.106  0.00  0.00    +0.000 A 
ATOM      4  C   UNL     1       2.215   8.180  18.763  0.00  0.00    +0.000 A 
ATOM      5  C   UNL     1       2.915   7.839  17.643  0.00  0.00    +0.000 A 
ATOM      6  C   UNL     1       3.461   6.566  17.929  0.00  0.00    +0.000 A 
ATOM      7  N   UNL     1       3.121   6.160  19.166  0.00  0.00    +0.000 NA
ATOM      8  N   UNL     1       2.332   7.142  19.667  0.00  0.00    +0.000 N 
ATOM      9  C   UNL     1       1.676   7.211  20.906  0.00  0.00    +0.000 A 
ATOM     10  C   UNL     1       0.926   8.287  21.224  0.00  0.00    +0.000 A 
ATOM     11  N   UNL     1       0.832   9.318  20.319  0.00  0.00    +0.000 N 
ATOM     12  C   UNL     1       0.131  10.502  20.371  0.00  0.00    +0.000 A 
ATOM     13  O   UNL     1      -0.619  10.892  21.251  0.00  0.00    +0.000 OA
ENDROOT
BRANCH   6  14
ATOM     14  C   UNL     1       4.317   5.786  17.034  0.00  0.00    +0.000 A 
ATOM     15  C   UNL     1       5.045   6.406  16.011  0.00  0.00    +0.000 A 
ATOM     16  C   UNL     1       5.782   5.637  15.106  0.00  0.00    +0.000 A 
ATOM     17  C   UNL     1       5.798   4.252  15.229  0.00  0.00    +0.000 A 
ATOM     18  F   UNL     1       6.486   3.517  14.346  0.00  0.00    +0.000 F 
ATOM     19  C   UNL     1       5.106   3.619  16.252  0.00  0.00    +0.000 A 
ATOM     20  C   UNL     1       4.368   4.386  17.157  0.00  0.00    +0.000 A 
ENDBRANCH   6  14
BRANCH   1  21
ATOM     21  C   UNL     1      -0.188  12.348  18.644  0.00  0.00    +0.000 C 
BRANCH  21  23
ATOM     22  N   UNL     1      -2.017  13.356  19.955  0.00  0.00    +0.000 N 
ATOM     23  C   UNL     1      -1.681  12.469  18.945  0.00  0.00    +0.000 C 
ATOM     24  O   UNL     1      -2.481  11.823  18.267  0.00  0.00    +0.000 OA
ATOM     25  H   UNL     1      -1.266  13.979  20.246  0.00  0.00    +0.000 HD
BRANCH  22  29
ATOM     26  C   UNL     1      -5.877  14.157  21.508  0.00  0.00    +0.000 A 
ATOM     27  C   UNL     1      -5.697  13.125  20.584  0.00  0.00    +0.000 A 
ATOM     28  C   UNL     1      -4.426  12.846  20.072  0.00  0.00    +0.000 A 
ATOM     29  C   UNL     1      -3.313  13.593  20.465  0.00  0.00    +0.000 A 
ATOM     30  C   UNL     1      -3.486  14.607  21.413  0.00  0.00    +0.000 A 
ATOM     31  C   UNL     1      -4.763  14.897  21.924  0.00  0.00    +0.000 A 
BRANCH  26  32
ATOM     32  C   UNL     1      -7.256  14.406  22.012  0.00  0.00    +0.000 C 
ATOM     33  O   UNL     1      -7.722  15.524  22.184  0.00  0.00    +0.000 OA
BRANCH  32  35
ATOM     34  C   UNL     1      -7.743  12.747  23.580  0.00  0.00    +0.000 C 
ATOM     35  O   UNL     1      -7.900  13.236  22.246  0.00  0.00    +0.000 OA
ENDBRANCH  32  35
ENDBRANCH  26  32
ENDBRANCH  22  29
ENDBRANCH  21  23
ENDBRANCH   1  21
TORSDOF 6
ENDMDL
