MODEL 1
REMARK VINA RESULT:      -7.4      0.000      0.000
REMARK  Name = 
REMARK  2 active torsions:
REMARK  status: ('A' for Active; 'I' for Inactive)
REMARK    1  A    between atoms: C_10  and  C_11
REMARK    2  A    between atoms: C_18  and  O_19
REMARK                            x       y       z     vdW  Elec       q    Type
REMARK                         _______ _______ _______ _____ _____    ______ ____
ROOT
ATOM      1  O   UNL     1       4.912   6.976  15.129  0.00  0.00    +0.000 OA
ATOM      2  C   UNL     1       5.486   6.019  15.643  0.00  0.00    +0.000 C 
ATOM      3  C   UNL     1       6.424   6.206  16.765  0.00  0.00    +0.000 A 
ATOM      4  C   UNL     1       6.771   7.488  17.200  0.00  0.00    +0.000 A 
ATOM      5  C   UNL     1       7.685   7.634  18.245  0.00  0.00    +0.000 A 
ATOM      6  C   UNL     1       8.266   6.507  18.829  0.00  0.00    +0.000 A 
ATOM      7  C   UNL     1       7.919   5.228  18.388  0.00  0.00    +0.000 A 
ATOM      8  C   UNL     1       6.970   5.079  17.378  0.00  0.00    +0.000 A 
ATOM      9  O   UNL     1       6.621   3.792  17.053  0.00  0.00    +0.000 OA
ATOM     10  C   UNL     1       5.325   3.675  16.407  0.00  0.00    +0.000 C 
ATOM     11  C   UNL     1       5.313   4.586  15.164  0.00  0.00    +0.000 C 
ENDROOT
BRANCH  10  12
ATOM     12  C   UNL     1       4.172   3.833  17.405  0.00  0.00    +0.000 A 
ATOM     13  C   UNL     1       2.839   3.998  16.990  0.00  0.00    +0.000 A 
ATOM     14  C   UNL     1       1.809   4.170  17.921  0.00  0.00    +0.000 A 
ATOM     15  C   UNL     1       2.093   4.161  19.281  0.00  0.00    +0.000 A 
ATOM     16 CL   UNL     1       0.829   4.395  20.424  0.00  0.00    +0.000 Cl
ATOM     17  C   UNL     1       3.398   3.962  19.720  0.00  0.00    +0.000 A 
ATOM     18  C   UNL     1       4.427   3.790  18.789  0.00  0.00    +0.000 A 
ENDBRANCH  10  12
BRANCH  11  19
ATOM     19  O   UNL     1       6.343   4.217  14.246  0.00  0.00    +0.000 OA
ATOM     20  H   UNL     1       5.921   4.002  13.393  0.00  0.00    +0.000 HD
ENDBRANCH  11  19
TORSDOF 2
ENDMDL
MODEL 2
REMARK VINA RESULT:      -7.4      0.097      1.107
REMARK  Name = 
REMARK  2 active torsions:
REMARK  status: ('A' for Active; 'I' for Inactive)
REMARK    1  A    between atoms: C_10  and  C_11
REMARK    2  A    between atoms: C_18  and  O_19
REMARK                            x       y       z     vdW  Elec       q    Type
REMARK                         _______ _______ _______ _____ _____    ______ ____
ROOT
ATOM      1  O   UNL     1       4.924   6.966  15.126  0.00  0.00    +0.000 OA
ATOM      2  C   UNL     1       5.502   6.023  15.662  0.00  0.00    +0.000 C 
ATOM      3  C   UNL     1       6.442   6.242  16.778  0.00  0.00    +0.000 A 
ATOM      4  C   UNL     1       6.786   7.535  17.180  0.00  0.00    +0.000 A 
ATOM      5  C   UNL     1       7.701   7.709  18.219  0.00  0.00    +0.000 A 
ATOM      6  C   UNL     1       8.286   6.598  18.830  0.00  0.00    +0.000 A 
ATOM      7  C   UNL     1       7.942   5.308  18.422  0.00  0.00    +0.000 A 
ATOM      8  C   UNL     1       6.992   5.131  17.418  0.00  0.00    +0.000 A 
ATOM      9  O   UNL     1       6.646   3.836  17.126  0.00  0.00    +0.000 OA
ATOM     10  C   UNL     1       5.348   3.699  16.486  0.00  0.00    +0.000 C 
ATOM     11  C   UNL     1       5.332   4.579  15.220  0.00  0.00    +0.000 C 
ENDROOT
BRANCH  10  12
ATOM     12  C   UNL     1       4.197   3.879  17.481  0.00  0.00    +0.000 A 
ATOM     13  C   UNL     1       4.415   3.995  18.866  0.00  0.00    +0.000 A 
ATOM     14  C   UNL     1       3.344   4.128  19.756  0.00  0.00    +0.000 A 
ATOM     15  C   UNL     1       2.041   4.166  19.275  0.00  0.00    +0.000 A 
ATOM     16 CL   UNL     1       0.725   4.306  20.373  0.00  0.00    +0.000 Cl
ATOM     17  C   UNL     1       1.799   4.091  17.908  0.00  0.00    +0.000 A 
ATOM     18  C   UNL     1       2.870   3.959  17.018  0.00  0.00    +0.000 A 
ENDBRANCH  10  12
BRANCH  11  19
ATOM     19  O   UNL     1       6.362   4.190  14.309  0.00  0.00    +0.000 OA
ATOM     20  H   UNL     1       7.096   4.825  14.400  0.00  0.00    +0.000 HD
ENDBRANCH  11  19
TORSDOF 2
ENDMDL
MODEL 3
REMARK VINA RESULT:      -7.3      2.600      3.954
REMARK  Name = 
REMARK  2 active torsions:
REMARK  status: ('A' for Active; 'I' for Inactive)
REMARK    1  A    between atoms: C_10  and  C_11
REMARK    2  A    between atoms: C_18  and  O_19
REMARK                            x       y       z     vdW  Elec       q    Type
REMARK                         _______ _______ _______ _____ _____    ______ ____
ROOT
ATOM      1  O   UNL     1       3.082   2.599  17.231  0.00  0.00    +0.000 OA
ATOM      2  C   UNL     1       4.029   3.237  17.684  0.00  0.00    +0.000 C 
ATOM      3  C   UNL     1       5.050   3.819  16.793  0.00  0.00    +0.000 A 
ATOM      4  C   UNL     1       5.029   3.566  15.419  0.00  0.00    +0.000 A 
ATOM      5  C   UNL     1       6.026   4.107  14.606  0.00  0.00    +0.000 A 
ATOM      6  C   UNL     1       7.049   4.872  15.169  0.00  0.00    +0.000 A 
ATOM      7  C   UNL     1       7.068   5.120  16.543  0.00  0.00    +0.000 A 
ATOM      8  C   UNL     1       6.046   4.621  17.350  0.00  0.00    +0.000 A 
ATOM      9  O   UNL     1       6.088   4.972  18.675  0.00  0.00    +0.000 OA
ATOM     10  C   UNL     1       4.806   4.885  19.352  0.00  0.00    +0.000 C 
ATOM     11  C   UNL     1       4.252   3.458  19.171  0.00  0.00    +0.000 C 
ENDROOT
BRANCH  10  12
ATOM     12  C   UNL     1       3.882   6.050  18.979  0.00  0.00    +0.000 A 
ATOM     13  C   UNL     1       4.094   6.838  17.834  0.00  0.00    +0.000 A 
ATOM     14  C   UNL     1       3.253   7.914  17.532  0.00  0.00    +0.000 A 
ATOM     15  C   UNL     1       2.176   8.208  18.360  0.00  0.00    +0.000 A 
ATOM     16 CL   UNL     1       1.156   9.545  17.999  0.00  0.00    +0.000 Cl
ATOM     17  C   UNL     1       1.920   7.421  19.478  0.00  0.00    +0.000 A 
ATOM     18  C   UNL     1       2.762   6.345  19.779  0.00  0.00    +0.000 A 
ENDBRANCH  10  12
BRANCH  11  19
ATOM     19  O   UNL     1       5.149   2.486  19.712  0.00  0.00    +0.000 OA
ATOM     20  H   UNL     1       4.657   1.650  19.814  0.00  0.00    +0.000 HD
ENDBRANCH  11  19
TORSDOF 2
ENDMDL
MODEL 4
REMARK VINA RESULT:      -7.2      2.579      3.981
REMARK  Name = 
REMARK  2 active torsions:
REMARK  status: ('A' for Active; 'I' for Inactive)
REMARK    1  A    between atoms: C_10  and  C_11
REMARK    2  A    between atoms: C_18  and  O_19
REMARK                            x       y       z     vdW  Elec       q    Type
REMARK                         _______ _______ _______ _____ _____    ______ ____
ROOT
ATOM      1  O   UNL     1       3.071   2.582  17.231  0.00  0.00    +0.000 OA
ATOM      2  C   UNL     1       4.023   3.210  17.685  0.00  0.00    +0.000 C 
ATOM      3  C   UNL     1       5.035   3.808  16.795  0.00  0.00    +0.000 A 
ATOM      4  C   UNL     1       4.999   3.581  15.417  0.00  0.00    +0.000 A 
ATOM      5  C   UNL     1       5.989   4.136  14.604  0.00  0.00    +0.000 A 
ATOM      6  C   UNL     1       7.019   4.889  15.171  0.00  0.00    +0.000 A 
ATOM      7  C   UNL     1       7.052   5.112  16.549  0.00  0.00    +0.000 A 
ATOM      8  C   UNL     1       6.038   4.599  17.357  0.00  0.00    +0.000 A 
ATOM      9  O   UNL     1       6.094   4.925  18.688  0.00  0.00    +0.000 OA
ATOM     10  C   UNL     1       4.818   4.826  19.376  0.00  0.00    +0.000 C 
ATOM     11  C   UNL     1       4.262   3.404  19.175  0.00  0.00    +0.000 C 
ENDROOT
BRANCH  10  12
ATOM     12  C   UNL     1       3.892   5.998  19.034  0.00  0.00    +0.000 A 
ATOM     13  C   UNL     1       2.776   6.327  19.824  0.00  0.00    +0.000 A 
ATOM     14  C   UNL     1       1.929   7.384  19.473  0.00  0.00    +0.000 A 
ATOM     15  C   UNL     1       2.195   8.140  18.338  0.00  0.00    +0.000 A 
ATOM     16 CL   UNL     1       1.140   9.424  17.896  0.00  0.00    +0.000 Cl
ATOM     17  C   UNL     1       3.313   7.860  17.560  0.00  0.00    +0.000 A 
ATOM     18  C   UNL     1       4.160   6.804  17.911  0.00  0.00    +0.000 A 
ENDBRANCH  10  12
BRANCH  11  19
ATOM     19  O   UNL     1       5.163   2.420  19.688  0.00  0.00    +0.000 OA
ATOM     20  H   UNL     1       5.106   1.634  19.113  0.00  0.00    +0.000 HD
ENDBRANCH  11  19
TORSDOF 2
ENDMDL
MODEL 5
REMARK VINA RESULT:      -7.2      1.719      1.908
REMARK  Name = 
REMARK  2 active torsions:
REMARK  status: ('A' for Active; 'I' for Inactive)
REMARK    1  A    between atoms: C_10  and  C_11
REMARK    2  A    between atoms: C_18  and  O_19
REMARK                            x       y       z     vdW  Elec       q    Type
REMARK                         _______ _______ _______ _____ _____    ______ ____
ROOT
ATOM      1  O   UNL     1       5.162   6.533  15.354  0.00  0.00    +0.000 OA
ATOM      2  C   UNL     1       5.465   5.814  16.303  0.00  0.00    +0.000 C 
ATOM      3  C   UNL     1       6.476   6.240  17.288  0.00  0.00    +0.000 A 
ATOM      4  C   UNL     1       7.197   7.423  17.108  0.00  0.00    +0.000 A 
ATOM      5  C   UNL     1       8.169   7.784  18.042  0.00  0.00    +0.000 A 
ATOM      6  C   UNL     1       8.433   6.953  19.133  0.00  0.00    +0.000 A 
ATOM      7  C   UNL     1       7.712   5.771  19.308  0.00  0.00    +0.000 A 
ATOM      8  C   UNL     1       6.708   5.432  18.402  0.00  0.00    +0.000 A 
ATOM      9  O   UNL     1       5.989   4.298  18.682  0.00  0.00    +0.000 OA
ATOM     10  C   UNL     1       4.681   4.255  18.051  0.00  0.00    +0.000 C 
ATOM     11  C   UNL     1       4.864   4.436  16.532  0.00  0.00    +0.000 C 
ENDROOT
BRANCH  10  12
ATOM     12  C   UNL     1       3.676   5.175  18.753  0.00  0.00    +0.000 A 
ATOM     13  C   UNL     1       3.298   6.419  18.217  0.00  0.00    +0.000 A 
ATOM     14  C   UNL     1       2.401   7.253  18.892  0.00  0.00    +0.000 A 
ATOM     15  C   UNL     1       1.855   6.850  20.105  0.00  0.00    +0.000 A 
ATOM     16 CL   UNL     1       0.770   7.887  20.945  0.00  0.00    +0.000 Cl
ATOM     17  C   UNL     1       2.182   5.609  20.639  0.00  0.00    +0.000 A 
ATOM     18  C   UNL     1       3.079   4.774  19.963  0.00  0.00    +0.000 A 
ENDBRANCH  10  12
BRANCH  11  19
ATOM     19  O   UNL     1       5.696   3.410  15.987  0.00  0.00    +0.000 OA
ATOM     20  H   UNL     1       6.252   3.062  16.709  0.00  0.00    +0.000 HD
ENDBRANCH  11  19
TORSDOF 2
ENDMDL
MODEL 6
REMARK VINA RESULT:      -6.9      2.878      5.448
REMARK  Name = 
REMARK  2 active torsions:
REMARK  status: ('A' for Active; 'I' for Inactive)
REMARK    1  A    between atoms: C_10  and  C_11
REMARK    2  A    between atoms: C_18  and  O_19
REMARK                            x       y       z     vdW  Elec       q    Type
REMARK                         _______ _______ _______ _____ _____    ______ ____
ROOT
ATOM      1  O   UNL     1       5.169   1.993  20.517  0.00  0.00    +0.000 OA
ATOM      2  C   UNL     1       4.410   2.323  19.609  0.00  0.00    +0.000 C 
ATOM      3  C   UNL     1       3.212   3.141  19.877  0.00  0.00    +0.000 A 
ATOM      4  C   UNL     1       2.849   3.469  21.185  0.00  0.00    +0.000 A 
ATOM      5  C   UNL     1       1.693   4.219  21.409  0.00  0.00    +0.000 A 
ATOM      6  C   UNL     1       0.896   4.614  20.332  0.00  0.00    +0.000 A 
ATOM      7  C   UNL     1       1.262   4.281  19.027  0.00  0.00    +0.000 A 
ATOM      8  C   UNL     1       2.441   3.573  18.798  0.00  0.00    +0.000 A 
ATOM      9  O   UNL     1       2.777   3.353  17.486  0.00  0.00    +0.000 OA
ATOM     10  C   UNL     1       4.190   3.092  17.272  0.00  0.00    +0.000 C 
ATOM     11  C   UNL     1       4.609   1.905  18.161  0.00  0.00    +0.000 C 
ENDROOT
BRANCH  10  12
ATOM     12  C   UNL     1       5.028   4.371  17.366  0.00  0.00    +0.000 A 
ATOM     13  C   UNL     1       4.491   5.641  17.093  0.00  0.00    +0.000 A 
ATOM     14  C   UNL     1       5.286   6.791  17.158  0.00  0.00    +0.000 A 
ATOM     15  C   UNL     1       6.625   6.690  17.513  0.00  0.00    +0.000 A 
ATOM     16 CL   UNL     1       7.607   8.101  17.569  0.00  0.00    +0.000 Cl
ATOM     17  C   UNL     1       7.174   5.450  17.824  0.00  0.00    +0.000 A 
ATOM     18  C   UNL     1       6.378   4.301  17.760  0.00  0.00    +0.000 A 
ENDBRANCH  10  12
BRANCH  11  19
ATOM     19  O   UNL     1       3.851   0.735  17.849  0.00  0.00    +0.000 OA
ATOM     20  H   UNL     1       3.294   0.937  17.074  0.00  0.00    +0.000 HD
ENDBRANCH  11  19
TORSDOF 2
ENDMDL
MODEL 7
REMARK VINA RESULT:      -6.9      1.725      2.086
REMARK  Name = 
REMARK  2 active torsions:
REMARK  status: ('A' for Active; 'I' for Inactive)
REMARK    1  A    between atoms: C_10  and  C_11
REMARK    2  A    between atoms: C_18  and  O_19
REMARK                            x       y       z     vdW  Elec       q    Type
REMARK                         _______ _______ _______ _____ _____    ______ ____
ROOT
ATOM      1  O   UNL     1       5.098   6.624  15.438  0.00  0.00    +0.000 OA
ATOM      2  C   UNL     1       5.417   5.875  16.357  0.00  0.00    +0.000 C 
ATOM      3  C   UNL     1       6.451   6.265  17.334  0.00  0.00    +0.000 A 
ATOM      4  C   UNL     1       7.174   7.450  17.175  0.00  0.00    +0.000 A 
ATOM      5  C   UNL     1       8.166   7.778  18.100  0.00  0.00    +0.000 A 
ATOM      6  C   UNL     1       8.449   6.913  19.159  0.00  0.00    +0.000 A 
ATOM      7  C   UNL     1       7.726   5.728  19.312  0.00  0.00    +0.000 A 
ATOM      8  C   UNL     1       6.702   5.423  18.417  0.00  0.00    +0.000 A 
ATOM      9  O   UNL     1       5.983   4.284  18.677  0.00  0.00    +0.000 OA
ATOM     10  C   UNL     1       4.662   4.265  18.073  0.00  0.00    +0.000 C 
ATOM     11  C   UNL     1       4.814   4.493  16.556  0.00  0.00    +0.000 C 
ENDROOT
BRANCH  10  12
ATOM     12  C   UNL     1       3.676   5.168  18.823  0.00  0.00    +0.000 A 
ATOM     13  C   UNL     1       3.121   4.803  20.062  0.00  0.00    +0.000 A 
ATOM     14  C   UNL     1       2.200   5.632  20.712  0.00  0.00    +0.000 A 
ATOM     15  C   UNL     1       1.835   6.846  20.143  0.00  0.00    +0.000 A 
ATOM     16 CL   UNL     1       0.686   7.853  20.933  0.00  0.00    +0.000 Cl
ATOM     17  C   UNL     1       2.398   7.249  18.936  0.00  0.00    +0.000 A 
ATOM     18  C   UNL     1       3.319   6.420  18.287  0.00  0.00    +0.000 A 
ENDBRANCH  10  12
BRANCH  11  19
ATOM     19  O   UNL     1       5.630   3.481  15.962  0.00  0.00    +0.000 OA
ATOM     20  H   UNL     1       5.279   2.614  16.241  0.00  0.00    +0.000 HD
ENDBRANCH  11  19
TORSDOF 2
ENDMDL
MODEL 8
REMARK VINA RESULT:      -6.8      2.843      5.493
REMARK  Name = 
REMARK  2 active torsions:
REMARK  status: ('A' for Active; 'I' for Inactive)
REMARK    1  A    between atoms: C_10  and  C_11
REMARK    2  A    between atoms: C_18  and  O_19
REMARK                            x       y       z     vdW  Elec       q    Type
REMARK                         _______ _______ _______ _____ _____    ______ ____
ROOT
ATOM      1  O   UNL     1       5.150   2.075  20.524  0.00  0.00    +0.000 OA
ATOM      2  C   UNL     1       4.411   2.416  19.604  0.00  0.00    +0.000 C 
ATOM      3  C   UNL     1       3.250   3.293  19.845  0.00  0.00    +0.000 A 
ATOM      4  C   UNL     1       2.895   3.669  21.143  0.00  0.00    +0.000 A 
ATOM      5  C   UNL     1       1.774   4.476  21.342  0.00  0.00    +0.000 A 
ATOM      6  C   UNL     1       1.000   4.879  20.252  0.00  0.00    +0.000 A 
ATOM      7  C   UNL     1       1.357   4.499  18.957  0.00  0.00    +0.000 A 
ATOM      8  C   UNL     1       2.504   3.733  18.752  0.00  0.00    +0.000 A 
ATOM      9  O   UNL     1       2.835   3.466  17.448  0.00  0.00    +0.000 OA
ATOM     10  C   UNL     1       4.236   3.137  17.248  0.00  0.00    +0.000 C 
ATOM     11  C   UNL     1       4.598   1.954  18.168  0.00  0.00    +0.000 C 
ENDROOT
BRANCH  10  12
ATOM     12  C   UNL     1       5.131   4.379  17.316  0.00  0.00    +0.000 A 
ATOM     13  C   UNL     1       6.464   4.319  17.759  0.00  0.00    +0.000 A 
ATOM     14  C   UNL     1       7.250   5.473  17.840  0.00  0.00    +0.000 A 
ATOM     15  C   UNL     1       6.723   6.702  17.461  0.00  0.00    +0.000 A 
ATOM     16 CL   UNL     1       7.684   8.123  17.582  0.00  0.00    +0.000 Cl
ATOM     17  C   UNL     1       5.419   6.784  16.983  0.00  0.00    +0.000 A 
ATOM     18  C   UNL     1       4.634   5.629  16.902  0.00  0.00    +0.000 A 
ENDBRANCH  10  12
BRANCH  11  19
ATOM     19  O   UNL     1       3.789   0.812  17.880  0.00  0.00    +0.000 OA
ATOM     20  H   UNL     1       4.351   0.154  17.428  0.00  0.00    +0.000 HD
ENDBRANCH  11  19
TORSDOF 2
ENDMDL
MODEL 9
REMARK VINA RESULT:      -6.8      2.450      3.680
REMARK  Name = 
REMARK  2 active torsions:
REMARK  status: ('A' for Active; 'I' for Inactive)
REMARK    1  A    between atoms: C_10  and  C_11
REMARK    2  A    between atoms: C_18  and  O_19
REMARK                            x       y       z     vdW  Elec       q    Type
REMARK                         _______ _______ _______ _____ _____    ______ ____
ROOT
ATOM      1  O   UNL     1       2.582   2.916  16.520  0.00  0.00    +0.000 OA
ATOM      2  C   UNL     1       3.463   3.165  17.339  0.00  0.00    +0.000 C 
ATOM      3  C   UNL     1       4.675   3.909  16.949  0.00  0.00    +0.000 A 
ATOM      4  C   UNL     1       4.906   4.253  15.615  0.00  0.00    +0.000 A 
ATOM      5  C   UNL     1       6.077   4.930  15.274  0.00  0.00    +0.000 A 
ATOM      6  C   UNL     1       7.020   5.236  16.256  0.00  0.00    +0.000 A 
ATOM      7  C   UNL     1       6.787   4.888  17.588  0.00  0.00    +0.000 A 
ATOM      8  C   UNL     1       5.596   4.254  17.939  0.00  0.00    +0.000 A 
ATOM      9  O   UNL     1       5.401   4.015  19.276  0.00  0.00    +0.000 OA
ATOM     10  C   UNL     1       4.008   3.843  19.650  0.00  0.00    +0.000 C 
ATOM     11  C   UNL     1       3.405   2.716  18.790  0.00  0.00    +0.000 C 
ENDROOT
BRANCH  10  12
ATOM     12  C   UNL     1       3.256   5.178  19.686  0.00  0.00    +0.000 A 
ATOM     13  C   UNL     1       3.504   6.203  18.756  0.00  0.00    +0.000 A 
ATOM     14  C   UNL     1       2.825   7.424  18.830  0.00  0.00    +0.000 A 
ATOM     15  C   UNL     1       1.875   7.632  19.823  0.00  0.00    +0.000 A 
ATOM     16 CL   UNL     1       1.058   9.142  19.925  0.00  0.00    +0.000 Cl
ATOM     17  C   UNL     1       1.583   6.622  20.732  0.00  0.00    +0.000 A 
ATOM     18  C   UNL     1       2.262   5.401  20.658  0.00  0.00    +0.000 A 
ENDBRANCH  10  12
BRANCH  11  19
ATOM     19  O   UNL     1       4.111   1.488  18.982  0.00  0.00    +0.000 OA
ATOM     20  H   UNL     1       4.444   1.475  19.899  0.00  0.00    +0.000 HD
ENDBRANCH  11  19
TORSDOF 2
ENDMDL
