MODEL 1
REMARK VINA RESULT:      -8.0      0.000      0.000
REMARK  Name = 
REMARK  9 active torsions:
REMARK  status: ('A' for Active; 'I' for Inactive)
REMARK    1  A    between atoms: C_1  and  C_2
REMARK    2  A    between atoms: C_6  and  C_7
REMARK    3  A    between atoms: C_7  and  C_8
REMARK    4  A    between atoms: C_8  and  N_9
REMARK    5  A    between atoms: C_10  and  C_12
REMARK    6  A    between atoms: C_12  and  C_13
REMARK    7  A    between atoms: N_19  and  C_20
REMARK    8  A    between atoms: C_20  and  C_21
REMARK    9  A    between atoms: C_26  and  C_27
REMARK                            x       y       z     vdW  Elec       q    Type
REMARK                         _______ _______ _______ _____ _____    ______ ____
ROOT
ATOM      1  C   UNL     1       2.285   5.238  18.871  0.00  0.00    +0.000 C 
ATOM      2  C   UNL     1       1.398   5.013  20.112  0.00  0.00    +0.000 C 
ATOM      3  O   UNL     1       1.081   5.926  20.877  0.00  0.00    +0.000 OA
ATOM      4  N   UNL     1       0.806   3.789  20.267  0.00  0.00    +0.000 N 
ATOM      5  C   UNL     1       1.396   2.585  19.737  0.00  0.00    +0.000 C 
ATOM      6  C   UNL     1       2.148   2.798  18.426  0.00  0.00    +0.000 C 
ATOM      7  N   UNL     1       2.956   4.025  18.346  0.00  0.00    +0.000 NA
ATOM      8  H   UNL     1       0.215   3.712  21.085  0.00  0.00    +0.000 HD
ENDROOT
BRANCH   1   9
ATOM      9  C   UNL     1       3.119   6.534  18.994  0.00  0.00    +0.000 C 
BRANCH   9  11
ATOM     10  N   UNL     1       1.669   8.515  19.019  0.00  0.00    +0.000 N 
ATOM     11  C   UNL     1       2.583   7.782  18.301  0.00  0.00    +0.000 C 
ATOM     12  O   UNL     1       2.914   8.091  17.160  0.00  0.00    +0.000 OA
ATOM     13  H   UNL     1       1.574   8.315  20.009  0.00  0.00    +0.000 HD
BRANCH  10  14
ATOM     14  C   UNL     1       1.117   9.769  18.515  0.00  0.00    +0.000 C 
BRANCH  14  15
ATOM     15  C   UNL     1      -0.050  10.293  19.352  0.00  0.00    +0.000 C 
BRANCH  15  21
ATOM     16  C   UNL     1      -4.527  12.171  18.925  0.00  0.00    +0.000 C 
ATOM     17  C   UNL     1      -3.440  11.338  18.315  0.00  0.00    +0.000 A 
ATOM     18  C   UNL     1      -3.617  10.736  17.072  0.00  0.00    +0.000 A 
ATOM     19  C   UNL     1      -2.587   9.963  16.555  0.00  0.00    +0.000 A 
ATOM     20  C   UNL     1      -1.413   9.806  17.285  0.00  0.00    +0.000 A 
ATOM     21  C   UNL     1      -1.304  10.431  18.523  0.00  0.00    +0.000 A 
ATOM     22  N   UNL     1      -2.299  11.198  19.035  0.00  0.00    +0.000 NA
ENDBRANCH  15  21
ENDBRANCH  14  15
ENDBRANCH  10  14
ENDBRANCH   9  11
ENDBRANCH   1   9
BRANCH   7  23
ATOM     23  C   UNL     1       4.380   3.878  18.632  0.00  0.00    +0.000 C 
BRANCH  23  24
ATOM     24  C   UNL     1       5.237   4.400  17.496  0.00  0.00    +0.000 A 
ATOM     25  C   UNL     1       4.881   3.998  16.188  0.00  0.00    +0.000 A 
ATOM     26  C   UNL     1       5.698   4.283  15.104  0.00  0.00    +0.000 A 
ATOM     27  C   UNL     1       6.878   4.987  15.304  0.00  0.00    +0.000 A 
ATOM     28  C   UNL     1       7.229   5.424  16.583  0.00  0.00    +0.000 A 
ATOM     29  C   UNL     1       6.417   5.142  17.692  0.00  0.00    +0.000 A 
ATOM     30  C   UNL     1       6.913   5.557  19.055  0.00  0.00    +0.000 C 
ENDBRANCH  23  24
ENDBRANCH   7  23
TORSDOF 7
ENDMDL
MODEL 2
REMARK VINA RESULT:      -8.0      1.788      2.516
REMARK  Name = 
REMARK  9 active torsions:
REMARK  status: ('A' for Active; 'I' for Inactive)
REMARK    1  A    between atoms: C_1  and  C_2
REMARK    2  A    between atoms: C_6  and  C_7
REMARK    3  A    between atoms: C_7  and  C_8
REMARK    4  A    between atoms: C_8  and  N_9
REMARK    5  A    between atoms: C_10  and  C_12
REMARK    6  A    between atoms: C_12  and  C_13
REMARK    7  A    between atoms: N_19  and  C_20
REMARK    8  A    between atoms: C_20  and  C_21
REMARK    9  A    between atoms: C_26  and  C_27
REMARK                            x       y       z     vdW  Elec       q    Type
REMARK                         _______ _______ _______ _____ _____    ______ ____
ROOT
ATOM      1  C   UNL     1       2.415   5.033  18.538  0.00  0.00    +0.000 C 
ATOM      2  C   UNL     1       1.545   4.556  19.719  0.00  0.00    +0.000 C 
ATOM      3  O   UNL     1       1.179   5.311  20.622  0.00  0.00    +0.000 OA
ATOM      4  N   UNL     1       1.022   3.293  19.664  0.00  0.00    +0.000 N 
ATOM      5  C   UNL     1       1.675   2.228  18.946  0.00  0.00    +0.000 C 
ATOM      6  C   UNL     1       2.412   2.697  17.694  0.00  0.00    +0.000 C 
ATOM      7  N   UNL     1       3.151   3.963  17.824  0.00  0.00    +0.000 NA
ATOM      8  H   UNL     1       0.437   3.049  20.454  0.00  0.00    +0.000 HD
ENDROOT
BRANCH   1   9
ATOM      9  C   UNL     1       3.176   6.334  18.881  0.00  0.00    +0.000 C 
BRANCH   9  11
ATOM     10  N   UNL     1       1.909   8.423  19.123  0.00  0.00    +0.000 N 
ATOM     11  C   UNL     1       2.652   7.634  18.279  0.00  0.00    +0.000 C 
ATOM     12  O   UNL     1       2.845   7.936  17.105  0.00  0.00    +0.000 OA
ATOM     13  H   UNL     1       1.937   8.213  20.115  0.00  0.00    +0.000 HD
BRANCH  10  14
ATOM     14  C   UNL     1       1.396   9.726  18.710  0.00  0.00    +0.000 C 
BRANCH  14  15
ATOM     15  C   UNL     1      -0.086   9.919  19.031  0.00  0.00    +0.000 C 
BRANCH  15  21
ATOM     16  C   UNL     1      -1.153  12.864  22.763  0.00  0.00    +0.000 C 
ATOM     17  C   UNL     1      -0.835  11.475  22.297  0.00  0.00    +0.000 A 
ATOM     18  C   UNL     1      -0.750  10.423  23.204  0.00  0.00    +0.000 A 
ATOM     19  C   UNL     1      -0.440   9.157  22.727  0.00  0.00    +0.000 A 
ATOM     20  C   UNL     1      -0.218   8.972  21.365  0.00  0.00    +0.000 A 
ATOM     21  C   UNL     1      -0.314  10.069  20.515  0.00  0.00    +0.000 A 
ATOM     22  N   UNL     1      -0.628  11.309  20.968  0.00  0.00    +0.000 NA
ENDBRANCH  15  21
ENDBRANCH  14  15
ENDBRANCH  10  14
ENDBRANCH   9  11
ENDBRANCH   1   9
BRANCH   7  23
ATOM     23  C   UNL     1       4.581   3.849  18.092  0.00  0.00    +0.000 C 
BRANCH  23  24
ATOM     24  C   UNL     1       5.411   4.322  16.915  0.00  0.00    +0.000 A 
ATOM     25  C   UNL     1       4.861   4.137  15.627  0.00  0.00    +0.000 A 
ATOM     26  C   UNL     1       5.610   4.381  14.485  0.00  0.00    +0.000 A 
ATOM     27  C   UNL     1       6.918   4.829  14.610  0.00  0.00    +0.000 A 
ATOM     28  C   UNL     1       7.468   5.052  15.874  0.00  0.00    +0.000 A 
ATOM     29  C   UNL     1       6.727   4.808  17.040  0.00  0.00    +0.000 A 
ATOM     30  C   UNL     1       7.422   4.975  18.367  0.00  0.00    +0.000 C 
ENDBRANCH  23  24
ENDBRANCH   7  23
TORSDOF 7
ENDMDL
MODEL 3
REMARK VINA RESULT:      -8.0      1.746      4.305
REMARK  Name = 
REMARK  9 active torsions:
REMARK  status: ('A' for Active; 'I' for Inactive)
REMARK    1  A    between atoms: C_1  and  C_2
REMARK    2  A    between atoms: C_6  and  C_7
REMARK    3  A    between atoms: C_7  and  C_8
REMARK    4  A    between atoms: C_8  and  N_9
REMARK    5  A    between atoms: C_10  and  C_12
REMARK    6  A    between atoms: C_12  and  C_13
REMARK    7  A    between atoms: N_19  and  C_20
REMARK    8  A    between atoms: C_20  and  C_21
REMARK    9  A    between atoms: C_26  and  C_27
REMARK                            x       y       z     vdW  Elec       q    Type
REMARK                         _______ _______ _______ _____ _____    ______ ____
ROOT
ATOM      1  C   UNL     1       4.967   6.080  17.933  0.00  0.00    +0.000 C 
ATOM      2  C   UNL     1       5.983   6.413  16.822  0.00  0.00    +0.000 C 
ATOM      3  O   UNL     1       5.759   7.249  15.944  0.00  0.00    +0.000 OA
ATOM      4  N   UNL     1       7.242   5.885  16.922  0.00  0.00    +0.000 N 
ATOM      5  C   UNL     1       7.493   4.636  17.596  0.00  0.00    +0.000 C 
ATOM      6  C   UNL     1       6.572   4.388  18.787  0.00  0.00    +0.000 C 
ATOM      7  N   UNL     1       5.164   4.769  18.597  0.00  0.00    +0.000 NA
ATOM      8  H   UNL     1       7.871   6.163  16.178  0.00  0.00    +0.000 HD
ENDROOT
BRANCH   1   9
ATOM      9  C   UNL     1       3.530   6.481  17.528  0.00  0.00    +0.000 C 
BRANCH   9  11
ATOM     10  N   UNL     1       2.240   8.460  18.197  0.00  0.00    +0.000 N 
ATOM     11  C   UNL     1       2.687   7.215  18.566  0.00  0.00    +0.000 C 
ATOM     12  O   UNL     1       2.456   6.742  19.675  0.00  0.00    +0.000 OA
ATOM     13  H   UNL     1       2.307   8.717  17.218  0.00  0.00    +0.000 HD
BRANCH  10  14
ATOM     14  C   UNL     1       1.369   9.255  19.058  0.00  0.00    +0.000 C 
BRANCH  14  15
ATOM     15  C   UNL     1       0.945  10.581  18.426  0.00  0.00    +0.000 C 
BRANCH  15  21
ATOM     16  C   UNL     1      -3.124  12.672  20.106  0.00  0.00    +0.000 C 
ATOM     17  C   UNL     1      -2.501  11.706  19.143  0.00  0.00    +0.000 A 
ATOM     18  C   UNL     1      -3.290  10.974  18.260  0.00  0.00    +0.000 A 
ATOM     19  C   UNL     1      -2.669  10.082  17.396  0.00  0.00    +0.000 A 
ATOM     20  C   UNL     1      -1.285   9.939  17.436  0.00  0.00    +0.000 A 
ATOM     21  C   UNL     1      -0.558  10.699  18.347  0.00  0.00    +0.000 A 
ATOM     22  N   UNL     1      -1.152  11.582  19.188  0.00  0.00    +0.000 NA
ENDBRANCH  15  21
ENDBRANCH  14  15
ENDBRANCH  10  14
ENDBRANCH   9  11
ENDBRANCH   1   9
BRANCH   7  23
ATOM     23  C   UNL     1       4.250   3.694  18.224  0.00  0.00    +0.000 C 
BRANCH  23  24
ATOM     24  C   UNL     1       3.178   3.481  19.274  0.00  0.00    +0.000 A 
ATOM     25  C   UNL     1       3.607   3.062  20.554  0.00  0.00    +0.000 A 
ATOM     26  C   UNL     1       2.696   2.680  21.527  0.00  0.00    +0.000 A 
ATOM     27  C   UNL     1       1.338   2.723  21.245  0.00  0.00    +0.000 A 
ATOM     28  C   UNL     1       0.891   3.168  19.998  0.00  0.00    +0.000 A 
ATOM     29  C   UNL     1       1.799   3.555  19.000  0.00  0.00    +0.000 A 
ATOM     30  C   UNL     1       1.246   3.926  17.648  0.00  0.00    +0.000 C 
ENDBRANCH  23  24
ENDBRANCH   7  23
TORSDOF 7
ENDMDL
MODEL 4
REMARK VINA RESULT:      -7.8      0.831      1.391
REMARK  Name = 
REMARK  9 active torsions:
REMARK  status: ('A' for Active; 'I' for Inactive)
REMARK    1  A    between atoms: C_1  and  C_2
REMARK    2  A    between atoms: C_6  and  C_7
REMARK    3  A    between atoms: C_7  and  C_8
REMARK    4  A    between atoms: C_8  and  N_9
REMARK    5  A    between atoms: C_10  and  C_12
REMARK    6  A    between atoms: C_12  and  C_13
REMARK    7  A    between atoms: N_19  and  C_20
REMARK    8  A    between atoms: C_20  and  C_21
REMARK    9  A    between atoms: C_26  and  C_27
REMARK                            x       y       z     vdW  Elec       q    Type
REMARK                         _______ _______ _______ _____ _____    ______ ____
ROOT
ATOM      1  C   UNL     1       2.172   4.919  18.812  0.00  0.00    +0.000 C 
ATOM      2  C   UNL     1       1.259   4.387  19.935  0.00  0.00    +0.000 C 
ATOM      3  O   UNL     1       0.837   5.105  20.844  0.00  0.00    +0.000 OA
ATOM      4  N   UNL     1       0.766   3.116  19.816  0.00  0.00    +0.000 N 
ATOM      5  C   UNL     1       1.473   2.088  19.095  0.00  0.00    +0.000 C 
ATOM      6  C   UNL     1       2.257   2.613  17.894  0.00  0.00    +0.000 C 
ATOM      7  N   UNL     1       2.962   3.887  18.098  0.00  0.00    +0.000 NA
ATOM      8  H   UNL     1       0.151   2.836  20.570  0.00  0.00    +0.000 HD
ENDROOT
BRANCH   1   9
ATOM      9  C   UNL     1       2.890   6.223  19.231  0.00  0.00    +0.000 C 
BRANCH   9  11
ATOM     10  N   UNL     1       1.838   8.371  18.680  0.00  0.00    +0.000 N 
ATOM     11  C   UNL     1       2.759   7.425  18.302  0.00  0.00    +0.000 C 
ATOM     12  O   UNL     1       3.405   7.524  17.263  0.00  0.00    +0.000 OA
ATOM     13  H   UNL     1       1.472   8.326  19.625  0.00  0.00    +0.000 HD
BRANCH  10  14
ATOM     14  C   UNL     1       1.647   9.608  17.928  0.00  0.00    +0.000 C 
BRANCH  14  15
ATOM     15  C   UNL     1       1.186  10.777  18.798  0.00  0.00    +0.000 C 
BRANCH  15  21
ATOM     16  C   UNL     1      -2.891  10.108  16.213  0.00  0.00    +0.000 C 
ATOM     17  C   UNL     1      -2.252  10.673  17.446  0.00  0.00    +0.000 A 
ATOM     18  C   UNL     1      -3.009  11.365  18.387  0.00  0.00    +0.000 A 
ATOM     19  C   UNL     1      -2.370  11.881  19.505  0.00  0.00    +0.000 A 
ATOM     20  C   UNL     1      -0.999  11.700  19.658  0.00  0.00    +0.000 A 
ATOM     21  C   UNL     1      -0.301  11.002  18.676  0.00  0.00    +0.000 A 
ATOM     22  N   UNL     1      -0.916  10.483  17.585  0.00  0.00    +0.000 NA
ENDBRANCH  15  21
ENDBRANCH  14  15
ENDBRANCH  10  14
ENDBRANCH   9  11
ENDBRANCH   1   9
BRANCH   7  23
ATOM     23  C   UNL     1       4.381   3.793  18.429  0.00  0.00    +0.000 C 
BRANCH  23  24
ATOM     24  C   UNL     1       5.251   4.366  17.329  0.00  0.00    +0.000 A 
ATOM     25  C   UNL     1       4.897   4.049  15.998  0.00  0.00    +0.000 A 
ATOM     26  C   UNL     1       5.724   4.383  14.936  0.00  0.00    +0.000 A 
ATOM     27  C   UNL     1       6.913   5.055  15.182  0.00  0.00    +0.000 A 
ATOM     28  C   UNL     1       7.264   5.410  16.487  0.00  0.00    +0.000 A 
ATOM     29  C   UNL     1       6.443   5.076  17.574  0.00  0.00    +0.000 A 
ATOM     30  C   UNL     1       6.937   5.403  18.960  0.00  0.00    +0.000 C 
ENDBRANCH  23  24
ENDBRANCH   7  23
TORSDOF 7
ENDMDL
MODEL 5
REMARK VINA RESULT:      -7.8      2.331      4.680
REMARK  Name = 
REMARK  9 active torsions:
REMARK  status: ('A' for Active; 'I' for Inactive)
REMARK    1  A    between atoms: C_1  and  C_2
REMARK    2  A    between atoms: C_6  and  C_7
REMARK    3  A    between atoms: C_7  and  C_8
REMARK    4  A    between atoms: C_8  and  N_9
REMARK    5  A    between atoms: C_10  and  C_12
REMARK    6  A    between atoms: C_12  and  C_13
REMARK    7  A    between atoms: N_19  and  C_20
REMARK    8  A    between atoms: C_20  and  C_21
REMARK    9  A    between atoms: C_26  and  C_27
REMARK                            x       y       z     vdW  Elec       q    Type
REMARK                         _______ _______ _______ _____ _____    ______ ____
ROOT
ATOM      1  C   UNL     1       4.544   5.959  17.591  0.00  0.00    +0.000 C 
ATOM      2  C   UNL     1       5.317   6.364  16.320  0.00  0.00    +0.000 C 
ATOM      3  O   UNL     1       4.928   7.253  15.560  0.00  0.00    +0.000 OA
ATOM      4  N   UNL     1       6.565   5.834  16.130  0.00  0.00    +0.000 N 
ATOM      5  C   UNL     1       6.934   4.546  16.659  0.00  0.00    +0.000 C 
ATOM      6  C   UNL     1       6.271   4.221  17.996  0.00  0.00    +0.000 C 
ATOM      7  N   UNL     1       4.858   4.610  18.119  0.00  0.00    +0.000 NA
ATOM      8  H   UNL     1       7.032   6.160  15.293  0.00  0.00    +0.000 HD
ENDROOT
BRANCH   1   9
ATOM      9  C   UNL     1       3.059   6.381  17.513  0.00  0.00    +0.000 C 
BRANCH   9  11
ATOM     10  N   UNL     1       2.159   7.436  19.539  0.00  0.00    +0.000 N 
ATOM     11  C   UNL     1       2.645   7.639  18.270  0.00  0.00    +0.000 C 
ATOM     12  O   UNL     1       2.703   8.756  17.766  0.00  0.00    +0.000 OA
ATOM     13  H   UNL     1       2.302   6.526  19.961  0.00  0.00    +0.000 HD
BRANCH  10  14
ATOM     14  C   UNL     1       1.784   8.547  20.409  0.00  0.00    +0.000 C 
BRANCH  14  15
ATOM     15  C   UNL     1       0.539   8.261  21.249  0.00  0.00    +0.000 C 
BRANCH  15  21
ATOM     16  C   UNL     1      -1.451  12.421  19.676  0.00  0.00    +0.000 C 
ATOM     17  C   UNL     1      -1.162  11.515  20.834  0.00  0.00    +0.000 A 
ATOM     18  C   UNL     1      -1.553  11.862  22.124  0.00  0.00    +0.000 A 
ATOM     19  C   UNL     1      -1.252  10.997  23.166  0.00  0.00    +0.000 A 
ATOM     20  C   UNL     1      -0.567   9.814  22.901  0.00  0.00    +0.000 A 
ATOM     21  C   UNL     1      -0.201   9.531  21.588  0.00  0.00    +0.000 A 
ATOM     22  N   UNL     1      -0.501  10.363  20.560  0.00  0.00    +0.000 NA
ENDBRANCH  15  21
ENDBRANCH  14  15
ENDBRANCH  10  14
ENDBRANCH   9  11
ENDBRANCH   1   9
BRANCH   7  23
ATOM     23  C   UNL     1       3.876   3.558  17.874  0.00  0.00    +0.000 C 
BRANCH  23  24
ATOM     24  C   UNL     1       2.991   3.325  19.081  0.00  0.00    +0.000 A 
ATOM     25  C   UNL     1       1.735   3.973  19.091  0.00  0.00    +0.000 A 
ATOM     26  C   UNL     1       0.929   3.960  20.220  0.00  0.00    +0.000 A 
ATOM     27  C   UNL     1       1.356   3.285  21.355  0.00  0.00    +0.000 A 
ATOM     28  C   UNL     1       2.578   2.608  21.354  0.00  0.00    +0.000 A 
ATOM     29  C   UNL     1       3.408   2.614  20.223  0.00  0.00    +0.000 A 
ATOM     30  C   UNL     1       4.756   1.948  20.332  0.00  0.00    +0.000 C 
ENDBRANCH  23  24
ENDBRANCH   7  23
TORSDOF 7
ENDMDL
MODEL 6
REMARK VINA RESULT:      -7.7      1.802      2.843
REMARK  Name = 
REMARK  9 active torsions:
REMARK  status: ('A' for Active; 'I' for Inactive)
REMARK    1  A    between atoms: C_1  and  C_2
REMARK    2  A    between atoms: C_6  and  C_7
REMARK    3  A    between atoms: C_7  and  C_8
REMARK    4  A    between atoms: C_8  and  N_9
REMARK    5  A    between atoms: C_10  and  C_12
REMARK    6  A    between atoms: C_12  and  C_13
REMARK    7  A    between atoms: N_19  and  C_20
REMARK    8  A    between atoms: C_20  and  C_21
REMARK    9  A    between atoms: C_26  and  C_27
REMARK                            x       y       z     vdW  Elec       q    Type
REMARK                         _______ _______ _______ _____ _____    ______ ____
ROOT
ATOM      1  C   UNL     1       2.618   4.717  18.853  0.00  0.00    +0.000 C 
ATOM      2  C   UNL     1       1.511   4.177  19.781  0.00  0.00    +0.000 C 
ATOM      3  O   UNL     1       0.889   4.899  20.563  0.00  0.00    +0.000 OA
ATOM      4  N   UNL     1       1.092   2.887  19.600  0.00  0.00    +0.000 N 
ATOM      5  C   UNL     1       1.964   1.869  19.070  0.00  0.00    +0.000 C 
ATOM      6  C   UNL     1       2.960   2.395  18.039  0.00  0.00    +0.000 C 
ATOM      7  N   UNL     1       3.569   3.698  18.346  0.00  0.00    +0.000 NA
ATOM      8  H   UNL     1       0.344   2.601  20.221  0.00  0.00    +0.000 HD
ENDROOT
BRANCH   1   9
ATOM      9  C   UNL     1       3.193   6.054  19.371  0.00  0.00    +0.000 C 
BRANCH   9  11
ATOM     10  N   UNL     1       2.002   8.147  18.890  0.00  0.00    +0.000 N 
ATOM     11  C   UNL     1       3.000   7.288  18.495  0.00  0.00    +0.000 C 
ATOM     12  O   UNL     1       3.663   7.482  17.481  0.00  0.00    +0.000 OA
ATOM     13  H   UNL     1       1.617   8.030  19.821  0.00  0.00    +0.000 HD
BRANCH  10  14
ATOM     14  C   UNL     1       1.742   9.402  18.191  0.00  0.00    +0.000 C 
BRANCH  14  15
ATOM     15  C   UNL     1       0.281   9.845  18.274  0.00  0.00    +0.000 C 
BRANCH  15  21
ATOM     16  C   UNL     1      -0.105   9.503  23.119  0.00  0.00    +0.000 C 
ATOM     17  C   UNL     1      -0.186  10.373  21.901  0.00  0.00    +0.000 A 
ATOM     18  C   UNL     1      -0.527  11.718  22.009  0.00  0.00    +0.000 A 
ATOM     19  C   UNL     1      -0.604  12.480  20.851  0.00  0.00    +0.000 A 
ATOM     20  C   UNL     1      -0.343  11.885  19.620  0.00  0.00    +0.000 A 
ATOM     21  C   UNL     1      -0.012  10.534  19.584  0.00  0.00    +0.000 A 
ATOM     22  N   UNL     1       0.077   9.782  20.709  0.00  0.00    +0.000 NA
ENDBRANCH  15  21
ENDBRANCH  14  15
ENDBRANCH  10  14
ENDBRANCH   9  11
ENDBRANCH   1   9
BRANCH   7  23
ATOM     23  C   UNL     1       4.892   3.663  18.962  0.00  0.00    +0.000 C 
BRANCH  23  24
ATOM     24  C   UNL     1       5.853   4.616  18.281  0.00  0.00    +0.000 A 
ATOM     25  C   UNL     1       6.659   5.421  19.118  0.00  0.00    +0.000 A 
ATOM     26  C   UNL     1       7.443   6.439  18.595  0.00  0.00    +0.000 A 
ATOM     27  C   UNL     1       7.448   6.662  17.225  0.00  0.00    +0.000 A 
ATOM     28  C   UNL     1       6.686   5.854  16.377  0.00  0.00    +0.000 A 
ATOM     29  C   UNL     1       5.884   4.822  16.888  0.00  0.00    +0.000 A 
ATOM     30  C   UNL     1       5.012   4.060  15.923  0.00  0.00    +0.000 C 
ENDBRANCH  23  24
ENDBRANCH   7  23
TORSDOF 7
ENDMDL
MODEL 7
REMARK VINA RESULT:      -7.7      1.800      2.352
REMARK  Name = 
REMARK  9 active torsions:
REMARK  status: ('A' for Active; 'I' for Inactive)
REMARK    1  A    between atoms: C_1  and  C_2
REMARK    2  A    between atoms: C_6  and  C_7
REMARK    3  A    between atoms: C_7  and  C_8
REMARK    4  A    between atoms: C_8  and  N_9
REMARK    5  A    between atoms: C_10  and  C_12
REMARK    6  A    between atoms: C_12  and  C_13
REMARK    7  A    between atoms: N_19  and  C_20
REMARK    8  A    between atoms: C_20  and  C_21
REMARK    9  A    between atoms: C_26  and  C_27
REMARK                            x       y       z     vdW  Elec       q    Type
REMARK                         _______ _______ _______ _____ _____    ______ ____
ROOT
ATOM      1  C   UNL     1       2.339   4.750  18.747  0.00  0.00    +0.000 C 
ATOM      2  C   UNL     1       1.444   4.224  19.887  0.00  0.00    +0.000 C 
ATOM      3  O   UNL     1       1.084   4.932  20.831  0.00  0.00    +0.000 OA
ATOM      4  N   UNL     1       0.891   2.979  19.750  0.00  0.00    +0.000 N 
ATOM      5  C   UNL     1       1.529   1.944  18.975  0.00  0.00    +0.000 C 
ATOM      6  C   UNL     1       2.292   2.470  17.762  0.00  0.00    +0.000 C 
ATOM      7  N   UNL     1       3.059   3.707  17.977  0.00  0.00    +0.000 NA
ATOM      8  H   UNL     1       0.291   2.703  20.517  0.00  0.00    +0.000 HD
ENDROOT
BRANCH   1   9
ATOM      9  C   UNL     1       3.127   6.009  19.177  0.00  0.00    +0.000 C 
BRANCH   9  11
ATOM     10  N   UNL     1       1.988   8.129  18.690  0.00  0.00    +0.000 N 
ATOM     11  C   UNL     1       2.980   7.257  18.312  0.00  0.00    +0.000 C 
ATOM     12  O   UNL     1       3.676   7.452  17.320  0.00  0.00    +0.000 OA
ATOM     13  H   UNL     1       1.574   8.007  19.607  0.00  0.00    +0.000 HD
BRANCH  10  14
ATOM     14  C   UNL     1       1.770   9.397  18.000  0.00  0.00    +0.000 C 
BRANCH  14  15
ATOM     15  C   UNL     1       0.335   9.911  18.123  0.00  0.00    +0.000 C 
BRANCH  15  21
ATOM     16  C   UNL     1       0.750  14.295  20.210  0.00  0.00    +0.000 C 
ATOM     17  C   UNL     1       0.345  12.858  20.352  0.00  0.00    +0.000 A 
ATOM     18  C   UNL     1      -0.144  12.373  21.561  0.00  0.00    +0.000 A 
ATOM     19  C   UNL     1      -0.493  11.032  21.647  0.00  0.00    +0.000 A 
ATOM     20  C   UNL     1      -0.343  10.210  20.534  0.00  0.00    +0.000 A 
ATOM     21  C   UNL     1       0.157  10.760  19.357  0.00  0.00    +0.000 A 
ATOM     22  N   UNL     1       0.490  12.071  19.257  0.00  0.00    +0.000 NA
ENDBRANCH  15  21
ENDBRANCH  14  15
ENDBRANCH  10  14
ENDBRANCH   9  11
ENDBRANCH   1   9
BRANCH   7  23
ATOM     23  C   UNL     1       4.483   3.543  18.254  0.00  0.00    +0.000 C 
BRANCH  23  24
ATOM     24  C   UNL     1       5.339   4.214  17.199  0.00  0.00    +0.000 A 
ATOM     25  C   UNL     1       5.120   3.831  15.856  0.00  0.00    +0.000 A 
ATOM     26  C   UNL     1       5.964   4.259  14.842  0.00  0.00    +0.000 A 
ATOM     27  C   UNL     1       7.032   5.091  15.148  0.00  0.00    +0.000 A 
ATOM     28  C   UNL     1       7.244   5.510  16.463  0.00  0.00    +0.000 A 
ATOM     29  C   UNL     1       6.404   5.083  17.503  0.00  0.00    +0.000 A 
ATOM     30  C   UNL     1       6.757   5.494  18.910  0.00  0.00    +0.000 C 
ENDBRANCH  23  24
ENDBRANCH   7  23
TORSDOF 7
ENDMDL
MODEL 8
REMARK VINA RESULT:      -7.7      2.059      2.579
REMARK  Name = 
REMARK  9 active torsions:
REMARK  status: ('A' for Active; 'I' for Inactive)
REMARK    1  A    between atoms: C_1  and  C_2
REMARK    2  A    between atoms: C_6  and  C_7
REMARK    3  A    between atoms: C_7  and  C_8
REMARK    4  A    between atoms: C_8  and  N_9
REMARK    5  A    between atoms: C_10  and  C_12
REMARK    6  A    between atoms: C_12  and  C_13
REMARK    7  A    between atoms: N_19  and  C_20
REMARK    8  A    between atoms: C_20  and  C_21
REMARK    9  A    between atoms: C_26  and  C_27
REMARK                            x       y       z     vdW  Elec       q    Type
REMARK                         _______ _______ _______ _____ _____    ______ ____
ROOT
ATOM      1  C   UNL     1       2.422   5.095  18.608  0.00  0.00    +0.000 C 
ATOM      2  C   UNL     1       1.569   4.679  19.824  0.00  0.00    +0.000 C 
ATOM      3  O   UNL     1       1.215   5.480  20.692  0.00  0.00    +0.000 OA
ATOM      4  N   UNL     1       1.046   3.414  19.841  0.00  0.00    +0.000 N 
ATOM      5  C   UNL     1       1.691   2.314  19.169  0.00  0.00    +0.000 C 
ATOM      6  C   UNL     1       2.410   2.718  17.885  0.00  0.00    +0.000 C 
ATOM      7  N   UNL     1       3.149   3.989  17.939  0.00  0.00    +0.000 NA
ATOM      8  H   UNL     1       0.473   3.212  20.651  0.00  0.00    +0.000 HD
ENDROOT
BRANCH   1   9
ATOM      9  C   UNL     1       3.187   6.412  18.872  0.00  0.00    +0.000 C 
BRANCH   9  11
ATOM     10  N   UNL     1       1.685   8.337  18.620  0.00  0.00    +0.000 N 
ATOM     11  C   UNL     1       2.749   7.647  18.092  0.00  0.00    +0.000 C 
ATOM     12  O   UNL     1       3.284   7.980  17.039  0.00  0.00    +0.000 OA
ATOM     13  H   UNL     1       1.406   8.123  19.571  0.00  0.00    +0.000 HD
BRANCH  10  14
ATOM     14  C   UNL     1       1.194   9.576  18.022  0.00  0.00    +0.000 C 
BRANCH  14  15
ATOM     15  C   UNL     1       1.716  10.830  18.722  0.00  0.00    +0.000 C 
BRANCH  15  21
ATOM     16  C   UNL     1      -0.243   9.334  22.925  0.00  0.00    +0.000 C 
ATOM     17  C   UNL     1      -0.039  10.456  21.952  0.00  0.00    +0.000 A 
ATOM     18  C   UNL     1      -0.603  11.708  22.181  0.00  0.00    +0.000 A 
ATOM     19  C   UNL     1      -0.397  12.711  21.245  0.00  0.00    +0.000 A 
ATOM     20  C   UNL     1       0.358  12.444  20.106  0.00  0.00    +0.000 A 
ATOM     21  C   UNL     1       0.888  11.169  19.938  0.00  0.00    +0.000 A 
ATOM     22  N   UNL     1       0.704  10.183  20.851  0.00  0.00    +0.000 NA
ENDBRANCH  15  21
ENDBRANCH  14  15
ENDBRANCH  10  14
ENDBRANCH   9  11
ENDBRANCH   1   9
BRANCH   7  23
ATOM     23  C   UNL     1       4.583   3.890  18.193  0.00  0.00    +0.000 C 
BRANCH  23  24
ATOM     24  C   UNL     1       5.396   4.371  17.008  0.00  0.00    +0.000 A 
ATOM     25  C   UNL     1       5.007   3.905  15.731  0.00  0.00    +0.000 A 
ATOM     26  C   UNL     1       5.786   4.151  14.610  0.00  0.00    +0.000 A 
ATOM     27  C   UNL     1       6.960   4.880  14.741  0.00  0.00    +0.000 A 
ATOM     28  C   UNL     1       7.343   5.380  15.987  0.00  0.00    +0.000 A 
ATOM     29  C   UNL     1       6.570   5.138  17.133  0.00  0.00    +0.000 A 
ATOM     30  C   UNL     1       7.101   5.622  18.459  0.00  0.00    +0.000 C 
ENDBRANCH  23  24
ENDBRANCH   7  23
TORSDOF 7
ENDMDL
MODEL 9
REMARK VINA RESULT:      -7.6      1.766      4.111
REMARK  Name = 
REMARK  9 active torsions:
REMARK  status: ('A' for Active; 'I' for Inactive)
REMARK    1  A    between atoms: C_1  and  C_2
REMARK    2  A    between atoms: C_6  and  C_7
REMARK    3  A    between atoms: C_7  and  C_8
REMARK    4  A    between atoms: C_8  and  N_9
REMARK    5  A    between atoms: C_10  and  C_12
REMARK    6  A    between atoms: C_12  and  C_13
REMARK    7  A    between atoms: N_19  and  C_20
REMARK    8  A    between atoms: C_20  and  C_21
REMARK    9  A    between atoms: C_26  and  C_27
REMARK                            x       y       z     vdW  Elec       q    Type
REMARK                         _______ _______ _______ _____ _____    ______ ____
ROOT
ATOM      1  C   UNL     1       4.539   6.092  17.625  0.00  0.00    +0.000 C 
ATOM      2  C   UNL     1       5.387   6.441  16.385  0.00  0.00    +0.000 C 
ATOM      3  O   UNL     1       5.048   7.301  15.569  0.00  0.00    +0.000 OA
ATOM      4  N   UNL     1       6.639   5.898  16.287  0.00  0.00    +0.000 N 
ATOM      5  C   UNL     1       6.968   4.630  16.888  0.00  0.00    +0.000 C 
ATOM      6  C   UNL     1       6.228   4.362  18.196  0.00  0.00    +0.000 C 
ATOM      7  N   UNL     1       4.813   4.763  18.222  0.00  0.00    +0.000 NA
ATOM      8  H   UNL     1       7.156   6.187  15.466  0.00  0.00    +0.000 HD
ENDROOT
BRANCH   1   9
ATOM      9  C   UNL     1       3.064   6.517  17.445  0.00  0.00    +0.000 C 
BRANCH   9  11
ATOM     10  N   UNL     1       2.215   8.815  17.607  0.00  0.00    +0.000 N 
ATOM     11  C   UNL     1       2.560   7.678  18.297  0.00  0.00    +0.000 C 
ATOM     12  O   UNL     1       2.504   7.616  19.521  0.00  0.00    +0.000 OA
ATOM     13  H   UNL     1       2.111   8.746  16.601  0.00  0.00    +0.000 HD
BRANCH  10  14
ATOM     14  C   UNL     1       1.654   9.985  18.278  0.00  0.00    +0.000 C 
BRANCH  14  15
ATOM     15  C   UNL     1       0.490   9.645  19.209  0.00  0.00    +0.000 C 
BRANCH  15  21
ATOM     16  C   UNL     1      -3.053  12.862  20.131  0.00  0.00    +0.000 C 
ATOM     17  C   UNL     1      -2.478  11.846  19.189  0.00  0.00    +0.000 A 
ATOM     18  C   UNL     1      -3.119  11.545  17.991  0.00  0.00    +0.000 A 
ATOM     19  C   UNL     1      -2.555  10.588  17.158  0.00  0.00    +0.000 A 
ATOM     20  C   UNL     1      -1.376   9.955  17.539  0.00  0.00    +0.000 A 
ATOM     21  C   UNL     1      -0.790  10.301  18.753  0.00  0.00    +0.000 A 
ATOM     22  N   UNL     1      -1.325  11.243  19.570  0.00  0.00    +0.000 NA
ENDBRANCH  15  21
ENDBRANCH  14  15
ENDBRANCH  10  14
ENDBRANCH   9  11
ENDBRANCH   1   9
BRANCH   7  23
ATOM     23  C   UNL     1       3.840   3.706  17.964  0.00  0.00    +0.000 C 
BRANCH  23  24
ATOM     24  C   UNL     1       2.984   3.423  19.182  0.00  0.00    +0.000 A 
ATOM     25  C   UNL     1       1.757   4.118  19.280  0.00  0.00    +0.000 A 
ATOM     26  C   UNL     1       0.987   4.055  20.432  0.00  0.00    +0.000 A 
ATOM     27  C   UNL     1       1.421   3.285  21.502  0.00  0.00    +0.000 A 
ATOM     28  C   UNL     1       2.612   2.562  21.412  0.00  0.00    +0.000 A 
ATOM     29  C   UNL     1       3.406   2.617  20.256  0.00  0.00    +0.000 A 
ATOM     30  C   UNL     1       4.728   1.891  20.272  0.00  0.00    +0.000 C 
ENDBRANCH  23  24
ENDBRANCH   7  23
TORSDOF 7
ENDMDL
