MODEL 1
REMARK VINA RESULT:      -8.4      0.000      0.000
REMARK  Name = 
REMARK  10 active torsions:
REMARK  status: ('A' for Active; 'I' for Inactive)
REMARK    1  A    between atoms: C_1  and  N_2
REMARK    2  A    between atoms: N_2  and  C_13
REMARK    3  A    between atoms: C_3  and  C_5
REMARK    4  A    between atoms: C_5  and  C_6
REMARK    5  A    between atoms: C_17  and  C_18
REMARK    6  A    between atoms: C_18  and  C_20
REMARK    7  A    between atoms: N_22  and  C_23
REMARK    8  A    between atoms: C_23  and  C_24
REMARK    9  A    between atoms: C_23  and  C_25
REMARK   10  A    between atoms: C_23  and  C_26
REMARK                            x       y       z     vdW  Elec       q    Type
REMARK                         _______ _______ _______ _____ _____    ______ ____
ROOT
ATOM      1  C   UNL     1       2.444   6.378  19.205  0.00  0.00    +0.000 A 
ATOM      2  C   UNL     1       1.924   6.292  20.498  0.00  0.00    +0.000 A 
ATOM      3  N   UNL     1       1.346   7.326  21.156  0.00  0.00    +0.000 NA
ATOM      4  C   UNL     1       1.220   8.486  20.471  0.00  0.00    +0.000 A 
ATOM      5  C   UNL     1       1.667   8.666  19.168  0.00  0.00    +0.000 A 
ATOM      6  C   UNL     1       2.339   7.605  18.547  0.00  0.00    +0.000 A 
ENDROOT
BRANCH   1   8
ATOM      7  C   UNL     1       2.101   4.456  17.726  0.00  0.00    +0.000 C 
ATOM      8  N   UNL     1       3.015   5.243  18.554  0.00  0.00    +0.000 N 
ATOM      9  C   UNL     1       4.380   5.000  18.724  0.00  0.00    +0.000 C 
ATOM     10  O   UNL     1       5.089   5.707  19.448  0.00  0.00    +0.000 OA
BRANCH   9  11
ATOM     11  C   UNL     1       5.010   3.789  18.049  0.00  0.00    +0.000 C 
BRANCH  11  12
ATOM     12  C   UNL     1       5.678   4.118  16.731  0.00  0.00    +0.000 A 
ATOM     13  C   UNL     1       4.994   3.953  15.518  0.00  0.00    +0.000 A 
ATOM     14  C   UNL     1       5.611   4.274  14.307  0.00  0.00    +0.000 A 
ATOM     15  C   UNL     1       6.912   4.770  14.308  0.00  0.00    +0.000 A 
ATOM     16  F   UNL     1       7.500   5.078  13.145  0.00  0.00    +0.000 F 
ATOM     17  C   UNL     1       7.603   4.953  15.497  0.00  0.00    +0.000 A 
ATOM     18  C   UNL     1       6.987   4.629  16.708  0.00  0.00    +0.000 A 
ENDBRANCH  11  12
ENDBRANCH   9  11
ENDBRANCH   1   8
BRANCH   5  19
ATOM     19  C   UNL     1       1.424   9.975  18.518  0.00  0.00    +0.000 C 
ATOM     20  O   UNL     1       2.159  10.317  17.597  0.00  0.00    +0.000 OA
BRANCH  19  21
ATOM     21  C   UNL     1       0.316  10.817  18.958  0.00  0.00    +0.000 A 
ATOM     22  C   UNL     1       0.350  11.827  19.906  0.00  0.00    +0.000 A 
ATOM     23  N   UNL     1      -0.913  12.364  20.052  0.00  0.00    +0.000 N 
ATOM     24  C   UNL     1      -1.757  11.723  19.167  0.00  0.00    +0.000 A 
ATOM     25  N   UNL     1      -3.075  11.959  19.000  0.00  0.00    +0.000 NA
ATOM     26  C   UNL     1      -3.616  11.191  18.047  0.00  0.00    +0.000 A 
ATOM     27  N   UNL     1      -3.010  10.262  17.279  0.00  0.00    +0.000 NA
ATOM     28  C   UNL     1      -1.690  10.061  17.476  0.00  0.00    +0.000 A 
ATOM     29  C   UNL     1      -1.014  10.792  18.451  0.00  0.00    +0.000 A 
BRANCH  23  30
ATOM     30  C   UNL     1      -1.293  13.451  20.986  0.00  0.00    +0.000 C 
ATOM     31  C   UNL     1      -2.685  13.210  21.627  0.00  0.00    +0.000 C 
ATOM     32  C   UNL     1      -0.277  13.549  22.142  0.00  0.00    +0.000 C 
ATOM     33  C   UNL     1      -1.374  14.804  20.248  0.00  0.00    +0.000 C 
ENDBRANCH  23  30
ENDBRANCH  19  21
ENDBRANCH   5  19
TORSDOF 6
ENDMDL
MODEL 2
REMARK VINA RESULT:      -8.2      3.452      5.212
REMARK  Name = 
REMARK  10 active torsions:
REMARK  status: ('A' for Active; 'I' for Inactive)
REMARK    1  A    between atoms: C_1  and  N_2
REMARK    2  A    between atoms: N_2  and  C_13
REMARK    3  A    between atoms: C_3  and  C_5
REMARK    4  A    between atoms: C_5  and  C_6
REMARK    5  A    between atoms: C_17  and  C_18
REMARK    6  A    between atoms: C_18  and  C_20
REMARK    7  A    between atoms: N_22  and  C_23
REMARK    8  A    between atoms: C_23  and  C_24
REMARK    9  A    between atoms: C_23  and  C_25
REMARK   10  A    between atoms: C_23  and  C_26
REMARK                            x       y       z     vdW  Elec       q    Type
REMARK                         _______ _______ _______ _____ _____    ______ ____
ROOT
ATOM      1  C   UNL     1       0.428  10.198  19.223  0.00  0.00    +0.000 A 
ATOM      2  C   UNL     1       0.976  11.475  19.081  0.00  0.00    +0.000 A 
ATOM      3  N   UNL     1       0.306  12.539  18.579  0.00  0.00    +0.000 NA
ATOM      4  C   UNL     1      -0.996  12.342  18.264  0.00  0.00    +0.000 A 
ATOM      5  C   UNL     1      -1.648  11.124  18.405  0.00  0.00    +0.000 A 
ATOM      6  C   UNL     1      -0.903  10.021  18.843  0.00  0.00    +0.000 A 
ENDROOT
BRANCH   1   8
ATOM      7  C   UNL     1       1.033   8.929  21.229  0.00  0.00    +0.000 C 
ATOM      8  N   UNL     1       1.180   9.123  19.787  0.00  0.00    +0.000 N 
ATOM      9  C   UNL     1       1.950   8.333  18.930  0.00  0.00    +0.000 C 
ATOM     10  O   UNL     1       2.032   8.564  17.718  0.00  0.00    +0.000 OA
BRANCH   9  11
ATOM     11  C   UNL     1       2.769   7.187  19.508  0.00  0.00    +0.000 C 
BRANCH  11  12
ATOM     12  C   UNL     1       2.135   5.830  19.293  0.00  0.00    +0.000 A 
ATOM     13  C   UNL     1       1.552   5.132  20.361  0.00  0.00    +0.000 A 
ATOM     14  C   UNL     1       0.954   3.888  20.151  0.00  0.00    +0.000 A 
ATOM     15  C   UNL     1       0.930   3.342  18.872  0.00  0.00    +0.000 A 
ATOM     16  F   UNL     1       0.355   2.148  18.674  0.00  0.00    +0.000 F 
ATOM     17  C   UNL     1       1.492   4.020  17.798  0.00  0.00    +0.000 A 
ATOM     18  C   UNL     1       2.093   5.263  18.007  0.00  0.00    +0.000 A 
ENDBRANCH  11  12
ENDBRANCH   9  11
ENDBRANCH   1   8
BRANCH   5  19
ATOM     19  C   UNL     1      -3.089  11.057  18.066  0.00  0.00    +0.000 C 
ATOM     20  O   UNL     1      -3.438  10.348  17.127  0.00  0.00    +0.000 OA
BRANCH  19  21
ATOM     21  C   UNL     1      -4.063  11.802  18.857  0.00  0.00    +0.000 A 
ATOM     22  C   UNL     1      -3.966  12.163  20.192  0.00  0.00    +0.000 A 
ATOM     23  N   UNL     1      -5.109  12.837  20.571  0.00  0.00    +0.000 N 
ATOM     24  C   UNL     1      -5.931  12.945  19.466  0.00  0.00    +0.000 A 
ATOM     25  N   UNL     1      -7.141  13.538  19.421  0.00  0.00    +0.000 NA
ATOM     26  C   UNL     1      -7.684  13.502  18.198  0.00  0.00    +0.000 A 
ATOM     27  N   UNL     1      -7.169  12.967  17.071  0.00  0.00    +0.000 NA
ATOM     28  C   UNL     1      -5.953  12.388  17.160  0.00  0.00    +0.000 A 
ATOM     29  C   UNL     1      -5.290  12.350  18.386  0.00  0.00    +0.000 A 
BRANCH  23  30
ATOM     30  C   UNL     1      -5.397  13.367  21.925  0.00  0.00    +0.000 C 
ATOM     31  C   UNL     1      -6.722  12.804  22.503  0.00  0.00    +0.000 C 
ATOM     32  C   UNL     1      -4.276  12.974  22.908  0.00  0.00    +0.000 C 
ATOM     33  C   UNL     1      -5.545  14.902  21.892  0.00  0.00    +0.000 C 
ENDBRANCH  23  30
ENDBRANCH  19  21
ENDBRANCH   5  19
TORSDOF 6
ENDMDL
MODEL 3
REMARK VINA RESULT:      -8.1      3.825     10.346
REMARK  Name = 
REMARK  10 active torsions:
REMARK  status: ('A' for Active; 'I' for Inactive)
REMARK    1  A    between atoms: C_1  and  N_2
REMARK    2  A    between atoms: N_2  and  C_13
REMARK    3  A    between atoms: C_3  and  C_5
REMARK    4  A    between atoms: C_5  and  C_6
REMARK    5  A    between atoms: C_17  and  C_18
REMARK    6  A    between atoms: C_18  and  C_20
REMARK    7  A    between atoms: N_22  and  C_23
REMARK    8  A    between atoms: C_23  and  C_24
REMARK    9  A    between atoms: C_23  and  C_25
REMARK   10  A    between atoms: C_23  and  C_26
REMARK                            x       y       z     vdW  Elec       q    Type
REMARK                         _______ _______ _______ _____ _____    ______ ____
ROOT
ATOM      1  C   UNL     1       0.480  10.002  20.159  0.00  0.00    +0.000 A 
ATOM      2  C   UNL     1       0.589   9.298  21.359  0.00  0.00    +0.000 A 
ATOM      3  N   UNL     1       1.252   8.124  21.497  0.00  0.00    +0.000 NA
ATOM      4  C   UNL     1       1.895   7.660  20.400  0.00  0.00    +0.000 A 
ATOM      5  C   UNL     1       1.885   8.303  19.168  0.00  0.00    +0.000 A 
ATOM      6  C   UNL     1       1.117   9.468  19.037  0.00  0.00    +0.000 A 
ENDROOT
BRANCH   1   8
ATOM      7  C   UNL     1       0.423  12.370  20.782  0.00  0.00    +0.000 C 
ATOM      8  N   UNL     1      -0.209  11.251  20.086  0.00  0.00    +0.000 N 
ATOM      9  C   UNL     1      -1.389  11.312  19.340  0.00  0.00    +0.000 C 
ATOM     10  O   UNL     1      -1.869  10.318  18.784  0.00  0.00    +0.000 OA
BRANCH   9  11
ATOM     11  C   UNL     1      -2.149  12.629  19.256  0.00  0.00    +0.000 C 
BRANCH  11  12
ATOM     12  C   UNL     1      -3.454  12.618  20.021  0.00  0.00    +0.000 A 
ATOM     13  C   UNL     1      -4.656  12.275  19.386  0.00  0.00    +0.000 A 
ATOM     14  C   UNL     1      -5.854  12.251  20.103  0.00  0.00    +0.000 A 
ATOM     15  C   UNL     1      -5.851  12.561  21.460  0.00  0.00    +0.000 A 
ATOM     16  F   UNL     1      -7.002  12.535  22.145  0.00  0.00    +0.000 F 
ATOM     17  C   UNL     1      -4.671  12.891  22.112  0.00  0.00    +0.000 A 
ATOM     18  C   UNL     1      -3.473  12.919  21.394  0.00  0.00    +0.000 A 
ENDBRANCH  11  12
ENDBRANCH   9  11
ENDBRANCH   1   8
BRANCH   5  19
ATOM     19  C   UNL     1       2.670   7.710  18.061  0.00  0.00    +0.000 C 
ATOM     20  O   UNL     1       2.800   8.354  17.024  0.00  0.00    +0.000 OA
BRANCH  19  21
ATOM     21  C   UNL     1       3.292   6.400  18.224  0.00  0.00    +0.000 A 
ATOM     22  C   UNL     1       2.678   5.218  18.608  0.00  0.00    +0.000 A 
ATOM     23  N   UNL     1       3.618   4.209  18.668  0.00  0.00    +0.000 N 
ATOM     24  C   UNL     1       4.837   4.735  18.284  0.00  0.00    +0.000 A 
ATOM     25  N   UNL     1       6.008   4.070  18.208  0.00  0.00    +0.000 NA
ATOM     26  C   UNL     1       7.010   4.848  17.779  0.00  0.00    +0.000 A 
ATOM     27  N   UNL     1       6.966   6.151  17.432  0.00  0.00    +0.000 NA
ATOM     28  C   UNL     1       5.773   6.775  17.518  0.00  0.00    +0.000 A 
ATOM     29  C   UNL     1       4.654   6.074  17.965  0.00  0.00    +0.000 A 
BRANCH  23  30
ATOM     30  C   UNL     1       3.361   2.803  19.061  0.00  0.00    +0.000 C 
ATOM     31  C   UNL     1       4.362   2.305  20.136  0.00  0.00    +0.000 C 
ATOM     32  C   UNL     1       1.949   2.661  19.664  0.00  0.00    +0.000 C 
ATOM     33  C   UNL     1       3.507   1.860  17.849  0.00  0.00    +0.000 C 
ENDBRANCH  23  30
ENDBRANCH  19  21
ENDBRANCH   5  19
TORSDOF 6
ENDMDL
MODEL 4
REMARK VINA RESULT:      -8.1      3.386      4.920
REMARK  Name = 
REMARK  10 active torsions:
REMARK  status: ('A' for Active; 'I' for Inactive)
REMARK    1  A    between atoms: C_1  and  N_2
REMARK    2  A    between atoms: N_2  and  C_13
REMARK    3  A    between atoms: C_3  and  C_5
REMARK    4  A    between atoms: C_5  and  C_6
REMARK    5  A    between atoms: C_17  and  C_18
REMARK    6  A    between atoms: C_18  and  C_20
REMARK    7  A    between atoms: N_22  and  C_23
REMARK    8  A    between atoms: C_23  and  C_24
REMARK    9  A    between atoms: C_23  and  C_25
REMARK   10  A    between atoms: C_23  and  C_26
REMARK                            x       y       z     vdW  Elec       q    Type
REMARK                         _______ _______ _______ _____ _____    ______ ____
ROOT
ATOM      1  C   UNL     1       0.790  10.062  19.289  0.00  0.00    +0.000 A 
ATOM      2  C   UNL     1       1.482  11.264  19.124  0.00  0.00    +0.000 A 
ATOM      3  N   UNL     1       0.939  12.389  18.602  0.00  0.00    +0.000 NA
ATOM      4  C   UNL     1      -0.377  12.338  18.289  0.00  0.00    +0.000 A 
ATOM      5  C   UNL     1      -1.166  11.206  18.451  0.00  0.00    +0.000 A 
ATOM      6  C   UNL     1      -0.554  10.033  18.911  0.00  0.00    +0.000 A 
ENDROOT
BRANCH   1   8
ATOM      7  C   UNL     1       1.149   8.705  21.297  0.00  0.00    +0.000 C 
ATOM      8  N   UNL     1       1.412   8.917  19.874  0.00  0.00    +0.000 N 
ATOM      9  C   UNL     1       2.175   8.087  19.051  0.00  0.00    +0.000 C 
ATOM     10  O   UNL     1       2.360   8.336  17.854  0.00  0.00    +0.000 OA
BRANCH   9  11
ATOM     11  C   UNL     1       2.858   6.866  19.653  0.00  0.00    +0.000 C 
BRANCH  11  12
ATOM     12  C   UNL     1       2.136   5.569  19.357  0.00  0.00    +0.000 A 
ATOM     13  C   UNL     1       2.110   5.041  18.058  0.00  0.00    +0.000 A 
ATOM     14  C   UNL     1       1.456   3.835  17.797  0.00  0.00    +0.000 A 
ATOM     15  C   UNL     1       0.834   3.150  18.836  0.00  0.00    +0.000 A 
ATOM     16  F   UNL     1       0.208   1.993  18.582  0.00  0.00    +0.000 F 
ATOM     17  C   UNL     1       0.857   3.648  20.132  0.00  0.00    +0.000 A 
ATOM     18  C   UNL     1       1.508   4.856  20.393  0.00  0.00    +0.000 A 
ENDBRANCH  11  12
ENDBRANCH   9  11
ENDBRANCH   1   8
BRANCH   5  19
ATOM     19  C   UNL     1      -2.606  11.300  18.111  0.00  0.00    +0.000 C 
ATOM     20  O   UNL     1      -2.987  10.832  17.043  0.00  0.00    +0.000 OA
BRANCH  19  21
ATOM     21  C   UNL     1      -3.541  11.916  19.047  0.00  0.00    +0.000 A 
ATOM     22  C   UNL     1      -3.236  12.646  20.185  0.00  0.00    +0.000 A 
ATOM     23  N   UNL     1      -4.404  13.033  20.810  0.00  0.00    +0.000 N 
ATOM     24  C   UNL     1      -5.467  12.581  20.052  0.00  0.00    +0.000 A 
ATOM     25  N   UNL     1      -6.777  12.755  20.323  0.00  0.00    +0.000 NA
ATOM     26  C   UNL     1      -7.569  12.221  19.385  0.00  0.00    +0.000 A 
ATOM     27  N   UNL     1      -7.209  11.569  18.260  0.00  0.00    +0.000 NA
ATOM     28  C   UNL     1      -5.887  11.422  18.025  0.00  0.00    +0.000 A 
ATOM     29  C   UNL     1      -4.961  11.925  18.937  0.00  0.00    +0.000 A 
BRANCH  23  30
ATOM     30  C   UNL     1      -4.500  13.810  22.069  0.00  0.00    +0.000 C 
ATOM     31  C   UNL     1      -5.183  13.002  23.204  0.00  0.00    +0.000 C 
ATOM     32  C   UNL     1      -3.096  14.195  22.574  0.00  0.00    +0.000 C 
ATOM     33  C   UNL     1      -5.347  15.083  21.862  0.00  0.00    +0.000 C 
ENDBRANCH  23  30
ENDBRANCH  19  21
ENDBRANCH   5  19
TORSDOF 6
ENDMDL
MODEL 5
REMARK VINA RESULT:      -8.0      2.365      3.547
REMARK  Name = 
REMARK  10 active torsions:
REMARK  status: ('A' for Active; 'I' for Inactive)
REMARK    1  A    between atoms: C_1  and  N_2
REMARK    2  A    between atoms: N_2  and  C_13
REMARK    3  A    between atoms: C_3  and  C_5
REMARK    4  A    between atoms: C_5  and  C_6
REMARK    5  A    between atoms: C_17  and  C_18
REMARK    6  A    between atoms: C_18  and  C_20
REMARK    7  A    between atoms: N_22  and  C_23
REMARK    8  A    between atoms: C_23  and  C_24
REMARK    9  A    between atoms: C_23  and  C_25
REMARK   10  A    between atoms: C_23  and  C_26
REMARK                            x       y       z     vdW  Elec       q    Type
REMARK                         _______ _______ _______ _____ _____    ______ ____
ROOT
ATOM      1  C   UNL     1       1.261   8.831  20.382  0.00  0.00    +0.000 A 
ATOM      2  C   UNL     1       1.237   8.983  21.770  0.00  0.00    +0.000 A 
ATOM      3  N   UNL     1       0.767  10.082  22.407  0.00  0.00    +0.000 NA
ATOM      4  C   UNL     1       0.234  11.053  21.629  0.00  0.00    +0.000 A 
ATOM      5  C   UNL     1       0.173  10.984  20.243  0.00  0.00    +0.000 A 
ATOM      6  C   UNL     1       0.746   9.874  19.609  0.00  0.00    +0.000 A 
ENDROOT
BRANCH   1   8
ATOM      7  C   UNL     1       1.553   6.404  20.538  0.00  0.00    +0.000 C 
ATOM      8  N   UNL     1       1.743   7.634  19.770  0.00  0.00    +0.000 N 
ATOM      9  C   UNL     1       2.311   7.724  18.497  0.00  0.00    +0.000 C 
ATOM     10  O   UNL     1       2.446   8.804  17.911  0.00  0.00    +0.000 OA
BRANCH   9  11
ATOM     11  C   UNL     1       2.842   6.463  17.828  0.00  0.00    +0.000 C 
BRANCH  11  12
ATOM     12  C   UNL     1       4.322   6.245  18.051  0.00  0.00    +0.000 A 
ATOM     13  C   UNL     1       5.273   6.862  17.225  0.00  0.00    +0.000 A 
ATOM     14  C   UNL     1       6.638   6.669  17.448  0.00  0.00    +0.000 A 
ATOM     15  C   UNL     1       7.056   5.864  18.504  0.00  0.00    +0.000 A 
ATOM     16  F   UNL     1       8.366   5.681  18.715  0.00  0.00    +0.000 F 
ATOM     17  C   UNL     1       6.133   5.252  19.342  0.00  0.00    +0.000 A 
ATOM     18  C   UNL     1       4.768   5.443  19.117  0.00  0.00    +0.000 A 
ENDBRANCH  11  12
ENDBRANCH   9  11
ENDBRANCH   1   8
BRANCH   5  19
ATOM     19  C   UNL     1      -0.479  12.098  19.514  0.00  0.00    +0.000 C 
ATOM     20  O   UNL     1       0.213  13.041  19.145  0.00  0.00    +0.000 OA
BRANCH  19  21
ATOM     21  C   UNL     1      -1.909  12.047  19.227  0.00  0.00    +0.000 A 
ATOM     22  C   UNL     1      -2.948  12.458  20.047  0.00  0.00    +0.000 A 
ATOM     23  N   UNL     1      -4.153  12.218  19.417  0.00  0.00    +0.000 N 
ATOM     24  C   UNL     1      -3.888  11.685  18.171  0.00  0.00    +0.000 A 
ATOM     25  N   UNL     1      -4.799  11.315  17.247  0.00  0.00    +0.000 NA
ATOM     26  C   UNL     1      -4.231  10.855  16.125  0.00  0.00    +0.000 A 
ATOM     27  N   UNL     1      -2.917  10.736  15.842  0.00  0.00    +0.000 NA
ATOM     28  C   UNL     1      -2.041  11.122  16.793  0.00  0.00    +0.000 A 
ATOM     29  C   UNL     1      -2.510  11.608  18.013  0.00  0.00    +0.000 A 
BRANCH  23  30
ATOM     30  C   UNL     1      -5.497  12.499  19.977  0.00  0.00    +0.000 C 
ATOM     31  C   UNL     1      -6.196  13.680  19.254  0.00  0.00    +0.000 C 
ATOM     32  C   UNL     1      -6.415  11.270  19.820  0.00  0.00    +0.000 C 
ATOM     33  C   UNL     1      -5.398  12.888  21.467  0.00  0.00    +0.000 C 
ENDBRANCH  23  30
ENDBRANCH  19  21
ENDBRANCH   5  19
TORSDOF 6
ENDMDL
MODEL 6
REMARK VINA RESULT:      -8.0      3.855     10.310
REMARK  Name = 
REMARK  10 active torsions:
REMARK  status: ('A' for Active; 'I' for Inactive)
REMARK    1  A    between atoms: C_1  and  N_2
REMARK    2  A    between atoms: N_2  and  C_13
REMARK    3  A    between atoms: C_3  and  C_5
REMARK    4  A    between atoms: C_5  and  C_6
REMARK    5  A    between atoms: C_17  and  C_18
REMARK    6  A    between atoms: C_18  and  C_20
REMARK    7  A    between atoms: N_22  and  C_23
REMARK    8  A    between atoms: C_23  and  C_24
REMARK    9  A    between atoms: C_23  and  C_25
REMARK   10  A    between atoms: C_23  and  C_26
REMARK                            x       y       z     vdW  Elec       q    Type
REMARK                         _______ _______ _______ _____ _____    ______ ____
ROOT
ATOM      1  C   UNL     1       0.241  10.229  20.504  0.00  0.00    +0.000 A 
ATOM      2  C   UNL     1       0.483   9.489  21.663  0.00  0.00    +0.000 A 
ATOM      3  N   UNL     1       1.197   8.338  21.696  0.00  0.00    +0.000 NA
ATOM      4  C   UNL     1       1.754   7.937  20.529  0.00  0.00    +0.000 A 
ATOM      5  C   UNL     1       1.610   8.621  19.329  0.00  0.00    +0.000 A 
ATOM      6  C   UNL     1       0.793   9.760  19.310  0.00  0.00    +0.000 A 
ENDROOT
BRANCH   1   8
ATOM      7  C   UNL     1      -0.047  12.438  21.523  0.00  0.00    +0.000 C 
ATOM      8  N   UNL     1      -0.495  11.453  20.540  0.00  0.00    +0.000 N 
ATOM      9  C   UNL     1      -1.539  11.623  19.628  0.00  0.00    +0.000 C 
ATOM     10  O   UNL     1      -1.866  10.738  18.829  0.00  0.00    +0.000 OA
BRANCH   9  11
ATOM     11  C   UNL     1      -2.347  12.914  19.654  0.00  0.00    +0.000 C 
BRANCH  11  12
ATOM     12  C   UNL     1      -3.712  12.754  20.287  0.00  0.00    +0.000 A 
ATOM     13  C   UNL     1      -3.908  13.021  21.649  0.00  0.00    +0.000 A 
ATOM     14  C   UNL     1      -5.175  12.888  22.222  0.00  0.00    +0.000 A 
ATOM     15  C   UNL     1      -6.250  12.494  21.432  0.00  0.00    +0.000 A 
ATOM     16  F   UNL     1      -7.464  12.368  21.985  0.00  0.00    +0.000 F 
ATOM     17  C   UNL     1      -6.082  12.236  20.078  0.00  0.00    +0.000 A 
ATOM     18  C   UNL     1      -4.814  12.366  19.505  0.00  0.00    +0.000 A 
ENDBRANCH  11  12
ENDBRANCH   9  11
ENDBRANCH   1   8
BRANCH   5  19
ATOM     19  C   UNL     1       2.312   8.097  18.134  0.00  0.00    +0.000 C 
ATOM     20  O   UNL     1       2.440   8.832  17.160  0.00  0.00    +0.000 OA
BRANCH  19  21
ATOM     21  C   UNL     1       2.857   6.743  18.141  0.00  0.00    +0.000 A 
ATOM     22  C   UNL     1       2.275   5.603  18.669  0.00  0.00    +0.000 A 
ATOM     23  N   UNL     1       3.124   4.529  18.495  0.00  0.00    +0.000 N 
ATOM     24  C   UNL     1       4.244   4.972  17.818  0.00  0.00    +0.000 A 
ATOM     25  N   UNL     1       5.308   4.228  17.454  0.00  0.00    +0.000 NA
ATOM     26  C   UNL     1       6.226   4.939  16.788  0.00  0.00    +0.000 A 
ATOM     27  N   UNL     1       6.192   6.248  16.459  0.00  0.00    +0.000 NA
ATOM     28  C   UNL     1       5.106   6.954  16.838  0.00  0.00    +0.000 A 
ATOM     29  C   UNL     1       4.085   6.327  17.551  0.00  0.00    +0.000 A 
BRANCH  23  30
ATOM     30  C   UNL     1       2.871   3.139  18.943  0.00  0.00    +0.000 C 
ATOM     31  C   UNL     1       2.805   2.144  17.754  0.00  0.00    +0.000 C 
ATOM     32  C   UNL     1       4.004   2.656  19.870  0.00  0.00    +0.000 C 
ATOM     33  C   UNL     1       1.518   3.039  19.678  0.00  0.00    +0.000 C 
ENDBRANCH  23  30
ENDBRANCH  19  21
ENDBRANCH   5  19
TORSDOF 6
ENDMDL
MODEL 7
REMARK VINA RESULT:      -8.0      3.945     10.442
REMARK  Name = 
REMARK  10 active torsions:
REMARK  status: ('A' for Active; 'I' for Inactive)
REMARK    1  A    between atoms: C_1  and  N_2
REMARK    2  A    between atoms: N_2  and  C_13
REMARK    3  A    between atoms: C_3  and  C_5
REMARK    4  A    between atoms: C_5  and  C_6
REMARK    5  A    between atoms: C_17  and  C_18
REMARK    6  A    between atoms: C_18  and  C_20
REMARK    7  A    between atoms: N_22  and  C_23
REMARK    8  A    between atoms: C_23  and  C_24
REMARK    9  A    between atoms: C_23  and  C_25
REMARK   10  A    between atoms: C_23  and  C_26
REMARK                            x       y       z     vdW  Elec       q    Type
REMARK                         _______ _______ _______ _____ _____    ______ ____
ROOT
ATOM      1  C   UNL     1      -0.025  10.133  20.307  0.00  0.00    +0.000 A 
ATOM      2  C   UNL     1       0.264   9.481  21.507  0.00  0.00    +0.000 A 
ATOM      3  N   UNL     1       1.098   8.419  21.615  0.00  0.00    +0.000 NA
ATOM      4  C   UNL     1       1.728   8.026  20.483  0.00  0.00    +0.000 A 
ATOM      5  C   UNL     1       1.542   8.631  19.246  0.00  0.00    +0.000 A 
ATOM      6  C   UNL     1       0.607   9.670  19.151  0.00  0.00    +0.000 A 
ENDROOT
BRANCH   1   8
ATOM      7  C   UNL     1      -1.852  11.297  19.162  0.00  0.00    +0.000 C 
ATOM      8  N   UNL     1      -0.892  11.268  20.264  0.00  0.00    +0.000 N 
ATOM      9  C   UNL     1      -0.781  12.222  21.279  0.00  0.00    +0.000 C 
ATOM     10  O   UNL     1       0.064  12.134  22.177  0.00  0.00    +0.000 OA
BRANCH   9  11
ATOM     11  C   UNL     1      -1.686  13.447  21.250  0.00  0.00    +0.000 C 
BRANCH  11  12
ATOM     12  C   UNL     1      -2.929  13.293  22.099  0.00  0.00    +0.000 A 
ATOM     13  C   UNL     1      -4.172  13.020  21.510  0.00  0.00    +0.000 A 
ATOM     14  C   UNL     1      -5.312  12.863  22.302  0.00  0.00    +0.000 A 
ATOM     15  C   UNL     1      -5.209  12.970  23.686  0.00  0.00    +0.000 A 
ATOM     16  F   UNL     1      -6.305  12.818  24.442  0.00  0.00    +0.000 F 
ATOM     17  C   UNL     1      -3.987  13.228  24.291  0.00  0.00    +0.000 A 
ATOM     18  C   UNL     1      -2.848  13.388  23.499  0.00  0.00    +0.000 A 
ENDBRANCH  11  12
ENDBRANCH   9  11
ENDBRANCH   1   8
BRANCH   5  19
ATOM     19  C   UNL     1       2.331   8.131  18.095  0.00  0.00    +0.000 C 
ATOM     20  O   UNL     1       2.538   8.889  17.153  0.00  0.00    +0.000 OA
BRANCH  19  21
ATOM     21  C   UNL     1       2.864   6.772  18.109  0.00  0.00    +0.000 A 
ATOM     22  C   UNL     1       2.254   5.632  18.607  0.00  0.00    +0.000 A 
ATOM     23  N   UNL     1       3.099   4.552  18.452  0.00  0.00    +0.000 N 
ATOM     24  C   UNL     1       4.245   4.992  17.818  0.00  0.00    +0.000 A 
ATOM     25  N   UNL     1       5.315   4.241  17.484  0.00  0.00    +0.000 NA
ATOM     26  C   UNL     1       6.261   4.949  16.855  0.00  0.00    +0.000 A 
ATOM     27  N   UNL     1       6.249   6.261  16.536  0.00  0.00    +0.000 NA
ATOM     28  C   UNL     1       5.157   6.973  16.885  0.00  0.00    +0.000 A 
ATOM     29  C   UNL     1       4.107   6.349  17.558  0.00  0.00    +0.000 A 
BRANCH  23  30
ATOM     30  C   UNL     1       2.819   3.161  18.880  0.00  0.00    +0.000 C 
ATOM     31  C   UNL     1       3.933   2.598  19.802  0.00  0.00    +0.000 C 
ATOM     32  C   UNL     1       1.502   3.096  19.678  0.00  0.00    +0.000 C 
ATOM     33  C   UNL     1       2.737   2.220  17.660  0.00  0.00    +0.000 C 
ENDBRANCH  23  30
ENDBRANCH  19  21
ENDBRANCH   5  19
TORSDOF 6
ENDMDL
MODEL 8
REMARK VINA RESULT:      -7.9      2.335      3.380
REMARK  Name = 
REMARK  10 active torsions:
REMARK  status: ('A' for Active; 'I' for Inactive)
REMARK    1  A    between atoms: C_1  and  N_2
REMARK    2  A    between atoms: N_2  and  C_13
REMARK    3  A    between atoms: C_3  and  C_5
REMARK    4  A    between atoms: C_5  and  C_6
REMARK    5  A    between atoms: C_17  and  C_18
REMARK    6  A    between atoms: C_18  and  C_20
REMARK    7  A    between atoms: N_22  and  C_23
REMARK    8  A    between atoms: C_23  and  C_24
REMARK    9  A    between atoms: C_23  and  C_25
REMARK   10  A    between atoms: C_23  and  C_26
REMARK                            x       y       z     vdW  Elec       q    Type
REMARK                         _______ _______ _______ _____ _____    ______ ____
ROOT
ATOM      1  C   UNL     1       1.345   8.648  20.405  0.00  0.00    +0.000 A 
ATOM      2  C   UNL     1       1.224   8.736  21.793  0.00  0.00    +0.000 A 
ATOM      3  N   UNL     1       0.707   9.804  22.446  0.00  0.00    +0.000 NA
ATOM      4  C   UNL     1       0.225  10.809  21.677  0.00  0.00    +0.000 A 
ATOM      5  C   UNL     1       0.260  10.804  20.289  0.00  0.00    +0.000 A 
ATOM      6  C   UNL     1       0.881   9.725  19.646  0.00  0.00    +0.000 A 
ENDROOT
BRANCH   1   8
ATOM      7  C   UNL     1       1.714   6.229  20.513  0.00  0.00    +0.000 C 
ATOM      8  N   UNL     1       1.873   7.481  19.774  0.00  0.00    +0.000 N 
ATOM      9  C   UNL     1       2.453   7.617  18.511  0.00  0.00    +0.000 C 
ATOM     10  O   UNL     1       2.559   8.713  17.949  0.00  0.00    +0.000 OA
BRANCH   9  11
ATOM     11  C   UNL     1       3.033   6.388  17.822  0.00  0.00    +0.000 C 
BRANCH  11  12
ATOM     12  C   UNL     1       4.507   6.187  18.097  0.00  0.00    +0.000 A 
ATOM     13  C   UNL     1       4.937   5.349  19.136  0.00  0.00    +0.000 A 
ATOM     14  C   UNL     1       6.299   5.155  19.373  0.00  0.00    +0.000 A 
ATOM     15  C   UNL     1       7.236   5.793  18.565  0.00  0.00    +0.000 A 
ATOM     16  F   UNL     1       8.542   5.604  18.795  0.00  0.00    +0.000 F 
ATOM     17  C   UNL     1       6.834   6.617  17.523  0.00  0.00    +0.000 A 
ATOM     18  C   UNL     1       5.471   6.814  17.288  0.00  0.00    +0.000 A 
ENDBRANCH  11  12
ENDBRANCH   9  11
ENDBRANCH   1   8
BRANCH   5  19
ATOM     19  C   UNL     1      -0.344  11.949  19.568  0.00  0.00    +0.000 C 
ATOM     20  O   UNL     1       0.401  12.780  19.058  0.00  0.00    +0.000 OA
BRANCH  19  21
ATOM     21  C   UNL     1      -1.795  12.060  19.454  0.00  0.00    +0.000 A 
ATOM     22  C   UNL     1      -2.681  12.541  20.405  0.00  0.00    +0.000 A 
ATOM     23  N   UNL     1      -3.970  12.455  19.919  0.00  0.00    +0.000 N 
ATOM     24  C   UNL     1      -3.911  11.950  18.634  0.00  0.00    +0.000 A 
ATOM     25  N   UNL     1      -4.958  11.715  17.816  0.00  0.00    +0.000 NA
ATOM     26  C   UNL     1      -4.579  11.246  16.621  0.00  0.00    +0.000 A 
ATOM     27  N   UNL     1      -3.327  11.003  16.178  0.00  0.00    +0.000 NA
ATOM     28  C   UNL     1      -2.309  11.256  17.028  0.00  0.00    +0.000 A 
ATOM     29  C   UNL     1      -2.578  11.737  18.309  0.00  0.00    +0.000 A 
BRANCH  23  30
ATOM     30  C   UNL     1      -5.201  12.849  20.644  0.00  0.00    +0.000 C 
ATOM     31  C   UNL     1      -4.936  13.095  22.153  0.00  0.00    +0.000 C 
ATOM     32  C   UNL     1      -5.770  14.161  20.069  0.00  0.00    +0.000 C 
ATOM     33  C   UNL     1      -6.267  11.737  20.558  0.00  0.00    +0.000 C 
ENDBRANCH  23  30
ENDBRANCH  19  21
ENDBRANCH   5  19
TORSDOF 6
ENDMDL
MODEL 9
REMARK VINA RESULT:      -7.9      3.385      9.418
REMARK  Name = 
REMARK  10 active torsions:
REMARK  status: ('A' for Active; 'I' for Inactive)
REMARK    1  A    between atoms: C_1  and  N_2
REMARK    2  A    between atoms: N_2  and  C_13
REMARK    3  A    between atoms: C_3  and  C_5
REMARK    4  A    between atoms: C_5  and  C_6
REMARK    5  A    between atoms: C_17  and  C_18
REMARK    6  A    between atoms: C_18  and  C_20
REMARK    7  A    between atoms: N_22  and  C_23
REMARK    8  A    between atoms: C_23  and  C_24
REMARK    9  A    between atoms: C_23  and  C_25
REMARK   10  A    between atoms: C_23  and  C_26
REMARK                            x       y       z     vdW  Elec       q    Type
REMARK                         _______ _______ _______ _____ _____    ______ ____
ROOT
ATOM      1  C   UNL     1       0.651  10.705  20.352  0.00  0.00    +0.000 A 
ATOM      2  C   UNL     1       0.653   9.953  21.528  0.00  0.00    +0.000 A 
ATOM      3  N   UNL     1       1.079   8.669  21.609  0.00  0.00    +0.000 NA
ATOM      4  C   UNL     1       1.589   8.127  20.478  0.00  0.00    +0.000 A 
ATOM      5  C   UNL     1       1.670   8.802  19.267  0.00  0.00    +0.000 A 
ATOM      6  C   UNL     1       1.141  10.098  19.194  0.00  0.00    +0.000 A 
ENDROOT
BRANCH   1   8
ATOM      7  C   UNL     1      -1.130  12.301  19.818  0.00  0.00    +0.000 C 
ATOM      8  N   UNL     1       0.216  12.066  20.338  0.00  0.00    +0.000 N 
ATOM      9  C   UNL     1       1.079  13.040  20.846  0.00  0.00    +0.000 C 
ATOM     10  O   UNL     1       2.210  12.766  21.262  0.00  0.00    +0.000 OA
BRANCH   9  11
ATOM     11  C   UNL     1       0.643  14.500  20.832  0.00  0.00    +0.000 C 
BRANCH  11  12
ATOM     12  C   UNL     1       1.242  15.293  19.691  0.00  0.00    +0.000 A 
ATOM     13  C   UNL     1       0.746  16.562  19.360  0.00  0.00    +0.000 A 
ATOM     14  C   UNL     1       1.315  17.295  18.316  0.00  0.00    +0.000 A 
ATOM     15  C   UNL     1       2.386  16.763  17.605  0.00  0.00    +0.000 A 
ATOM     16  F   UNL     1       2.930  17.469  16.605  0.00  0.00    +0.000 F 
ATOM     17  C   UNL     1       2.901  15.513  17.923  0.00  0.00    +0.000 A 
ATOM     18  C   UNL     1       2.331  14.779  18.965  0.00  0.00    +0.000 A 
ENDBRANCH  11  12
ENDBRANCH   9  11
ENDBRANCH   1   8
BRANCH   5  19
ATOM     19  C   UNL     1       2.294   8.106  18.117  0.00  0.00    +0.000 C 
ATOM     20  O   UNL     1       2.430   8.721  17.064  0.00  0.00    +0.000 OA
BRANCH  19  21
ATOM     21  C   UNL     1       2.755   6.729  18.257  0.00  0.00    +0.000 A 
ATOM     22  C   UNL     1       2.028   5.638  18.706  0.00  0.00    +0.000 A 
ATOM     23  N   UNL     1       2.835   4.518  18.715  0.00  0.00    +0.000 N 
ATOM     24  C   UNL     1       4.077   4.881  18.233  0.00  0.00    +0.000 A 
ATOM     25  N   UNL     1       5.147   4.072  18.083  0.00  0.00    +0.000 NA
ATOM     26  C   UNL     1       6.204   4.712  17.569  0.00  0.00    +0.000 A 
ATOM     27  N   UNL     1       6.299   6.008  17.203  0.00  0.00    +0.000 NA
ATOM     28  C   UNL     1       5.204   6.780  17.365  0.00  0.00    +0.000 A 
ATOM     29  C   UNL     1       4.042   6.230  17.905  0.00  0.00    +0.000 A 
BRANCH  23  30
ATOM     30  C   UNL     1       2.431   3.160  19.151  0.00  0.00    +0.000 C 
ATOM     31  C   UNL     1       3.404   2.573  20.208  0.00  0.00    +0.000 C 
ATOM     32  C   UNL     1       1.032   3.193  19.797  0.00  0.00    +0.000 C 
ATOM     33  C   UNL     1       2.432   2.180  17.958  0.00  0.00    +0.000 C 
ENDBRANCH  23  30
ENDBRANCH  19  21
ENDBRANCH   5  19
TORSDOF 6
ENDMDL
