MODEL 1
REMARK VINA RESULT:      -7.7      0.000      0.000
REMARK  Name = 
REMARK  5 active torsions:
REMARK  status: ('A' for Active; 'I' for Inactive)
REMARK    1  A    between atoms: C_1  and  C_2
REMARK    2  A    between atoms: C_2  and  C_3
REMARK    3  A    between atoms: C_3  and  C_4
REMARK    4  A    between atoms: C_5  and  O_6
REMARK    5  A    between atoms: N_13  and  C_14
REMARK                            x       y       z     vdW  Elec       q    Type
REMARK                         _______ _______ _______ _____ _____    ______ ____
ROOT
ATOM      1  C   UNL     1       4.937   4.868  16.928  0.00  0.00    +0.000 A 
ATOM      2  C   UNL     1       4.412   3.662  17.202  0.00  0.00    +0.000 A 
ATOM      3  C   UNL     1       3.181   3.524  17.997  0.00  0.00    +0.000 A 
ATOM      4  C   UNL     1       2.611   2.256  18.217  0.00  0.00    +0.000 A 
ATOM      5  C   UNL     1       1.399   2.119  18.889  0.00  0.00    +0.000 A 
ATOM      6  C   UNL     1       0.739   3.251  19.348  0.00  0.00    +0.000 A 
ATOM      7  C   UNL     1       1.302   4.516  19.151  0.00  0.00    +0.000 A 
ATOM      8  C   UNL     1       2.536   4.673  18.489  0.00  0.00    +0.000 A 
ATOM      9  N   UNL     1       3.131   5.948  18.243  0.00  0.00    +0.000 N 
ATOM     10  C   UNL     1       4.304   6.100  17.506  0.00  0.00    +0.000 A 
ATOM     11  O   UNL     1       4.857   7.185  17.311  0.00  0.00    +0.000 OA
ENDROOT
BRANCH   9  12
ATOM     12  C   UNL     1       2.504   7.130  18.730  0.00  0.00    +0.000 A 
ATOM     13  C   UNL     1       2.220   7.239  20.099  0.00  0.00    +0.000 A 
ATOM     14  C   UNL     1       1.505   8.331  20.591  0.00  0.00    +0.000 A 
ATOM     15  C   UNL     1       1.050   9.313  19.713  0.00  0.00    +0.000 A 
ATOM     16  C   UNL     1       1.323   9.212  18.348  0.00  0.00    +0.000 A 
ATOM     17  C   UNL     1       2.052   8.125  17.855  0.00  0.00    +0.000 A 
ENDBRANCH   9  12
BRANCH   2  18
ATOM     18  O   UNL     1       4.935   2.472  16.727  0.00  0.00    +0.000 OA
ATOM     19  H   UNL     1       4.255   1.783  16.738  0.00  0.00    +0.000 HD
ENDBRANCH   2  18
BRANCH   1  20
ATOM     20  C   UNL     1       6.172   5.111  16.088  0.00  0.00    +0.000 C 
BRANCH  20  22
ATOM     21  C   UNL     1       6.171   3.888  13.828  0.00  0.00    +0.000 C 
ATOM     22  C   UNL     1       5.888   5.180  14.582  0.00  0.00    +0.000 C 
ENDBRANCH  20  22
ENDBRANCH   1  20
TORSDOF 4
ENDMDL
MODEL 2
REMARK VINA RESULT:      -7.6      0.658      1.188
REMARK  Name = 
REMARK  5 active torsions:
REMARK  status: ('A' for Active; 'I' for Inactive)
REMARK    1  A    between atoms: C_1  and  C_2
REMARK    2  A    between atoms: C_2  and  C_3
REMARK    3  A    between atoms: C_3  and  C_4
REMARK    4  A    between atoms: C_5  and  O_6
REMARK    5  A    between atoms: N_13  and  C_14
REMARK                            x       y       z     vdW  Elec       q    Type
REMARK                         _______ _______ _______ _____ _____    ______ ____
ROOT
ATOM      1  C   UNL     1       4.909   4.944  16.899  0.00  0.00    +0.000 A 
ATOM      2  C   UNL     1       4.393   3.729  17.148  0.00  0.00    +0.000 A 
ATOM      3  C   UNL     1       3.166   3.567  17.944  0.00  0.00    +0.000 A 
ATOM      4  C   UNL     1       2.603   2.291  18.137  0.00  0.00    +0.000 A 
ATOM      5  C   UNL     1       1.394   2.132  18.811  0.00  0.00    +0.000 A 
ATOM      6  C   UNL     1       0.730   3.249  19.298  0.00  0.00    +0.000 A 
ATOM      7  C   UNL     1       1.285   4.522  19.127  0.00  0.00    +0.000 A 
ATOM      8  C   UNL     1       2.516   4.701  18.464  0.00  0.00    +0.000 A 
ATOM      9  N   UNL     1       3.103   5.984  18.244  0.00  0.00    +0.000 N 
ATOM     10  C   UNL     1       4.272   6.159  17.506  0.00  0.00    +0.000 A 
ATOM     11  O   UNL     1       4.818   7.251  17.334  0.00  0.00    +0.000 OA
ENDROOT
BRANCH   9  12
ATOM     12  C   UNL     1       2.471   7.152  18.760  0.00  0.00    +0.000 A 
ATOM     13  C   UNL     1       2.201   7.232  20.134  0.00  0.00    +0.000 A 
ATOM     14  C   UNL     1       1.482   8.309  20.654  0.00  0.00    +0.000 A 
ATOM     15  C   UNL     1       1.009   9.303  19.800  0.00  0.00    +0.000 A 
ATOM     16  C   UNL     1       1.269   9.230  18.430  0.00  0.00    +0.000 A 
ATOM     17  C   UNL     1       2.001   8.159  17.909  0.00  0.00    +0.000 A 
ENDBRANCH   9  12
BRANCH   2  18
ATOM     18  O   UNL     1       4.920   2.553  16.644  0.00  0.00    +0.000 OA
ATOM     19  H   UNL     1       5.626   2.231  17.224  0.00  0.00    +0.000 HD
ENDBRANCH   2  18
BRANCH   1  20
ATOM     20  C   UNL     1       6.140   5.213  16.060  0.00  0.00    +0.000 C 
BRANCH  20  22
ATOM     21  C   UNL     1       7.633   5.142  18.150  0.00  0.00    +0.000 C 
ATOM     22  C   UNL     1       7.442   4.717  16.701  0.00  0.00    +0.000 C 
ENDBRANCH  20  22
ENDBRANCH   1  20
TORSDOF 4
ENDMDL
MODEL 3
REMARK VINA RESULT:      -7.6      1.840      5.269
REMARK  Name = 
REMARK  5 active torsions:
REMARK  status: ('A' for Active; 'I' for Inactive)
REMARK    1  A    between atoms: C_1  and  C_2
REMARK    2  A    between atoms: C_2  and  C_3
REMARK    3  A    between atoms: C_3  and  C_4
REMARK    4  A    between atoms: C_5  and  O_6
REMARK    5  A    between atoms: N_13  and  C_14
REMARK                            x       y       z     vdW  Elec       q    Type
REMARK                         _______ _______ _______ _____ _____    ______ ____
ROOT
ATOM      1  C   UNL     1       2.580   7.311  19.012  0.00  0.00    +0.000 A 
ATOM      2  C   UNL     1       2.032   6.531  19.959  0.00  0.00    +0.000 A 
ATOM      3  C   UNL     1       2.463   5.136  20.145  0.00  0.00    +0.000 A 
ATOM      4  C   UNL     1       1.924   4.355  21.185  0.00  0.00    +0.000 A 
ATOM      5  C   UNL     1       2.388   3.064  21.430  0.00  0.00    +0.000 A 
ATOM      6  C   UNL     1       3.400   2.539  20.639  0.00  0.00    +0.000 A 
ATOM      7  C   UNL     1       3.933   3.297  19.592  0.00  0.00    +0.000 A 
ATOM      8  C   UNL     1       3.465   4.598  19.317  0.00  0.00    +0.000 A 
ATOM      9  N   UNL     1       4.001   5.416  18.276  0.00  0.00    +0.000 N 
ATOM     10  C   UNL     1       3.597   6.734  18.073  0.00  0.00    +0.000 A 
ATOM     11  O   UNL     1       4.018   7.447  17.159  0.00  0.00    +0.000 OA
ENDROOT
BRANCH   9  12
ATOM     12  C   UNL     1       5.015   4.900  17.419  0.00  0.00    +0.000 A 
ATOM     13  C   UNL     1       6.361   5.056  17.781  0.00  0.00    +0.000 A 
ATOM     14  C   UNL     1       7.380   4.666  16.911  0.00  0.00    +0.000 A 
ATOM     15  C   UNL     1       7.060   4.133  15.664  0.00  0.00    +0.000 A 
ATOM     16  C   UNL     1       5.723   3.977  15.293  0.00  0.00    +0.000 A 
ATOM     17  C   UNL     1       4.700   4.356  16.168  0.00  0.00    +0.000 A 
ENDBRANCH   9  12
BRANCH   2  18
ATOM     18  O   UNL     1       1.078   6.971  20.858  0.00  0.00    +0.000 OA
ATOM     19  H   UNL     1       0.241   6.508  20.708  0.00  0.00    +0.000 HD
ENDBRANCH   2  18
BRANCH   1  20
ATOM     20  C   UNL     1       2.232   8.765  18.772  0.00  0.00    +0.000 C 
BRANCH  20  22
ATOM     21  C   UNL     1       0.041  10.024  18.309  0.00  0.00    +0.000 C 
ATOM     22  C   UNL     1       1.029   8.964  17.842  0.00  0.00    +0.000 C 
ENDBRANCH  20  22
ENDBRANCH   1  20
TORSDOF 4
ENDMDL
MODEL 4
REMARK VINA RESULT:      -7.6      0.189      1.071
REMARK  Name = 
REMARK  5 active torsions:
REMARK  status: ('A' for Active; 'I' for Inactive)
REMARK    1  A    between atoms: C_1  and  C_2
REMARK    2  A    between atoms: C_2  and  C_3
REMARK    3  A    between atoms: C_3  and  C_4
REMARK    4  A    between atoms: C_5  and  O_6
REMARK    5  A    between atoms: N_13  and  C_14
REMARK                            x       y       z     vdW  Elec       q    Type
REMARK                         _______ _______ _______ _____ _____    ______ ____
ROOT
ATOM      1  C   UNL     1       4.847   5.029  16.952  0.00  0.00    +0.000 A 
ATOM      2  C   UNL     1       4.427   3.789  17.250  0.00  0.00    +0.000 A 
ATOM      3  C   UNL     1       3.226   3.562  18.070  0.00  0.00    +0.000 A 
ATOM      4  C   UNL     1       2.764   2.256  18.316  0.00  0.00    +0.000 A 
ATOM      5  C   UNL     1       1.580   2.030  19.013  0.00  0.00    +0.000 A 
ATOM      6  C   UNL     1       0.839   3.111  19.471  0.00  0.00    +0.000 A 
ATOM      7  C   UNL     1       1.294   4.414  19.248  0.00  0.00    +0.000 A 
ATOM      8  C   UNL     1       2.499   4.662  18.561  0.00  0.00    +0.000 A 
ATOM      9  N   UNL     1       2.985   5.977  18.288  0.00  0.00    +0.000 N 
ATOM     10  C   UNL     1       4.127   6.214  17.527  0.00  0.00    +0.000 A 
ATOM     11  O   UNL     1       4.587   7.337  17.309  0.00  0.00    +0.000 OA
ENDROOT
BRANCH   9  12
ATOM     12  C   UNL     1       2.272   7.112  18.773  0.00  0.00    +0.000 A 
ATOM     13  C   UNL     1       1.866   8.103  17.868  0.00  0.00    +0.000 A 
ATOM     14  C   UNL     1       1.269   9.278  18.323  0.00  0.00    +0.000 A 
ATOM     15  C   UNL     1       1.092   9.481  19.690  0.00  0.00    +0.000 A 
ATOM     16  C   UNL     1       1.497   8.503  20.600  0.00  0.00    +0.000 A 
ATOM     17  C   UNL     1       2.083   7.318  20.145  0.00  0.00    +0.000 A 
ENDBRANCH   9  12
BRANCH   2  18
ATOM     18  O   UNL     1       5.036   2.639  16.780  0.00  0.00    +0.000 OA
ATOM     19  H   UNL     1       5.281   2.065  17.520  0.00  0.00    +0.000 HD
ENDBRANCH   2  18
BRANCH   1  20
ATOM     20  C   UNL     1       6.043   5.360  16.085  0.00  0.00    +0.000 C 
BRANCH  20  22
ATOM     21  C   UNL     1       6.296   3.996  13.923  0.00  0.00    +0.000 C 
ATOM     22  C   UNL     1       5.760   5.259  14.581  0.00  0.00    +0.000 C 
ENDBRANCH  20  22
ENDBRANCH   1  20
TORSDOF 4
ENDMDL
MODEL 5
REMARK VINA RESULT:      -7.5      1.026      1.855
REMARK  Name = 
REMARK  5 active torsions:
REMARK  status: ('A' for Active; 'I' for Inactive)
REMARK    1  A    between atoms: C_1  and  C_2
REMARK    2  A    between atoms: C_2  and  C_3
REMARK    3  A    between atoms: C_3  and  C_4
REMARK    4  A    between atoms: C_5  and  O_6
REMARK    5  A    between atoms: N_13  and  C_14
REMARK                            x       y       z     vdW  Elec       q    Type
REMARK                         _______ _______ _______ _____ _____    ______ ____
ROOT
ATOM      1  C   UNL     1       5.280   5.525  16.980  0.00  0.00    +0.000 A 
ATOM      2  C   UNL     1       4.892   4.241  17.061  0.00  0.00    +0.000 A 
ATOM      3  C   UNL     1       3.602   3.867  17.662  0.00  0.00    +0.000 A 
ATOM      4  C   UNL     1       3.183   2.524  17.677  0.00  0.00    +0.000 A 
ATOM      5  C   UNL     1       1.927   2.166  18.160  0.00  0.00    +0.000 A 
ATOM      6  C   UNL     1       1.070   3.151  18.633  0.00  0.00    +0.000 A 
ATOM      7  C   UNL     1       1.478   4.488  18.639  0.00  0.00    +0.000 A 
ATOM      8  C   UNL     1       2.753   4.867  18.171  0.00  0.00    +0.000 A 
ATOM      9  N   UNL     1       3.198   6.223  18.134  0.00  0.00    +0.000 N 
ATOM     10  C   UNL     1       4.421   6.598  17.583  0.00  0.00    +0.000 A 
ATOM     11  O   UNL     1       4.844   7.756  17.573  0.00  0.00    +0.000 OA
ENDROOT
BRANCH   9  12
ATOM     12  C   UNL     1       2.363   7.259  18.644  0.00  0.00    +0.000 A 
ATOM     13  C   UNL     1       1.893   8.250  17.771  0.00  0.00    +0.000 A 
ATOM     14  C   UNL     1       1.170   9.339  18.258  0.00  0.00    +0.000 A 
ATOM     15  C   UNL     1       0.928   9.455  19.625  0.00  0.00    +0.000 A 
ATOM     16  C   UNL     1       1.395   8.476  20.503  0.00  0.00    +0.000 A 
ATOM     17  C   UNL     1       2.109   7.377  20.016  0.00  0.00    +0.000 A 
ENDBRANCH   9  12
BRANCH   2  18
ATOM     18  O   UNL     1       5.623   3.185  16.548  0.00  0.00    +0.000 OA
ATOM     19  H   UNL     1       6.235   3.503  15.869  0.00  0.00    +0.000 HD
ENDBRANCH   2  18
BRANCH   1  20
ATOM     20  C   UNL     1       6.566   6.009  16.345  0.00  0.00    +0.000 C 
BRANCH  20  22
ATOM     21  C   UNL     1       7.743   5.825  18.621  0.00  0.00    +0.000 C 
ATOM     22  C   UNL     1       7.550   6.630  17.344  0.00  0.00    +0.000 C 
ENDBRANCH  20  22
ENDBRANCH   1  20
TORSDOF 4
ENDMDL
MODEL 6
REMARK VINA RESULT:      -7.5      1.879      5.781
REMARK  Name = 
REMARK  5 active torsions:
REMARK  status: ('A' for Active; 'I' for Inactive)
REMARK    1  A    between atoms: C_1  and  C_2
REMARK    2  A    between atoms: C_2  and  C_3
REMARK    3  A    between atoms: C_3  and  C_4
REMARK    4  A    between atoms: C_5  and  O_6
REMARK    5  A    between atoms: N_13  and  C_14
REMARK                            x       y       z     vdW  Elec       q    Type
REMARK                         _______ _______ _______ _____ _____    ______ ____
ROOT
ATOM      1  C   UNL     1       2.828   4.399  20.301  0.00  0.00    +0.000 A 
ATOM      2  C   UNL     1       2.241   5.607  20.336  0.00  0.00    +0.000 A 
ATOM      3  C   UNL     1       2.567   6.646  19.346  0.00  0.00    +0.000 A 
ATOM      4  C   UNL     1       1.893   7.882  19.359  0.00  0.00    +0.000 A 
ATOM      5  C   UNL     1       2.126   8.839  18.375  0.00  0.00    +0.000 A 
ATOM      6  C   UNL     1       3.036   8.571  17.361  0.00  0.00    +0.000 A 
ATOM      7  C   UNL     1       3.724   7.354  17.344  0.00  0.00    +0.000 A 
ATOM      8  C   UNL     1       3.516   6.381  18.342  0.00  0.00    +0.000 A 
ATOM      9  N   UNL     1       4.177   5.115  18.346  0.00  0.00    +0.000 N 
ATOM     10  C   UNL     1       3.895   4.123  19.282  0.00  0.00    +0.000 A 
ATOM     11  O   UNL     1       4.478   3.037  19.329  0.00  0.00    +0.000 OA
ENDROOT
BRANCH   9  12
ATOM     12  C   UNL     1       5.144   4.816  17.344  0.00  0.00    +0.000 A 
ATOM     13  C   UNL     1       6.484   5.171  17.559  0.00  0.00    +0.000 A 
ATOM     14  C   UNL     1       7.435   4.997  16.553  0.00  0.00    +0.000 A 
ATOM     15  C   UNL     1       7.049   4.486  15.316  0.00  0.00    +0.000 A 
ATOM     16  C   UNL     1       5.717   4.135  15.090  0.00  0.00    +0.000 A 
ATOM     17  C   UNL     1       4.765   4.295  16.101  0.00  0.00    +0.000 A 
ENDBRANCH   9  12
BRANCH   2  18
ATOM     18  O   UNL     1       1.261   5.957  21.247  0.00  0.00    +0.000 OA
ATOM     19  H   UNL     1       0.489   6.313  20.784  0.00  0.00    +0.000 HD
ENDBRANCH   2  18
BRANCH   1  20
ATOM     20  C   UNL     1       2.529   3.257  21.247  0.00  0.00    +0.000 C 
BRANCH  20  22
ATOM     21  C   UNL     1       0.809   2.498  19.496  0.00  0.00    +0.000 C 
ATOM     22  C   UNL     1       1.191   2.560  20.968  0.00  0.00    +0.000 C 
ENDBRANCH  20  22
ENDBRANCH   1  20
TORSDOF 4
ENDMDL
MODEL 7
REMARK VINA RESULT:      -7.5      1.467      4.337
REMARK  Name = 
REMARK  5 active torsions:
REMARK  status: ('A' for Active; 'I' for Inactive)
REMARK    1  A    between atoms: C_1  and  C_2
REMARK    2  A    between atoms: C_2  and  C_3
REMARK    3  A    between atoms: C_3  and  C_4
REMARK    4  A    between atoms: C_5  and  O_6
REMARK    5  A    between atoms: N_13  and  C_14
REMARK                            x       y       z     vdW  Elec       q    Type
REMARK                         _______ _______ _______ _____ _____    ______ ____
ROOT
ATOM      1  C   UNL     1       4.849   4.906  16.543  0.00  0.00    +0.000 A 
ATOM      2  C   UNL     1       4.578   6.218  16.454  0.00  0.00    +0.000 A 
ATOM      3  C   UNL     1       3.631   6.869  17.374  0.00  0.00    +0.000 A 
ATOM      4  C   UNL     1       3.410   8.257  17.308  0.00  0.00    +0.000 A 
ATOM      5  C   UNL     1       2.587   8.900  18.230  0.00  0.00    +0.000 A 
ATOM      6  C   UNL     1       1.976   8.161  19.234  0.00  0.00    +0.000 A 
ATOM      7  C   UNL     1       2.174   6.778  19.302  0.00  0.00    +0.000 A 
ATOM      8  C   UNL     1       2.988   6.107  18.367  0.00  0.00    +0.000 A 
ATOM      9  N   UNL     1       3.238   4.702  18.418  0.00  0.00    +0.000 N 
ATOM     10  C   UNL     1       4.119   4.064  17.547  0.00  0.00    +0.000 A 
ATOM     11  O   UNL     1       4.323   2.848  17.547  0.00  0.00    +0.000 OA
ENDROOT
BRANCH   9  12
ATOM     12  C   UNL     1       2.600   3.903  19.410  0.00  0.00    +0.000 A 
ATOM     13  C   UNL     1       1.275   3.490  19.208  0.00  0.00    +0.000 A 
ATOM     14  C   UNL     1       0.585   2.806  20.208  0.00  0.00    +0.000 A 
ATOM     15  C   UNL     1       1.208   2.546  21.427  0.00  0.00    +0.000 A 
ATOM     16  C   UNL     1       2.525   2.957  21.639  0.00  0.00    +0.000 A 
ATOM     17  C   UNL     1       3.224   3.631  20.634  0.00  0.00    +0.000 A 
ENDBRANCH   9  12
BRANCH   2  18
ATOM     18  O   UNL     1       5.189   7.069  15.550  0.00  0.00    +0.000 OA
ATOM     19  H   UNL     1       5.810   7.652  16.011  0.00  0.00    +0.000 HD
ENDBRANCH   2  18
BRANCH   1  20
ATOM     20  C   UNL     1       5.835   4.159  15.670  0.00  0.00    +0.000 C 
BRANCH  20  22
ATOM     21  C   UNL     1       7.595   4.597  17.490  0.00  0.00    +0.000 C 
ATOM     22  C   UNL     1       7.302   4.460  16.003  0.00  0.00    +0.000 C 
ENDBRANCH  20  22
ENDBRANCH   1  20
TORSDOF 4
ENDMDL
MODEL 8
REMARK VINA RESULT:      -7.5      1.382      4.216
REMARK  Name = 
REMARK  5 active torsions:
REMARK  status: ('A' for Active; 'I' for Inactive)
REMARK    1  A    between atoms: C_1  and  C_2
REMARK    2  A    between atoms: C_2  and  C_3
REMARK    3  A    between atoms: C_3  and  C_4
REMARK    4  A    between atoms: C_5  and  O_6
REMARK    5  A    between atoms: N_13  and  C_14
REMARK                            x       y       z     vdW  Elec       q    Type
REMARK                         _______ _______ _______ _____ _____    ______ ____
ROOT
ATOM      1  C   UNL     1       5.093   4.844  16.700  0.00  0.00    +0.000 A 
ATOM      2  C   UNL     1       4.804   6.146  16.537  0.00  0.00    +0.000 A 
ATOM      3  C   UNL     1       3.779   6.811  17.356  0.00  0.00    +0.000 A 
ATOM      4  C   UNL     1       3.536   8.190  17.216  0.00  0.00    +0.000 A 
ATOM      5  C   UNL     1       2.634   8.851  18.047  0.00  0.00    +0.000 A 
ATOM      6  C   UNL     1       1.964   8.139  19.032  0.00  0.00    +0.000 A 
ATOM      7  C   UNL     1       2.183   6.765  19.173  0.00  0.00    +0.000 A 
ATOM      8  C   UNL     1       3.078   6.076  18.330  0.00  0.00    +0.000 A 
ATOM      9  N   UNL     1       3.351   4.680  18.458  0.00  0.00    +0.000 N 
ATOM     10  C   UNL     1       4.306   4.027  17.682  0.00  0.00    +0.000 A 
ATOM     11  O   UNL     1       4.534   2.817  17.748  0.00  0.00    +0.000 OA
ENDROOT
BRANCH   9  12
ATOM     12  C   UNL     1       2.656   3.907  19.432  0.00  0.00    +0.000 A 
ATOM     13  C   UNL     1       1.397   3.377  19.114  0.00  0.00    +0.000 A 
ATOM     14  C   UNL     1       0.641   2.715  20.082  0.00  0.00    +0.000 A 
ATOM     15  C   UNL     1       1.130   2.595  21.381  0.00  0.00    +0.000 A 
ATOM     16  C   UNL     1       2.380   3.123  21.708  0.00  0.00    +0.000 A 
ATOM     17  C   UNL     1       3.146   3.775  20.737  0.00  0.00    +0.000 A 
ENDBRANCH   9  12
BRANCH   2  18
ATOM     18  O   UNL     1       5.464   6.973  15.646  0.00  0.00    +0.000 OA
ATOM     19  H   UNL     1       4.994   7.815  15.563  0.00  0.00    +0.000 HD
ENDBRANCH   2  18
BRANCH   1  20
ATOM     20  C   UNL     1       6.156   4.085  15.935  0.00  0.00    +0.000 C 
BRANCH  20  22
ATOM     21  C   UNL     1       6.776   4.445  13.468  0.00  0.00    +0.000 C 
ATOM     22  C   UNL     1       5.798   3.839  14.464  0.00  0.00    +0.000 C 
ENDBRANCH  20  22
ENDBRANCH   1  20
TORSDOF 4
ENDMDL
MODEL 9
REMARK VINA RESULT:      -7.5      1.907      5.844
REMARK  Name = 
REMARK  5 active torsions:
REMARK  status: ('A' for Active; 'I' for Inactive)
REMARK    1  A    between atoms: C_1  and  C_2
REMARK    2  A    between atoms: C_2  and  C_3
REMARK    3  A    between atoms: C_3  and  C_4
REMARK    4  A    between atoms: C_5  and  O_6
REMARK    5  A    between atoms: N_13  and  C_14
REMARK                            x       y       z     vdW  Elec       q    Type
REMARK                         _______ _______ _______ _____ _____    ______ ____
ROOT
ATOM      1  C   UNL     1       2.760   4.572  20.359  0.00  0.00    +0.000 A 
ATOM      2  C   UNL     1       2.132   5.759  20.377  0.00  0.00    +0.000 A 
ATOM      3  C   UNL     1       2.443   6.805  19.390  0.00  0.00    +0.000 A 
ATOM      4  C   UNL     1       1.728   8.017  19.384  0.00  0.00    +0.000 A 
ATOM      5  C   UNL     1       1.949   8.979  18.401  0.00  0.00    +0.000 A 
ATOM      6  C   UNL     1       2.888   8.738  17.408  0.00  0.00    +0.000 A 
ATOM      7  C   UNL     1       3.618   7.546  17.410  0.00  0.00    +0.000 A 
ATOM      8  C   UNL     1       3.421   6.569  18.407  0.00  0.00    +0.000 A 
ATOM      9  N   UNL     1       4.125   5.326  18.430  0.00  0.00    +0.000 N 
ATOM     10  C   UNL     1       3.857   4.328  19.364  0.00  0.00    +0.000 A 
ATOM     11  O   UNL     1       4.475   3.263  19.428  0.00  0.00    +0.000 OA
ENDROOT
BRANCH   9  12
ATOM     12  C   UNL     1       5.123   5.057  17.450  0.00  0.00    +0.000 A 
ATOM     13  C   UNL     1       4.746   4.470  16.233  0.00  0.00    +0.000 A 
ATOM     14  C   UNL     1       5.710   4.088  15.300  0.00  0.00    +0.000 A 
ATOM     15  C   UNL     1       7.061   4.274  15.585  0.00  0.00    +0.000 A 
ATOM     16  C   UNL     1       7.447   4.854  16.794  0.00  0.00    +0.000 A 
ATOM     17  C   UNL     1       6.482   5.249  17.726  0.00  0.00    +0.000 A 
ENDBRANCH   9  12
BRANCH   2  18
ATOM     18  O   UNL     1       1.121   6.079  21.266  0.00  0.00    +0.000 OA
ATOM     19  H   UNL     1       1.470   6.631  21.981  0.00  0.00    +0.000 HD
ENDBRANCH   2  18
BRANCH   1  20
ATOM     20  C   UNL     1       2.480   3.423  21.304  0.00  0.00    +0.000 C 
BRANCH  20  22
ATOM     21  C   UNL     1       0.791   2.603  19.551  0.00  0.00    +0.000 C 
ATOM     22  C   UNL     1       1.153   2.707  21.026  0.00  0.00    +0.000 C 
ENDBRANCH  20  22
ENDBRANCH   1  20
TORSDOF 4
ENDMDL
