MODEL 1
REMARK VINA RESULT:     -10.9      0.000      0.000
REMARK  Name = 
REMARK  6 active torsions:
REMARK  status: ('A' for Active; 'I' for Inactive)
REMARK    1  A    between atoms: C_2  and  C_14
REMARK    2  A    between atoms: N_3  and  C_4
REMARK    3  A    between atoms: C_8  and  C_9
REMARK    4  A    between atoms: C_17  and  C_18
REMARK    5  A    between atoms: C_23  and  O_24
REMARK    6  A    between atoms: O_24  and  C_25
REMARK                            x       y       z     vdW  Elec       q    Type
REMARK                         _______ _______ _______ _____ _____    ______ ____
ROOT
ATOM      1  C   UNL     1       7.743   5.989  18.404  0.00  0.00    +0.000 C 
ATOM      2  C   UNL     1       6.420   5.622  19.086  0.00  0.00    +0.000 C 
ATOM      3  C   UNL     1       5.750   4.855  18.013  0.00  0.00    +0.000 A 
ATOM      4  C   UNL     1       4.469   4.323  17.893  0.00  0.00    +0.000 A 
ATOM      5  C   UNL     1       4.241   3.667  16.653  0.00  0.00    +0.000 A 
ATOM      6  C   UNL     1       5.257   3.510  15.702  0.00  0.00    +0.000 A 
ATOM      7  N   UNL     1       6.502   3.974  15.864  0.00  0.00    +0.000 NA
ATOM      8  C   UNL     1       6.688   4.638  17.008  0.00  0.00    +0.000 A 
ATOM      9  O   UNL     1       7.947   5.142  17.268  0.00  0.00    +0.000 OA
ENDROOT
BRANCH   4  10
ATOM     10  C   UNL     1       3.390   4.292  18.945  0.00  0.00    +0.000 A 
ATOM     11  C   UNL     1       2.855   3.015  19.277  0.00  0.00    +0.000 A 
ATOM     12  C   UNL     1       1.797   2.829  20.175  0.00  0.00    +0.000 A 
ATOM     13  C   UNL     1       1.203   3.920  20.775  0.00  0.00    +0.000 A 
ATOM     14  C   UNL     1       1.694   5.186  20.494  0.00  0.00    +0.000 A 
ATOM     15  C   UNL     1       2.816   5.378  19.651  0.00  0.00    +0.000 A 
BRANCH  15  16
ATOM     16  O   UNL     1       3.282   6.672  19.503  0.00  0.00    +0.000 OA
BRANCH  16  17
ATOM     17  C   UNL     1       2.366   7.684  19.233  0.00  0.00    +0.000 A 
ATOM     18  C   UNL     1       2.090   8.177  17.949  0.00  0.00    +0.000 A 
ATOM     19  C   UNL     1       1.214   9.255  17.783  0.00  0.00    +0.000 A 
ATOM     20  C   UNL     1       0.568   9.807  18.888  0.00  0.00    +0.000 A 
ATOM     21  C   UNL     1       0.783   9.272  20.155  0.00  0.00    +0.000 A 
ATOM     22  C   UNL     1       1.675   8.208  20.329  0.00  0.00    +0.000 A 
ENDBRANCH  16  17
ENDBRANCH  15  16
ENDBRANCH   4  10
BRANCH   1  24
ATOM     23  O   UNL     1       7.063   7.893  17.087  0.00  0.00    +0.000 OA
ATOM     24  C   UNL     1       7.765   7.477  18.002  0.00  0.00    +0.000 C 
ATOM     25  N   UNL     1       8.596   8.253  18.800  0.00  0.00    +0.000 N 
ATOM     26  H   UNL     1       9.218   7.736  19.418  0.00  0.00    +0.000 HD
BRANCH  25  27
ATOM     27  C   UNL     1       8.774   9.648  18.700  0.00  0.00    +0.000 A 
ATOM     28  C   UNL     1       8.178  10.425  17.701  0.00  0.00    +0.000 A 
ATOM     29  C   UNL     1       8.410  11.797  17.624  0.00  0.00    +0.000 A 
ATOM     30  C   UNL     1       9.241  12.415  18.550  0.00  0.00    +0.000 A 
ATOM     31  C   UNL     1       9.839  11.665  19.572  0.00  0.00    +0.000 A 
ATOM     32  C   UNL     1       9.589  10.280  19.646  0.00  0.00    +0.000 A 
BRANCH  31  33
ATOM     33  C   UNL     1      10.754  12.327  20.572  0.00  0.00    +0.000 C 
ATOM     34  F   UNL     1      10.998  13.640  20.301  0.00  0.00    +0.000 F 
ATOM     35  F   UNL     1      10.253  12.297  21.838  0.00  0.00    +0.000 F 
ATOM     36  F   UNL     1      11.975  11.729  20.637  0.00  0.00    +0.000 F 
ENDBRANCH  31  33
ENDBRANCH  25  27
ENDBRANCH   1  24
TORSDOF 6
ENDMDL
MODEL 2
REMARK VINA RESULT:     -10.5      0.214      1.084
REMARK  Name = 
REMARK  6 active torsions:
REMARK  status: ('A' for Active; 'I' for Inactive)
REMARK    1  A    between atoms: C_2  and  C_14
REMARK    2  A    between atoms: N_3  and  C_4
REMARK    3  A    between atoms: C_8  and  C_9
REMARK    4  A    between atoms: C_17  and  C_18
REMARK    5  A    between atoms: C_23  and  O_24
REMARK    6  A    between atoms: O_24  and  C_25
REMARK                            x       y       z     vdW  Elec       q    Type
REMARK                         _______ _______ _______ _____ _____    ______ ____
ROOT
ATOM      1  C   UNL     1       7.723   6.115  18.444  0.00  0.00    +0.000 C 
ATOM      2  C   UNL     1       6.386   5.743  19.095  0.00  0.00    +0.000 C 
ATOM      3  C   UNL     1       5.749   4.962  18.012  0.00  0.00    +0.000 A 
ATOM      4  C   UNL     1       4.476   4.420  17.864  0.00  0.00    +0.000 A 
ATOM      5  C   UNL     1       4.284   3.752  16.624  0.00  0.00    +0.000 A 
ATOM      6  C   UNL     1       5.325   3.595  15.701  0.00  0.00    +0.000 A 
ATOM      7  N   UNL     1       6.562   4.069  15.890  0.00  0.00    +0.000 NA
ATOM      8  C   UNL     1       6.714   4.744  17.033  0.00  0.00    +0.000 A 
ATOM      9  O   UNL     1       7.962   5.259  17.321  0.00  0.00    +0.000 OA
ENDROOT
BRANCH   4  10
ATOM     10  C   UNL     1       3.371   4.389  18.889  0.00  0.00    +0.000 A 
ATOM     11  C   UNL     1       2.827   3.113  19.208  0.00  0.00    +0.000 A 
ATOM     12  C   UNL     1       1.747   2.927  20.080  0.00  0.00    +0.000 A 
ATOM     13  C   UNL     1       1.138   4.019  20.662  0.00  0.00    +0.000 A 
ATOM     14  C   UNL     1       1.635   5.284  20.393  0.00  0.00    +0.000 A 
ATOM     15  C   UNL     1       2.778   5.476  19.578  0.00  0.00    +0.000 A 
BRANCH  15  16
ATOM     16  O   UNL     1       3.247   6.771  19.440  0.00  0.00    +0.000 OA
BRANCH  16  17
ATOM     17  C   UNL     1       2.325   7.809  19.361  0.00  0.00    +0.000 A 
ATOM     18  C   UNL     1       1.686   8.385  20.469  0.00  0.00    +0.000 A 
ATOM     19  C   UNL     1       0.710   9.369  20.285  0.00  0.00    +0.000 A 
ATOM     20  C   UNL     1       0.407   9.823  19.002  0.00  0.00    +0.000 A 
ATOM     21  C   UNL     1       1.092   9.306  17.906  0.00  0.00    +0.000 A 
ATOM     22  C   UNL     1       2.054   8.306  18.083  0.00  0.00    +0.000 A 
ENDBRANCH  16  17
ENDBRANCH  15  16
ENDBRANCH   4  10
BRANCH   1  24
ATOM     23  O   UNL     1       7.026   8.012  17.126  0.00  0.00    +0.000 OA
ATOM     24  C   UNL     1       7.745   7.600  18.030  0.00  0.00    +0.000 C 
ATOM     25  N   UNL     1       8.595   8.377  18.804  0.00  0.00    +0.000 N 
ATOM     26  H   UNL     1       9.227   7.861  19.413  0.00  0.00    +0.000 HD
BRANCH  25  27
ATOM     27  C   UNL     1       8.779   9.770  18.690  0.00  0.00    +0.000 A 
ATOM     28  C   UNL     1       8.254  10.526  17.636  0.00  0.00    +0.000 A 
ATOM     29  C   UNL     1       8.490  11.896  17.549  0.00  0.00    +0.000 A 
ATOM     30  C   UNL     1       9.253  12.535  18.518  0.00  0.00    +0.000 A 
ATOM     31  C   UNL     1       9.777  11.806  19.595  0.00  0.00    +0.000 A 
ATOM     32  C   UNL     1       9.524  10.422  19.678  0.00  0.00    +0.000 A 
BRANCH  31  33
ATOM     33  C   UNL     1      10.618  12.491  20.644  0.00  0.00    +0.000 C 
ATOM     34  F   UNL     1      10.359  12.066  21.913  0.00  0.00    +0.000 F 
ATOM     35  F   UNL     1      11.952  12.295  20.453  0.00  0.00    +0.000 F 
ATOM     36  F   UNL     1      10.435  13.840  20.659  0.00  0.00    +0.000 F 
ENDBRANCH  31  33
ENDBRANCH  25  27
ENDBRANCH   1  24
TORSDOF 6
ENDMDL
MODEL 3
REMARK VINA RESULT:     -10.1      0.813      1.316
REMARK  Name = 
REMARK  6 active torsions:
REMARK  status: ('A' for Active; 'I' for Inactive)
REMARK    1  A    between atoms: C_2  and  C_14
REMARK    2  A    between atoms: N_3  and  C_4
REMARK    3  A    between atoms: C_8  and  C_9
REMARK    4  A    between atoms: C_17  and  C_18
REMARK    5  A    between atoms: C_23  and  O_24
REMARK    6  A    between atoms: O_24  and  C_25
REMARK                            x       y       z     vdW  Elec       q    Type
REMARK                         _______ _______ _______ _____ _____    ______ ____
ROOT
ATOM      1  C   UNL     1       7.735   6.000  18.422  0.00  0.00    +0.000 C 
ATOM      2  C   UNL     1       6.402   5.552  19.034  0.00  0.00    +0.000 C 
ATOM      3  C   UNL     1       5.743   4.935  17.862  0.00  0.00    +0.000 A 
ATOM      4  C   UNL     1       4.463   4.429  17.658  0.00  0.00    +0.000 A 
ATOM      5  C   UNL     1       4.248   3.943  16.340  0.00  0.00    +0.000 A 
ATOM      6  C   UNL     1       5.275   3.907  15.389  0.00  0.00    +0.000 A 
ATOM      7  N   UNL     1       6.520   4.340  15.625  0.00  0.00    +0.000 NA
ATOM      8  C   UNL     1       6.693   4.847  16.848  0.00  0.00    +0.000 A 
ATOM      9  O   UNL     1       7.950   5.307  17.187  0.00  0.00    +0.000 OA
ENDROOT
BRANCH   4  10
ATOM     10  C   UNL     1       3.371   4.266  18.684  0.00  0.00    +0.000 A 
ATOM     11  C   UNL     1       2.803   2.967  18.815  0.00  0.00    +0.000 A 
ATOM     12  C   UNL     1       1.730   2.672  19.666  0.00  0.00    +0.000 A 
ATOM     13  C   UNL     1       1.154   3.675  20.417  0.00  0.00    +0.000 A 
ATOM     14  C   UNL     1       1.675   4.957  20.334  0.00  0.00    +0.000 A 
ATOM     15  C   UNL     1       2.812   5.247  19.540  0.00  0.00    +0.000 A 
BRANCH  15  16
ATOM     16  O   UNL     1       3.307   6.538  19.592  0.00  0.00    +0.000 OA
BRANCH  16  17
ATOM     17  C   UNL     1       2.435   7.596  19.361  0.00  0.00    +0.000 A 
ATOM     18  C   UNL     1       1.723   8.267  20.366  0.00  0.00    +0.000 A 
ATOM     19  C   UNL     1       0.804   9.266  20.030  0.00  0.00    +0.000 A 
ATOM     20  C   UNL     1       0.634   9.641  18.698  0.00  0.00    +0.000 A 
ATOM     21  C   UNL     1       1.394   9.029  17.705  0.00  0.00    +0.000 A 
ATOM     22  C   UNL     1       2.299   8.014  18.034  0.00  0.00    +0.000 A 
ENDBRANCH  16  17
ENDBRANCH  15  16
ENDBRANCH   4  10
BRANCH   1  24
ATOM     23  O   UNL     1       6.908   8.091  17.549  0.00  0.00    +0.000 OA
ATOM     24  C   UNL     1       7.767   7.527  18.219  0.00  0.00    +0.000 C 
ATOM     25  N   UNL     1       8.803   8.154  18.896  0.00  0.00    +0.000 N 
ATOM     26  H   UNL     1       9.511   7.534  19.284  0.00  0.00    +0.000 HD
BRANCH  25  27
ATOM     27  C   UNL     1       9.048   9.541  18.937  0.00  0.00    +0.000 A 
ATOM     28  C   UNL     1       9.475  10.275  17.825  0.00  0.00    +0.000 A 
ATOM     29  C   UNL     1       9.735  11.640  17.921  0.00  0.00    +0.000 A 
ATOM     30  C   UNL     1       9.568  12.296  19.134  0.00  0.00    +0.000 A 
ATOM     31  C   UNL     1       9.125  11.591  20.262  0.00  0.00    +0.000 A 
ATOM     32  C   UNL     1       8.856  10.212  20.150  0.00  0.00    +0.000 A 
BRANCH  31  33
ATOM     33  C   UNL     1       8.955  12.294  21.586  0.00  0.00    +0.000 C 
ATOM     34  F   UNL     1      10.037  13.038  21.950  0.00  0.00    +0.000 F 
ATOM     35  F   UNL     1       7.897  13.152  21.589  0.00  0.00    +0.000 F 
ATOM     36  F   UNL     1       8.738  11.427  22.612  0.00  0.00    +0.000 F 
ENDBRANCH  31  33
ENDBRANCH  25  27
ENDBRANCH   1  24
TORSDOF 6
ENDMDL
MODEL 4
REMARK VINA RESULT:      -9.8      0.976      1.143
REMARK  Name = 
REMARK  6 active torsions:
REMARK  status: ('A' for Active; 'I' for Inactive)
REMARK    1  A    between atoms: C_2  and  C_14
REMARK    2  A    between atoms: N_3  and  C_4
REMARK    3  A    between atoms: C_8  and  C_9
REMARK    4  A    between atoms: C_17  and  C_18
REMARK    5  A    between atoms: C_23  and  O_24
REMARK    6  A    between atoms: O_24  and  C_25
REMARK                            x       y       z     vdW  Elec       q    Type
REMARK                         _______ _______ _______ _____ _____    ______ ____
ROOT
ATOM      1  C   UNL     1       7.628   6.286  18.285  0.00  0.00    +0.000 C 
ATOM      2  C   UNL     1       6.207   5.763  18.528  0.00  0.00    +0.000 C 
ATOM      3  C   UNL     1       5.949   5.039  17.263  0.00  0.00    +0.000 A 
ATOM      4  C   UNL     1       4.815   4.423  16.744  0.00  0.00    +0.000 A 
ATOM      5  C   UNL     1       5.015   3.858  15.456  0.00  0.00    +0.000 A 
ATOM      6  C   UNL     1       6.270   3.859  14.836  0.00  0.00    +0.000 A 
ATOM      7  N   UNL     1       7.366   4.401  15.380  0.00  0.00    +0.000 NA
ATOM      8  C   UNL     1       7.152   4.979  16.565  0.00  0.00    +0.000 A 
ATOM      9  O   UNL     1       8.229   5.554  17.210  0.00  0.00    +0.000 OA
ENDROOT
BRANCH   4  10
ATOM     10  C   UNL     1       3.488   4.223  17.432  0.00  0.00    +0.000 A 
ATOM     11  C   UNL     1       3.080   2.877  17.658  0.00  0.00    +0.000 A 
ATOM     12  C   UNL     1       1.843   2.526  18.213  0.00  0.00    +0.000 A 
ATOM     13  C   UNL     1       0.938   3.510  18.553  0.00  0.00    +0.000 A 
ATOM     14  C   UNL     1       1.290   4.837  18.363  0.00  0.00    +0.000 A 
ATOM     15  C   UNL     1       2.570   5.205  17.880  0.00  0.00    +0.000 A 
BRANCH  15  16
ATOM     16  O   UNL     1       2.854   6.557  17.807  0.00  0.00    +0.000 OA
BRANCH  16  17
ATOM     17  C   UNL     1       2.177   7.427  18.654  0.00  0.00    +0.000 A 
ATOM     18  C   UNL     1       1.509   8.585  18.226  0.00  0.00    +0.000 A 
ATOM     19  C   UNL     1       0.926   9.446  19.161  0.00  0.00    +0.000 A 
ATOM     20  C   UNL     1       0.955   9.129  20.518  0.00  0.00    +0.000 A 
ATOM     21  C   UNL     1       1.552   7.943  20.939  0.00  0.00    +0.000 A 
ATOM     22  C   UNL     1       2.155   7.089  20.010  0.00  0.00    +0.000 A 
ENDBRANCH  16  17
ENDBRANCH  15  16
ENDBRANCH   4  10
BRANCH   1  24
ATOM     23  O   UNL     1       6.755   8.299  17.282  0.00  0.00    +0.000 OA
ATOM     24  C   UNL     1       7.620   7.800  17.994  0.00  0.00    +0.000 C 
ATOM     25  N   UNL     1       8.629   8.494  18.646  0.00  0.00    +0.000 N 
ATOM     26  H   UNL     1       9.348   7.917  19.078  0.00  0.00    +0.000 HD
BRANCH  25  27
ATOM     27  C   UNL     1       8.834   9.888  18.609  0.00  0.00    +0.000 A 
ATOM     28  C   UNL     1       8.323  10.709  17.599  0.00  0.00    +0.000 A 
ATOM     29  C   UNL     1       8.579  12.078  17.588  0.00  0.00    +0.000 A 
ATOM     30  C   UNL     1       9.350  12.650  18.592  0.00  0.00    +0.000 A 
ATOM     31  C   UNL     1       9.862  11.855  19.627  0.00  0.00    +0.000 A 
ATOM     32  C   UNL     1       9.588  10.473  19.633  0.00  0.00    +0.000 A 
BRANCH  31  33
ATOM     33  C   UNL     1      10.712  12.467  20.712  0.00  0.00    +0.000 C 
ATOM     34  F   UNL     1      10.984  13.788  20.512  0.00  0.00    +0.000 F 
ATOM     35  F   UNL     1      10.126  12.392  21.940  0.00  0.00    +0.000 F 
ATOM     36  F   UNL     1      11.921  11.854  20.835  0.00  0.00    +0.000 F 
ENDBRANCH  31  33
ENDBRANCH  25  27
ENDBRANCH   1  24
TORSDOF 6
ENDMDL
MODEL 5
REMARK VINA RESULT:      -9.7      6.532     10.080
REMARK  Name = 
REMARK  6 active torsions:
REMARK  status: ('A' for Active; 'I' for Inactive)
REMARK    1  A    between atoms: C_2  and  C_14
REMARK    2  A    between atoms: N_3  and  C_4
REMARK    3  A    between atoms: C_8  and  C_9
REMARK    4  A    between atoms: C_17  and  C_18
REMARK    5  A    between atoms: C_23  and  O_24
REMARK    6  A    between atoms: O_24  and  C_25
REMARK                            x       y       z     vdW  Elec       q    Type
REMARK                         _______ _______ _______ _____ _____    ______ ____
ROOT
ATOM      1  C   UNL     1       0.993   9.730  22.383  0.00  0.00    +0.000 C 
ATOM      2  C   UNL     1       0.963  11.014  21.547  0.00  0.00    +0.000 C 
ATOM      3  C   UNL     1      -0.355  11.570  21.925  0.00  0.00    +0.000 A 
ATOM      4  C   UNL     1      -1.089  12.657  21.459  0.00  0.00    +0.000 A 
ATOM      5  C   UNL     1      -2.344  12.814  22.106  0.00  0.00    +0.000 A 
ATOM      6  C   UNL     1      -2.734  11.992  23.169  0.00  0.00    +0.000 A 
ATOM      7  N   UNL     1      -1.986  10.990  23.647  0.00  0.00    +0.000 NA
ATOM      8  C   UNL     1      -0.834  10.817  22.992  0.00  0.00    +0.000 A 
ATOM      9  O   UNL     1       0.012   9.814  23.423  0.00  0.00    +0.000 OA
ENDROOT
BRANCH   4  10
ATOM     10  C   UNL     1      -0.652  13.690  20.451  0.00  0.00    +0.000 A 
ATOM     11  C   UNL     1      -0.562  15.035  20.910  0.00  0.00    +0.000 A 
ATOM     12  C   UNL     1      -0.247  16.117  20.079  0.00  0.00    +0.000 A 
ATOM     13  C   UNL     1      -0.026  15.909  18.733  0.00  0.00    +0.000 A 
ATOM     14  C   UNL     1      -0.090  14.616  18.237  0.00  0.00    +0.000 A 
ATOM     15  C   UNL     1      -0.326  13.506  19.084  0.00  0.00    +0.000 A 
BRANCH  15  16
ATOM     16  O   UNL     1      -0.287  12.250  18.507  0.00  0.00    +0.000 OA
BRANCH  16  17
ATOM     17  C   UNL     1      -1.487  11.623  18.189  0.00  0.00    +0.000 A 
ATOM     18  C   UNL     1      -2.753  12.194  18.387  0.00  0.00    +0.000 A 
ATOM     19  C   UNL     1      -3.908  11.455  18.115  0.00  0.00    +0.000 A 
ATOM     20  C   UNL     1      -3.808  10.167  17.591  0.00  0.00    +0.000 A 
ATOM     21  C   UNL     1      -2.553   9.625  17.323  0.00  0.00    +0.000 A 
ATOM     22  C   UNL     1      -1.394  10.353  17.614  0.00  0.00    +0.000 A 
ENDBRANCH  16  17
ENDBRANCH  15  16
ENDBRANCH   4  10
BRANCH   1  24
ATOM     23  O   UNL     1      -0.367   8.073  21.276  0.00  0.00    +0.000 OA
ATOM     24  C   UNL     1       0.766   8.487  21.500  0.00  0.00    +0.000 C 
ATOM     25  N   UNL     1       1.938   7.958  20.977  0.00  0.00    +0.000 N 
ATOM     26  H   UNL     1       2.799   8.326  21.375  0.00  0.00    +0.000 HD
BRANCH  25  27
ATOM     27  C   UNL     1       2.032   6.860  20.098  0.00  0.00    +0.000 A 
ATOM     28  C   UNL     1       2.449   6.980  18.768  0.00  0.00    +0.000 A 
ATOM     29  C   UNL     1       2.496   5.870  17.928  0.00  0.00    +0.000 A 
ATOM     30  C   UNL     1       2.129   4.618  18.406  0.00  0.00    +0.000 A 
ATOM     31  C   UNL     1       1.724   4.465  19.739  0.00  0.00    +0.000 A 
ATOM     32  C   UNL     1       1.689   5.593  20.583  0.00  0.00    +0.000 A 
BRANCH  31  33
ATOM     33  C   UNL     1       1.311   3.111  20.262  0.00  0.00    +0.000 C 
ATOM     34  F   UNL     1       2.287   2.166  20.158  0.00  0.00    +0.000 F 
ATOM     35  F   UNL     1       0.964   3.143  21.579  0.00  0.00    +0.000 F 
ATOM     36  F   UNL     1       0.232   2.605  19.602  0.00  0.00    +0.000 F 
ENDBRANCH  31  33
ENDBRANCH  25  27
ENDBRANCH   1  24
TORSDOF 6
ENDMDL
MODEL 6
REMARK VINA RESULT:      -9.7      0.898      1.281
REMARK  Name = 
REMARK  6 active torsions:
REMARK  status: ('A' for Active; 'I' for Inactive)
REMARK    1  A    between atoms: C_2  and  C_14
REMARK    2  A    between atoms: N_3  and  C_4
REMARK    3  A    between atoms: C_8  and  C_9
REMARK    4  A    between atoms: C_17  and  C_18
REMARK    5  A    between atoms: C_23  and  O_24
REMARK    6  A    between atoms: O_24  and  C_25
REMARK                            x       y       z     vdW  Elec       q    Type
REMARK                         _______ _______ _______ _____ _____    ______ ____
ROOT
ATOM      1  C   UNL     1       7.712   6.356  18.355  0.00  0.00    +0.000 C 
ATOM      2  C   UNL     1       6.284   5.901  18.679  0.00  0.00    +0.000 C 
ATOM      3  C   UNL     1       5.965   5.091  17.482  0.00  0.00    +0.000 A 
ATOM      4  C   UNL     1       4.796   4.474  17.045  0.00  0.00    +0.000 A 
ATOM      5  C   UNL     1       4.940   3.805  15.799  0.00  0.00    +0.000 A 
ATOM      6  C   UNL     1       6.174   3.717  15.146  0.00  0.00    +0.000 A 
ATOM      7  N   UNL     1       7.303   4.263  15.615  0.00  0.00    +0.000 NA
ATOM      8  C   UNL     1       7.143   4.937  16.757  0.00  0.00    +0.000 A 
ATOM      9  O   UNL     1       8.256   5.524  17.324  0.00  0.00    +0.000 OA
ENDROOT
BRANCH   4  10
ATOM     10  C   UNL     1       3.487   4.371  17.784  0.00  0.00    +0.000 A 
ATOM     11  C   UNL     1       2.983   3.059  18.017  0.00  0.00    +0.000 A 
ATOM     12  C   UNL     1       1.745   2.800  18.618  0.00  0.00    +0.000 A 
ATOM     13  C   UNL     1       0.934   3.848  19.001  0.00  0.00    +0.000 A 
ATOM     14  C   UNL     1       1.382   5.145  18.807  0.00  0.00    +0.000 A 
ATOM     15  C   UNL     1       2.666   5.417  18.275  0.00  0.00    +0.000 A 
BRANCH  15  16
ATOM     16  O   UNL     1       3.053   6.743  18.201  0.00  0.00    +0.000 OA
BRANCH  16  17
ATOM     17  C   UNL     1       2.252   7.706  18.804  0.00  0.00    +0.000 A 
ATOM     18  C   UNL     1       1.953   7.740  20.174  0.00  0.00    +0.000 A 
ATOM     19  C   UNL     1       1.069   8.700  20.678  0.00  0.00    +0.000 A 
ATOM     20  C   UNL     1       0.524   9.663  19.830  0.00  0.00    +0.000 A 
ATOM     21  C   UNL     1       0.877   9.677  18.482  0.00  0.00    +0.000 A 
ATOM     22  C   UNL     1       1.744   8.707  17.970  0.00  0.00    +0.000 A 
ENDBRANCH  16  17
ENDBRANCH  15  16
ENDBRANCH   4  10
BRANCH   1  24
ATOM     23  O   UNL     1       6.969   8.278  17.099  0.00  0.00    +0.000 OA
ATOM     24  C   UNL     1       7.741   7.842  17.947  0.00  0.00    +0.000 C 
ATOM     25  N   UNL     1       8.665   8.594  18.660  0.00  0.00    +0.000 N 
ATOM     26  H   UNL     1       9.326   8.058  19.219  0.00  0.00    +0.000 HD
BRANCH  25  27
ATOM     27  C   UNL     1       8.875   9.982  18.539  0.00  0.00    +0.000 A 
ATOM     28  C   UNL     1       8.070  10.810  17.751  0.00  0.00    +0.000 A 
ATOM     29  C   UNL     1       8.336  12.174  17.637  0.00  0.00    +0.000 A 
ATOM     30  C   UNL     1       9.413  12.731  18.314  0.00  0.00    +0.000 A 
ATOM     31  C   UNL     1      10.227  11.929  19.125  0.00  0.00    +0.000 A 
ATOM     32  C   UNL     1       9.943  10.553  19.241  0.00  0.00    +0.000 A 
BRANCH  31  33
ATOM     33  C   UNL     1      11.407  12.525  19.853  0.00  0.00    +0.000 C 
ATOM     34  F   UNL     1      11.066  13.521  20.719  0.00  0.00    +0.000 F 
ATOM     35  F   UNL     1      12.083  11.604  20.594  0.00  0.00    +0.000 F 
ATOM     36  F   UNL     1      12.322  13.069  19.003  0.00  0.00    +0.000 F 
ENDBRANCH  31  33
ENDBRANCH  25  27
ENDBRANCH   1  24
TORSDOF 6
ENDMDL
MODEL 7
REMARK VINA RESULT:      -9.7      6.483     10.042
REMARK  Name = 
REMARK  6 active torsions:
REMARK  status: ('A' for Active; 'I' for Inactive)
REMARK    1  A    between atoms: C_2  and  C_14
REMARK    2  A    between atoms: N_3  and  C_4
REMARK    3  A    between atoms: C_8  and  C_9
REMARK    4  A    between atoms: C_17  and  C_18
REMARK    5  A    between atoms: C_23  and  O_24
REMARK    6  A    between atoms: O_24  and  C_25
REMARK                            x       y       z     vdW  Elec       q    Type
REMARK                         _______ _______ _______ _____ _____    ______ ____
ROOT
ATOM      1  C   UNL     1       0.809   9.647  22.600  0.00  0.00    +0.000 C 
ATOM      2  C   UNL     1       1.079  11.004  21.939  0.00  0.00    +0.000 C 
ATOM      3  C   UNL     1      -0.224  11.679  22.131  0.00  0.00    +0.000 A 
ATOM      4  C   UNL     1      -0.733  12.891  21.676  0.00  0.00    +0.000 A 
ATOM      5  C   UNL     1      -2.070  13.137  22.093  0.00  0.00    +0.000 A 
ATOM      6  C   UNL     1      -2.747  12.267  22.954  0.00  0.00    +0.000 A 
ATOM      7  N   UNL     1      -2.215  11.135  23.434  0.00  0.00    +0.000 NA
ATOM      8  C   UNL     1      -0.981  10.887  22.989  0.00  0.00    +0.000 A 
ATOM      9  O   UNL     1      -0.346   9.747  23.441  0.00  0.00    +0.000 OA
ENDROOT
BRANCH   4  10
ATOM     10  C   UNL     1      -0.001  13.959  20.904  0.00  0.00    +0.000 A 
ATOM     11  C   UNL     1       0.834  14.835  21.654  0.00  0.00    +0.000 A 
ATOM     12  C   UNL     1       1.517  15.922  21.096  0.00  0.00    +0.000 A 
ATOM     13  C   UNL     1       1.381  16.202  19.752  0.00  0.00    +0.000 A 
ATOM     14  C   UNL     1       0.589  15.373  18.973  0.00  0.00    +0.000 A 
ATOM     15  C   UNL     1      -0.040  14.224  19.512  0.00  0.00    +0.000 A 
BRANCH  15  16
ATOM     16  O   UNL     1      -0.738  13.415  18.634  0.00  0.00    +0.000 OA
BRANCH  16  17
ATOM     17  C   UNL     1      -0.291  12.115  18.425  0.00  0.00    +0.000 A 
ATOM     18  C   UNL     1       1.051  11.716  18.521  0.00  0.00    +0.000 A 
ATOM     19  C   UNL     1       1.418  10.403  18.211  0.00  0.00    +0.000 A 
ATOM     20  C   UNL     1       0.445   9.468  17.861  0.00  0.00    +0.000 A 
ATOM     21  C   UNL     1      -0.897   9.842  17.837  0.00  0.00    +0.000 A 
ATOM     22  C   UNL     1      -1.267  11.160  18.125  0.00  0.00    +0.000 A 
ENDBRANCH  16  17
ENDBRANCH  15  16
ENDBRANCH   4  10
BRANCH   1  24
ATOM     23  O   UNL     1      -0.445   8.360  20.990  0.00  0.00    +0.000 OA
ATOM     24  C   UNL     1       0.635   8.540  21.542  0.00  0.00    +0.000 C 
ATOM     25  N   UNL     1       1.806   7.845  21.270  0.00  0.00    +0.000 N 
ATOM     26  H   UNL     1       2.576   8.016  21.915  0.00  0.00    +0.000 HD
BRANCH  25  27
ATOM     27  C   UNL     1       1.960   6.820  20.316  0.00  0.00    +0.000 A 
ATOM     28  C   UNL     1       2.467   7.042  19.031  0.00  0.00    +0.000 A 
ATOM     29  C   UNL     1       2.570   6.001  18.110  0.00  0.00    +0.000 A 
ATOM     30  C   UNL     1       2.171   4.718  18.462  0.00  0.00    +0.000 A 
ATOM     31  C   UNL     1       1.675   4.463  19.748  0.00  0.00    +0.000 A 
ATOM     32  C   UNL     1       1.584   5.521  20.674  0.00  0.00    +0.000 A 
BRANCH  31  33
ATOM     33  C   UNL     1       1.226   3.074  20.132  0.00  0.00    +0.000 C 
ATOM     34  F   UNL     1       0.884   2.956  21.446  0.00  0.00    +0.000 F 
ATOM     35  F   UNL     1       0.135   2.664  19.427  0.00  0.00    +0.000 F 
ATOM     36  F   UNL     1       2.189   2.136  19.913  0.00  0.00    +0.000 F 
ENDBRANCH  31  33
ENDBRANCH  25  27
ENDBRANCH   1  24
TORSDOF 6
ENDMDL
MODEL 8
REMARK VINA RESULT:      -9.6      6.496     10.043
REMARK  Name = 
REMARK  6 active torsions:
REMARK  status: ('A' for Active; 'I' for Inactive)
REMARK    1  A    between atoms: C_2  and  C_14
REMARK    2  A    between atoms: N_3  and  C_4
REMARK    3  A    between atoms: C_8  and  C_9
REMARK    4  A    between atoms: C_17  and  C_18
REMARK    5  A    between atoms: C_23  and  O_24
REMARK    6  A    between atoms: O_24  and  C_25
REMARK                            x       y       z     vdW  Elec       q    Type
REMARK                         _______ _______ _______ _____ _____    ______ ____
ROOT
ATOM      1  C   UNL     1       0.748   9.613  22.676  0.00  0.00    +0.000 C 
ATOM      2  C   UNL     1       1.103  10.950  22.016  0.00  0.00    +0.000 C 
ATOM      3  C   UNL     1      -0.179  11.680  22.145  0.00  0.00    +0.000 A 
ATOM      4  C   UNL     1      -0.618  12.907  21.657  0.00  0.00    +0.000 A 
ATOM      5  C   UNL     1      -1.960  13.212  22.013  0.00  0.00    +0.000 A 
ATOM      6  C   UNL     1      -2.709  12.379  22.851  0.00  0.00    +0.000 A 
ATOM      7  N   UNL     1      -2.246  11.231  23.363  0.00  0.00    +0.000 NA
ATOM      8  C   UNL     1      -1.005  10.928  22.975  0.00  0.00    +0.000 A 
ATOM      9  O   UNL     1      -0.437   9.769  23.465  0.00  0.00    +0.000 OA
ENDROOT
BRANCH   4  10
ATOM     10  C   UNL     1       0.192  13.936  20.908  0.00  0.00    +0.000 A 
ATOM     11  C   UNL     1       1.174  14.646  21.655  0.00  0.00    +0.000 A 
ATOM     12  C   UNL     1       1.950  15.684  21.124  0.00  0.00    +0.000 A 
ATOM     13  C   UNL     1       1.765  16.079  19.816  0.00  0.00    +0.000 A 
ATOM     14  C   UNL     1       0.829  15.413  19.041  0.00  0.00    +0.000 A 
ATOM     15  C   UNL     1       0.098  14.309  19.545  0.00  0.00    +0.000 A 
BRANCH  15  16
ATOM     16  O   UNL     1      -0.750  13.658  18.666  0.00  0.00    +0.000 OA
BRANCH  16  17
ATOM     17  C   UNL     1      -0.531  12.310  18.403  0.00  0.00    +0.000 A 
ATOM     18  C   UNL     1      -1.536  11.405  18.031  0.00  0.00    +0.000 A 
ATOM     19  C   UNL     1      -1.236  10.049  17.868  0.00  0.00    +0.000 A 
ATOM     20  C   UNL     1       0.075   9.599  18.019  0.00  0.00    +0.000 A 
ATOM     21  C   UNL     1       1.088  10.508  18.316  0.00  0.00    +0.000 A 
ATOM     22  C   UNL     1       0.789  11.862  18.501  0.00  0.00    +0.000 A 
ENDBRANCH  16  17
ENDBRANCH  15  16
ENDBRANCH   4  10
BRANCH   1  24
ATOM     23  O   UNL     1      -0.524   8.266  21.131  0.00  0.00    +0.000 OA
ATOM     24  C   UNL     1       0.575   8.502  21.622  0.00  0.00    +0.000 C 
ATOM     25  N   UNL     1       1.765   7.874  21.279  0.00  0.00    +0.000 N 
ATOM     26  H   UNL     1       2.559   8.084  21.880  0.00  0.00    +0.000 HD
BRANCH  25  27
ATOM     27  C   UNL     1       1.919   6.863  20.310  0.00  0.00    +0.000 A 
ATOM     28  C   UNL     1       2.388   7.111  19.015  0.00  0.00    +0.000 A 
ATOM     29  C   UNL     1       2.493   6.083  18.080  0.00  0.00    +0.000 A 
ATOM     30  C   UNL     1       2.135   4.787  18.428  0.00  0.00    +0.000 A 
ATOM     31  C   UNL     1       1.679   4.505  19.723  0.00  0.00    +0.000 A 
ATOM     32  C   UNL     1       1.585   5.551  20.663  0.00  0.00    +0.000 A 
BRANCH  31  33
ATOM     33  C   UNL     1       1.275   3.102  20.103  0.00  0.00    +0.000 C 
ATOM     34  F   UNL     1       0.250   2.608  19.353  0.00  0.00    +0.000 F 
ATOM     35  F   UNL     1       2.295   2.210  19.969  0.00  0.00    +0.000 F 
ATOM     36  F   UNL     1       0.865   3.011  21.398  0.00  0.00    +0.000 F 
ENDBRANCH  31  33
ENDBRANCH  25  27
ENDBRANCH   1  24
TORSDOF 6
ENDMDL
MODEL 9
REMARK VINA RESULT:      -9.6      4.321      7.939
REMARK  Name = 
REMARK  6 active torsions:
REMARK  status: ('A' for Active; 'I' for Inactive)
REMARK    1  A    between atoms: C_2  and  C_14
REMARK    2  A    between atoms: N_3  and  C_4
REMARK    3  A    between atoms: C_8  and  C_9
REMARK    4  A    between atoms: C_17  and  C_18
REMARK    5  A    between atoms: C_23  and  O_24
REMARK    6  A    between atoms: O_24  and  C_25
REMARK                            x       y       z     vdW  Elec       q    Type
REMARK                         _______ _______ _______ _____ _____    ______ ____
ROOT
ATOM      1  C   UNL     1       1.274   9.077  18.019  0.00  0.00    +0.000 C 
ATOM      2  C   UNL     1       0.259   9.696  18.988  0.00  0.00    +0.000 C 
ATOM      3  C   UNL     1       0.858  11.030  19.213  0.00  0.00    +0.000 A 
ATOM      4  C   UNL     1       0.536  12.075  20.074  0.00  0.00    +0.000 A 
ATOM      5  C   UNL     1       1.414  13.187  19.970  0.00  0.00    +0.000 A 
ATOM      6  C   UNL     1       2.439  13.233  19.018  0.00  0.00    +0.000 A 
ATOM      7  N   UNL     1       2.694  12.242  18.154  0.00  0.00    +0.000 NA
ATOM      8  C   UNL     1       1.898  11.179  18.300  0.00  0.00    +0.000 A 
ATOM      9  O   UNL     1       2.077  10.113  17.442  0.00  0.00    +0.000 OA
ENDROOT
BRANCH   4  10
ATOM     10  C   UNL     1      -0.658  12.170  20.989  0.00  0.00    +0.000 A 
ATOM     11  C   UNL     1      -0.459  11.787  22.346  0.00  0.00    +0.000 A 
ATOM     12  C   UNL     1      -1.485  11.745  23.298  0.00  0.00    +0.000 A 
ATOM     13  C   UNL     1      -2.776  12.066  22.931  0.00  0.00    +0.000 A 
ATOM     14  C   UNL     1      -3.022  12.456  21.624  0.00  0.00    +0.000 A 
ATOM     15  C   UNL     1      -1.978  12.581  20.676  0.00  0.00    +0.000 A 
BRANCH  15  16
ATOM     16  O   UNL     1      -2.315  13.059  19.423  0.00  0.00    +0.000 OA
BRANCH  16  17
ATOM     17  C   UNL     1      -2.766  12.159  18.464  0.00  0.00    +0.000 A 
ATOM     18  C   UNL     1      -1.986  11.681  17.400  0.00  0.00    +0.000 A 
ATOM     19  C   UNL     1      -2.551  10.842  16.435  0.00  0.00    +0.000 A 
ATOM     20  C   UNL     1      -3.877  10.429  16.556  0.00  0.00    +0.000 A 
ATOM     21  C   UNL     1      -4.632  10.842  17.651  0.00  0.00    +0.000 A 
ATOM     22  C   UNL     1      -4.078  11.699  18.608  0.00  0.00    +0.000 A 
ENDBRANCH  16  17
ENDBRANCH  15  16
ENDBRANCH   4  10
BRANCH   1  24
ATOM     23  O   UNL     1       2.120   7.901  19.948  0.00  0.00    +0.000 OA
ATOM     24  C   UNL     1       2.146   8.022  18.728  0.00  0.00    +0.000 C 
ATOM     25  N   UNL     1       2.883   7.235  17.853  0.00  0.00    +0.000 N 
ATOM     26  H   UNL     1       2.906   7.558  16.888  0.00  0.00    +0.000 HD
BRANCH  25  27
ATOM     27  C   UNL     1       3.724   6.163  18.211  0.00  0.00    +0.000 A 
ATOM     28  C   UNL     1       3.248   4.973  18.772  0.00  0.00    +0.000 A 
ATOM     29  C   UNL     1       4.122   3.952  19.140  0.00  0.00    +0.000 A 
ATOM     30  C   UNL     1       5.489   4.104  18.948  0.00  0.00    +0.000 A 
ATOM     31  C   UNL     1       5.994   5.278  18.372  0.00  0.00    +0.000 A 
ATOM     32  C   UNL     1       5.100   6.300  17.995  0.00  0.00    +0.000 A 
BRANCH  31  33
ATOM     33  C   UNL     1       7.479   5.455  18.173  0.00  0.00    +0.000 C 
ATOM     34  F   UNL     1       7.802   6.536  17.409  0.00  0.00    +0.000 F 
ATOM     35  F   UNL     1       8.147   5.619  19.349  0.00  0.00    +0.000 F 
ATOM     36  F   UNL     1       8.054   4.383  17.561  0.00  0.00    +0.000 F 
ENDBRANCH  31  33
ENDBRANCH  25  27
ENDBRANCH   1  24
TORSDOF 6
ENDMDL
