MODEL 1
REMARK VINA RESULT:      -7.0      0.000      0.000
REMARK  Name = 
REMARK  3 active torsions:
REMARK  status: ('A' for Active; 'I' for Inactive)
REMARK    1  A    between atoms: C_3  and  C_4
REMARK    2  A    between atoms: C_4  and  N_5
REMARK    3  A    between atoms: C_9  and  C_10
REMARK                            x       y       z     vdW  Elec       q    Type
REMARK                         _______ _______ _______ _____ _____    ______ ____
ROOT
ATOM      1  N   UNL     1       4.981   5.070  18.080  0.00  0.00    +0.000 N 
ATOM      2  N   UNL     1       6.053   4.381  18.522  0.00  0.00    +0.000 NA
ATOM      3  N   UNL     1       5.601   3.609  19.493  0.00  0.00    +0.000 NA
ATOM      4  N   UNL     1       4.261   3.801  19.683  0.00  0.00    +0.000 NA
ATOM      5  C   UNL     1       3.871   4.722  18.818  0.00  0.00    +0.000 A 
ENDROOT
BRANCH   5   6
ATOM      6  C   UNL     1       2.472   5.255  18.671  0.00  0.00    +0.000 C 
ATOM      7  C   UNL     1       1.596   4.350  17.787  0.00  0.00    +0.000 C 
ATOM      8  C   UNL     1       1.202   3.026  18.448  0.00  0.00    +0.000 C 
ATOM      9  C   UNL     1       0.678   3.167  19.876  0.00  0.00    +0.000 C 
ATOM     10  C   UNL     1       1.465   4.142  20.745  0.00  0.00    +0.000 C 
ATOM     11  C   UNL     1       1.782   5.453  20.029  0.00  0.00    +0.000 C 
ENDBRANCH   5   6
BRANCH   1  12
ATOM     12  C   UNL     1       5.164   6.002  16.991  0.00  0.00    +0.000 C 
BRANCH  12  15
ATOM     13  C   UNL     1       7.371   5.029  14.331  0.00  0.00    +0.000 A 
ATOM     14  N   UNL     1       7.046   5.670  15.425  0.00  0.00    +0.000 NA
ATOM     15  C   UNL     1       5.753   5.327  15.807  0.00  0.00    +0.000 A 
ATOM     16  C   UNL     1       5.150   4.375  15.003  0.00  0.00    +0.000 A 
ATOM     17  S   UNL     1       6.196   3.948  13.709  0.00  0.00    +0.000 S 
ENDBRANCH  12  15
ENDBRANCH   1  12
TORSDOF 3
ENDMDL
MODEL 2
REMARK VINA RESULT:      -7.0      1.476      2.252
REMARK  Name = 
REMARK  3 active torsions:
REMARK  status: ('A' for Active; 'I' for Inactive)
REMARK    1  A    between atoms: C_3  and  C_4
REMARK    2  A    between atoms: C_4  and  N_5
REMARK    3  A    between atoms: C_9  and  C_10
REMARK                            x       y       z     vdW  Elec       q    Type
REMARK                         _______ _______ _______ _____ _____    ______ ____
ROOT
ATOM      1  N   UNL     1       4.621   5.453  18.477  0.00  0.00    +0.000 N 
ATOM      2  N   UNL     1       4.317   6.664  17.968  0.00  0.00    +0.000 NA
ATOM      3  N   UNL     1       3.072   6.901  18.336  0.00  0.00    +0.000 NA
ATOM      4  N   UNL     1       2.574   5.856  19.064  0.00  0.00    +0.000 NA
ATOM      5  C   UNL     1       3.528   4.943  19.142  0.00  0.00    +0.000 A 
ENDROOT
BRANCH   5   6
ATOM      6  C   UNL     1       3.422   3.619  19.847  0.00  0.00    +0.000 C 
ATOM      7  C   UNL     1       2.171   3.535  20.740  0.00  0.00    +0.000 C 
ATOM      8  C   UNL     1       0.857   3.416  19.963  0.00  0.00    +0.000 C 
ATOM      9  C   UNL     1       0.877   2.369  18.850  0.00  0.00    +0.000 C 
ATOM     10  C   UNL     1       2.154   2.358  18.015  0.00  0.00    +0.000 C 
ATOM     11  C   UNL     1       3.420   2.438  18.865  0.00  0.00    +0.000 C 
ENDBRANCH   5   6
BRANCH   1  12
ATOM     12  C   UNL     1       5.945   4.923  18.246  0.00  0.00    +0.000 C 
BRANCH  12  15
ATOM     13  C   UNL     1       7.296   4.945  14.919  0.00  0.00    +0.000 A 
ATOM     14  N   UNL     1       7.297   5.218  16.200  0.00  0.00    +0.000 NA
ATOM     15  C   UNL     1       6.171   4.667  16.801  0.00  0.00    +0.000 A 
ATOM     16  C   UNL     1       5.366   3.931  15.948  0.00  0.00    +0.000 A 
ATOM     17  S   UNL     1       5.997   3.984  14.352  0.00  0.00    +0.000 S 
ENDBRANCH  12  15
ENDBRANCH   1  12
TORSDOF 3
ENDMDL
MODEL 3
REMARK VINA RESULT:      -6.9      1.113      1.464
REMARK  Name = 
REMARK  3 active torsions:
REMARK  status: ('A' for Active; 'I' for Inactive)
REMARK    1  A    between atoms: C_3  and  C_4
REMARK    2  A    between atoms: C_4  and  N_5
REMARK    3  A    between atoms: C_9  and  C_10
REMARK                            x       y       z     vdW  Elec       q    Type
REMARK                         _______ _______ _______ _____ _____    ______ ____
ROOT
ATOM      1  N   UNL     1       5.430   5.313  17.753  0.00  0.00    +0.000 N 
ATOM      2  N   UNL     1       6.426   5.693  18.578  0.00  0.00    +0.000 NA
ATOM      3  N   UNL     1       6.380   4.857  19.598  0.00  0.00    +0.000 NA
ATOM      4  N   UNL     1       5.365   3.955  19.441  0.00  0.00    +0.000 NA
ATOM      5  C   UNL     1       4.758   4.243  18.301  0.00  0.00    +0.000 A 
ENDROOT
BRANCH   5   6
ATOM      6  C   UNL     1       3.575   3.513  17.725  0.00  0.00    +0.000 C 
ATOM      7  C   UNL     1       3.282   2.201  18.474  0.00  0.00    +0.000 C 
ATOM      8  C   UNL     1       2.690   2.401  19.873  0.00  0.00    +0.000 C 
ATOM      9  C   UNL     1       1.537   3.401  19.930  0.00  0.00    +0.000 C 
ATOM     10  C   UNL     1       1.756   4.667  19.108  0.00  0.00    +0.000 C 
ATOM     11  C   UNL     1       2.308   4.381  17.713  0.00  0.00    +0.000 C 
ENDBRANCH   5   6
BRANCH   1  12
ATOM     12  C   UNL     1       5.238   6.047  16.523  0.00  0.00    +0.000 C 
BRANCH  12  15
ATOM     13  C   UNL     1       7.466   4.935  13.936  0.00  0.00    +0.000 A 
ATOM     14  N   UNL     1       7.138   5.619  15.003  0.00  0.00    +0.000 NA
ATOM     15  C   UNL     1       5.831   5.320  15.372  0.00  0.00    +0.000 A 
ATOM     16  C   UNL     1       5.219   4.357  14.589  0.00  0.00    +0.000 A 
ATOM     17  S   UNL     1       6.276   3.863  13.329  0.00  0.00    +0.000 S 
ENDBRANCH  12  15
ENDBRANCH   1  12
TORSDOF 3
ENDMDL
MODEL 4
REMARK VINA RESULT:      -6.8      1.458      2.217
REMARK  Name = 
REMARK  3 active torsions:
REMARK  status: ('A' for Active; 'I' for Inactive)
REMARK    1  A    between atoms: C_3  and  C_4
REMARK    2  A    between atoms: C_4  and  N_5
REMARK    3  A    between atoms: C_9  and  C_10
REMARK                            x       y       z     vdW  Elec       q    Type
REMARK                         _______ _______ _______ _____ _____    ______ ____
ROOT
ATOM      1  N   UNL     1       4.637   5.132  17.908  0.00  0.00    +0.000 N 
ATOM      2  N   UNL     1       4.338   6.441  17.786  0.00  0.00    +0.000 NA
ATOM      3  N   UNL     1       3.048   6.536  18.050  0.00  0.00    +0.000 NA
ATOM      4  N   UNL     1       2.518   5.308  18.330  0.00  0.00    +0.000 NA
ATOM      5  C   UNL     1       3.497   4.425  18.227  0.00  0.00    +0.000 A 
ENDROOT
BRANCH   5   6
ATOM      6  C   UNL     1       3.372   2.942  18.444  0.00  0.00    +0.000 C 
ATOM      7  C   UNL     1       3.830   2.520  19.851  0.00  0.00    +0.000 C 
ATOM      8  C   UNL     1       2.869   2.934  20.969  0.00  0.00    +0.000 C 
ATOM      9  C   UNL     1       1.402   2.613  20.689  0.00  0.00    +0.000 C 
ATOM     10  C   UNL     1       0.947   2.922  19.266  0.00  0.00    +0.000 C 
ATOM     11  C   UNL     1       1.939   2.441  18.209  0.00  0.00    +0.000 C 
ENDBRANCH   5   6
BRANCH   1  12
ATOM     12  C   UNL     1       6.002   4.714  17.686  0.00  0.00    +0.000 C 
BRANCH  12  15
ATOM     13  C   UNL     1       7.287   5.169  14.364  0.00  0.00    +0.000 A 
ATOM     14  N   UNL     1       7.220   5.403  15.651  0.00  0.00    +0.000 NA
ATOM     15  C   UNL     1       6.282   4.560  16.236  0.00  0.00    +0.000 A 
ATOM     16  C   UNL     1       5.698   3.657  15.365  0.00  0.00    +0.000 A 
ATOM     17  S   UNL     1       6.286   3.911  13.771  0.00  0.00    +0.000 S 
ENDBRANCH  12  15
ENDBRANCH   1  12
TORSDOF 3
ENDMDL
MODEL 5
REMARK VINA RESULT:      -6.7      0.756      1.381
REMARK  Name = 
REMARK  3 active torsions:
REMARK  status: ('A' for Active; 'I' for Inactive)
REMARK    1  A    between atoms: C_3  and  C_4
REMARK    2  A    between atoms: C_4  and  N_5
REMARK    3  A    between atoms: C_9  and  C_10
REMARK                            x       y       z     vdW  Elec       q    Type
REMARK                         _______ _______ _______ _____ _____    ______ ____
ROOT
ATOM      1  N   UNL     1       5.315   5.215  17.745  0.00  0.00    +0.000 N 
ATOM      2  N   UNL     1       6.365   4.652  18.376  0.00  0.00    +0.000 NA
ATOM      3  N   UNL     1       5.843   3.896  19.324  0.00  0.00    +0.000 NA
ATOM      4  N   UNL     1       4.479   3.974  19.313  0.00  0.00    +0.000 NA
ATOM      5  C   UNL     1       4.142   4.808  18.343  0.00  0.00    +0.000 A 
ENDROOT
BRANCH   5   6
ATOM      6  C   UNL     1       2.740   5.202  17.968  0.00  0.00    +0.000 C 
ATOM      7  C   UNL     1       1.686   4.301  18.637  0.00  0.00    +0.000 C 
ATOM      8  C   UNL     1       1.530   4.537  20.142  0.00  0.00    +0.000 C 
ATOM      9  C   UNL     1       1.409   6.007  20.539  0.00  0.00    +0.000 C 
ATOM     10  C   UNL     1       2.371   6.941  19.811  0.00  0.00    +0.000 C 
ATOM     11  C   UNL     1       2.439   6.669  18.310  0.00  0.00    +0.000 C 
ENDBRANCH   5   6
BRANCH   1  12
ATOM     12  C   UNL     1       5.575   6.100  16.633  0.00  0.00    +0.000 C 
BRANCH  12  15
ATOM     13  C   UNL     1       7.456   4.881  13.827  0.00  0.00    +0.000 A 
ATOM     14  N   UNL     1       7.272   5.594  14.911  0.00  0.00    +0.000 NA
ATOM     15  C   UNL     1       6.010   5.337  15.436  0.00  0.00    +0.000 A 
ATOM     16  C   UNL     1       5.287   4.377  14.750  0.00  0.00    +0.000 A 
ATOM     17  S   UNL     1       6.176   3.831  13.386  0.00  0.00    +0.000 S 
ENDBRANCH  12  15
ENDBRANCH   1  12
TORSDOF 3
ENDMDL
MODEL 6
REMARK VINA RESULT:      -6.6      1.675      2.515
REMARK  Name = 
REMARK  3 active torsions:
REMARK  status: ('A' for Active; 'I' for Inactive)
REMARK    1  A    between atoms: C_3  and  C_4
REMARK    2  A    between atoms: C_4  and  N_5
REMARK    3  A    between atoms: C_9  and  C_10
REMARK                            x       y       z     vdW  Elec       q    Type
REMARK                         _______ _______ _______ _____ _____    ______ ____
ROOT
ATOM      1  N   UNL     1       4.437   5.529  18.672  0.00  0.00    +0.000 N 
ATOM      2  N   UNL     1       4.098   6.724  18.145  0.00  0.00    +0.000 NA
ATOM      3  N   UNL     1       2.835   6.912  18.478  0.00  0.00    +0.000 NA
ATOM      4  N   UNL     1       2.360   5.853  19.201  0.00  0.00    +0.000 NA
ATOM      5  C   UNL     1       3.347   4.980  19.312  0.00  0.00    +0.000 A 
ENDROOT
BRANCH   5   6
ATOM      6  C   UNL     1       3.275   3.657  20.024  0.00  0.00    +0.000 C 
ATOM      7  C   UNL     1       1.971   3.499  20.824  0.00  0.00    +0.000 C 
ATOM      8  C   UNL     1       0.728   3.287  19.954  0.00  0.00    +0.000 C 
ATOM      9  C   UNL     1       0.898   2.235  18.859  0.00  0.00    +0.000 C 
ATOM     10  C   UNL     1       2.231   2.301  18.120  0.00  0.00    +0.000 C 
ATOM     11  C   UNL     1       3.423   2.471  19.059  0.00  0.00    +0.000 C 
ENDBRANCH   5   6
BRANCH   1  12
ATOM     12  C   UNL     1       5.787   5.051  18.481  0.00  0.00    +0.000 C 
BRANCH  12  15
ATOM     13  C   UNL     1       5.779   3.735  15.140  0.00  0.00    +0.000 A 
ATOM     14  N   UNL     1       5.351   3.839  16.373  0.00  0.00    +0.000 NA
ATOM     15  C   UNL     1       6.071   4.823  17.041  0.00  0.00    +0.000 A 
ATOM     16  C   UNL     1       7.002   5.485  16.259  0.00  0.00    +0.000 A 
ATOM     17  S   UNL     1       7.021   4.819  14.676  0.00  0.00    +0.000 S 
ENDBRANCH  12  15
ENDBRANCH   1  12
TORSDOF 3
ENDMDL
MODEL 7
REMARK VINA RESULT:      -6.6      2.591      3.268
REMARK  Name = 
REMARK  3 active torsions:
REMARK  status: ('A' for Active; 'I' for Inactive)
REMARK    1  A    between atoms: C_3  and  C_4
REMARK    2  A    between atoms: C_4  and  N_5
REMARK    3  A    between atoms: C_9  and  C_10
REMARK                            x       y       z     vdW  Elec       q    Type
REMARK                         _______ _______ _______ _____ _____    ______ ____
ROOT
ATOM      1  N   UNL     1       3.344   6.354  18.311  0.00  0.00    +0.000 N 
ATOM      2  N   UNL     1       2.803   7.587  18.236  0.00  0.00    +0.000 NA
ATOM      3  N   UNL     1       2.011   7.690  19.287  0.00  0.00    +0.000 NA
ATOM      4  N   UNL     1       2.030   6.540  20.026  0.00  0.00    +0.000 NA
ATOM      5  C   UNL     1       2.846   5.697  19.415  0.00  0.00    +0.000 A 
ENDROOT
BRANCH   5   6
ATOM      6  C   UNL     1       3.169   4.300  19.871  0.00  0.00    +0.000 C 
ATOM      7  C   UNL     1       2.171   3.788  20.925  0.00  0.00    +0.000 C 
ATOM      8  C   UNL     1       0.784   3.464  20.364  0.00  0.00    +0.000 C 
ATOM      9  C   UNL     1       0.802   2.623  19.088  0.00  0.00    +0.000 C 
ATOM     10  C   UNL     1       1.856   3.041  18.069  0.00  0.00    +0.000 C 
ATOM     11  C   UNL     1       3.221   3.306  18.701  0.00  0.00    +0.000 C 
ENDBRANCH   5   6
BRANCH   1  12
ATOM     12  C   UNL     1       4.279   5.950  17.287  0.00  0.00    +0.000 C 
BRANCH  12  15
ATOM     13  C   UNL     1       7.596   7.306  17.513  0.00  0.00    +0.000 A 
ATOM     14  N   UNL     1       6.367   7.251  17.065  0.00  0.00    +0.000 NA
ATOM     15  C   UNL     1       5.677   6.227  17.704  0.00  0.00    +0.000 A 
ATOM     16  C   UNL     1       6.405   5.563  18.677  0.00  0.00    +0.000 A 
ATOM     17  S   UNL     1       8.002   6.190  18.747  0.00  0.00    +0.000 S 
ENDBRANCH  12  15
ENDBRANCH   1  12
TORSDOF 3
ENDMDL
MODEL 8
REMARK VINA RESULT:      -6.5      1.732      2.434
REMARK  Name = 
REMARK  3 active torsions:
REMARK  status: ('A' for Active; 'I' for Inactive)
REMARK    1  A    between atoms: C_3  and  C_4
REMARK    2  A    between atoms: C_4  and  N_5
REMARK    3  A    between atoms: C_9  and  C_10
REMARK                            x       y       z     vdW  Elec       q    Type
REMARK                         _______ _______ _______ _____ _____    ______ ____
ROOT
ATOM      1  N   UNL     1       4.243   5.041  18.202  0.00  0.00    +0.000 N 
ATOM      2  N   UNL     1       4.074   6.375  18.102  0.00  0.00    +0.000 NA
ATOM      3  N   UNL     1       2.796   6.590  18.348  0.00  0.00    +0.000 NA
ATOM      4  N   UNL     1       2.144   5.414  18.595  0.00  0.00    +0.000 NA
ATOM      5  C   UNL     1       3.036   4.442  18.489  0.00  0.00    +0.000 A 
ENDROOT
BRANCH   5   6
ATOM      6  C   UNL     1       2.763   2.975  18.674  0.00  0.00    +0.000 C 
ATOM      7  C   UNL     1       3.489   2.400  19.904  0.00  0.00    +0.000 C 
ATOM      8  C   UNL     1       2.898   2.850  21.243  0.00  0.00    +0.000 C 
ATOM      9  C   UNL     1       1.376   2.734  21.329  0.00  0.00    +0.000 C 
ATOM     10  C   UNL     1       0.635   3.197  20.079  0.00  0.00    +0.000 C 
ATOM     11  C   UNL     1       1.261   2.674  18.789  0.00  0.00    +0.000 C 
ENDBRANCH   5   6
BRANCH   1  12
ATOM     12  C   UNL     1       5.565   4.497  17.993  0.00  0.00    +0.000 C 
BRANCH  12  15
ATOM     13  C   UNL     1       5.563   4.181  14.417  0.00  0.00    +0.000 A 
ATOM     14  N   UNL     1       5.034   4.111  15.612  0.00  0.00    +0.000 NA
ATOM     15  C   UNL     1       5.946   4.561  16.560  0.00  0.00    +0.000 A 
ATOM     16  C   UNL     1       7.142   5.020  16.034  0.00  0.00    +0.000 A 
ATOM     17  S   UNL     1       7.148   4.824  14.327  0.00  0.00    +0.000 S 
ENDBRANCH  12  15
ENDBRANCH   1  12
TORSDOF 3
ENDMDL
MODEL 9
REMARK VINA RESULT:      -6.5      3.034      5.803
REMARK  Name = 
REMARK  3 active torsions:
REMARK  status: ('A' for Active; 'I' for Inactive)
REMARK    1  A    between atoms: C_3  and  C_4
REMARK    2  A    between atoms: C_4  and  N_5
REMARK    3  A    between atoms: C_9  and  C_10
REMARK                            x       y       z     vdW  Elec       q    Type
REMARK                         _______ _______ _______ _____ _____    ______ ____
ROOT
ATOM      1  N   UNL     1       3.205   5.339  17.670  0.00  0.00    +0.000 N 
ATOM      2  N   UNL     1       2.318   6.305  17.983  0.00  0.00    +0.000 NA
ATOM      3  N   UNL     1       2.986   7.440  17.898  0.00  0.00    +0.000 NA
ATOM      4  N   UNL     1       4.287   7.213  17.544  0.00  0.00    +0.000 NA
ATOM      5  C   UNL     1       4.435   5.905  17.416  0.00  0.00    +0.000 A 
ENDROOT
BRANCH   5   6
ATOM      6  C   UNL     1       5.708   5.196  17.043  0.00  0.00    +0.000 C 
ATOM      7  C   UNL     1       6.737   6.148  16.408  0.00  0.00    +0.000 C 
ATOM      8  C   UNL     1       7.375   7.127  17.399  0.00  0.00    +0.000 C 
ATOM      9  C   UNL     1       7.866   6.480  18.693  0.00  0.00    +0.000 C 
ATOM     10  C   UNL     1       6.911   5.451  19.288  0.00  0.00    +0.000 C 
ATOM     11  C   UNL     1       6.351   4.487  18.244  0.00  0.00    +0.000 C 
ENDBRANCH   5   6
BRANCH   1  12
ATOM     12  C   UNL     1       2.753   3.966  17.665  0.00  0.00    +0.000 C 
BRANCH  12  15
ATOM     13  C   UNL     1       0.931   3.017  20.609  0.00  0.00    +0.000 A 
ATOM     14  N   UNL     1       1.055   3.349  19.349  0.00  0.00    +0.000 NA
ATOM     15  C   UNL     1       2.399   3.518  19.035  0.00  0.00    +0.000 A 
ATOM     16  C   UNL     1       3.270   3.249  20.077  0.00  0.00    +0.000 A 
ATOM     17  S   UNL     1       2.388   2.838  21.492  0.00  0.00    +0.000 S 
ENDBRANCH  12  15
ENDBRANCH   1  12
TORSDOF 3
ENDMDL
