MODEL 1
REMARK VINA RESULT:      -7.3      0.000      0.000
REMARK  Name = 
REMARK  4 active torsions:
REMARK  status: ('A' for Active; 'I' for Inactive)
REMARK    1  A    between atoms: C_1  and  O_2
REMARK    2  A    between atoms: O_2  and  C_3
REMARK    3  A    between atoms: C_12  and  C_13
REMARK    4  A    between atoms: C_13  and  N_14
REMARK                            x       y       z     vdW  Elec       q    Type
REMARK                         _______ _______ _______ _____ _____    ______ ____
ROOT
ATOM      1  C   UNL     1       2.293   5.933  19.692  0.00  0.00    +0.000 A 
ATOM      2  C   UNL     1       1.525   5.037  20.458  0.00  0.00    +0.000 A 
ATOM      3  C   UNL     1       1.541   3.672  20.169  0.00  0.00    +0.000 A 
ATOM      4  C   UNL     1       2.338   3.183  19.133  0.00  0.00    +0.000 A 
ATOM      5  F   UNL     1       2.361   1.847  18.900  0.00  0.00    +0.000 F 
ATOM      6  C   UNL     1       3.111   4.066  18.354  0.00  0.00    +0.000 A 
ATOM      7  C   UNL     1       3.072   5.445  18.620  0.00  0.00    +0.000 A 
ATOM      8  C   UNL     1       3.883   6.427  17.813  0.00  0.00    +0.000 C 
ATOM      9  C   UNL     1       4.764   5.842  16.690  0.00  0.00    +0.000 C 
ATOM     10  C   UNL     1       4.775   4.337  16.541  0.00  0.00    +0.000 C 
ATOM     11  C   UNL     1       3.999   3.538  17.295  0.00  0.00    +0.000 C 
ENDROOT
BRANCH   1  13
ATOM     12  C   UNL     1       1.420   7.948  20.744  0.00  0.00    +0.000 C 
ATOM     13  O   UNL     1       2.336   7.262  19.969  0.00  0.00    +0.000 OA
ENDBRANCH   1  13
BRANCH  10  14
ATOM     14  C   UNL     1       5.734   3.733  15.534  0.00  0.00    +0.000 C 
BRANCH  14  15
ATOM     15  N   UNL     1       5.776   4.492  14.266  0.00  0.00    +0.000 NA
ATOM     16  C   UNL     1       5.291   3.720  13.104  0.00  0.00    +0.000 C 
ATOM     17  C   UNL     1       6.524   3.381  12.277  0.00  0.00    +0.000 C 
ATOM     18  C   UNL     1       7.316   4.654  12.435  0.00  0.00    +0.000 C 
ATOM     19  C   UNL     1       7.164   4.881  13.929  0.00  0.00    +0.000 C 
ENDBRANCH  14  15
ENDBRANCH  10  14
TORSDOF 3
ENDMDL
MODEL 2
REMARK VINA RESULT:      -6.9      1.987      3.036
REMARK  Name = 
REMARK  4 active torsions:
REMARK  status: ('A' for Active; 'I' for Inactive)
REMARK    1  A    between atoms: C_1  and  O_2
REMARK    2  A    between atoms: O_2  and  C_3
REMARK    3  A    between atoms: C_12  and  C_13
REMARK    4  A    between atoms: C_13  and  N_14
REMARK                            x       y       z     vdW  Elec       q    Type
REMARK                         _______ _______ _______ _____ _____    ______ ____
ROOT
ATOM      1  C   UNL     1       1.776   4.236  19.408  0.00  0.00    +0.000 A 
ATOM      2  C   UNL     1       1.489   2.902  19.754  0.00  0.00    +0.000 A 
ATOM      3  C   UNL     1       2.196   1.855  19.164  0.00  0.00    +0.000 A 
ATOM      4  C   UNL     1       3.211   2.125  18.244  0.00  0.00    +0.000 A 
ATOM      5  F   UNL     1       3.906   1.086  17.715  0.00  0.00    +0.000 F 
ATOM      6  C   UNL     1       3.510   3.453  17.884  0.00  0.00    +0.000 A 
ATOM      7  C   UNL     1       2.776   4.509  18.451  0.00  0.00    +0.000 A 
ATOM      8  C   UNL     1       3.061   5.946  18.096  0.00  0.00    +0.000 C 
ATOM      9  C   UNL     1       4.203   6.199  17.089  0.00  0.00    +0.000 C 
ATOM     10  C   UNL     1       4.964   4.989  16.598  0.00  0.00    +0.000 C 
ATOM     11  C   UNL     1       4.624   3.737  16.954  0.00  0.00    +0.000 C 
ENDROOT
BRANCH   1  13
ATOM     12  C   UNL     1       1.644   6.062  21.014  0.00  0.00    +0.000 C 
ATOM     13  O   UNL     1       1.137   5.283  19.991  0.00  0.00    +0.000 OA
ENDBRANCH   1  13
BRANCH  10  14
ATOM     14  C   UNL     1       6.173   5.224  15.714  0.00  0.00    +0.000 C 
BRANCH  14  15
ATOM     15  N   UNL     1       7.393   5.528  16.493  0.00  0.00    +0.000 NA
ATOM     16  C   UNL     1       7.602   4.615  17.635  0.00  0.00    +0.000 C 
ATOM     17  C   UNL     1       7.294   5.426  18.887  0.00  0.00    +0.000 C 
ATOM     18  C   UNL     1       7.866   6.763  18.492  0.00  0.00    +0.000 C 
ATOM     19  C   UNL     1       7.320   6.885  17.080  0.00  0.00    +0.000 C 
ENDBRANCH  14  15
ENDBRANCH  10  14
TORSDOF 3
ENDMDL
MODEL 3
REMARK VINA RESULT:      -6.9      2.760      4.018
REMARK  Name = 
REMARK  4 active torsions:
REMARK  status: ('A' for Active; 'I' for Inactive)
REMARK    1  A    between atoms: C_1  and  O_2
REMARK    2  A    between atoms: O_2  and  C_3
REMARK    3  A    between atoms: C_12  and  C_13
REMARK    4  A    between atoms: C_13  and  N_14
REMARK                            x       y       z     vdW  Elec       q    Type
REMARK                         _______ _______ _______ _____ _____    ______ ____
ROOT
ATOM      1  C   UNL     1       1.912   3.671  19.630  0.00  0.00    +0.000 A 
ATOM      2  C   UNL     1       1.199   4.504  20.513  0.00  0.00    +0.000 A 
ATOM      3  C   UNL     1       1.476   5.870  20.569  0.00  0.00    +0.000 A 
ATOM      4  C   UNL     1       2.445   6.425  19.731  0.00  0.00    +0.000 A 
ATOM      5  F   UNL     1       2.666   7.763  19.783  0.00  0.00    +0.000 F 
ATOM      6  C   UNL     1       3.170   5.606  18.844  0.00  0.00    +0.000 A 
ATOM      7  C   UNL     1       2.918   4.225  18.809  0.00  0.00    +0.000 A 
ATOM      8  C   UNL     1       3.669   3.310  17.875  0.00  0.00    +0.000 C 
ATOM      9  C   UNL     1       4.718   3.967  16.954  0.00  0.00    +0.000 C 
ATOM     10  C   UNL     1       4.854   5.471  17.035  0.00  0.00    +0.000 C 
ATOM     11  C   UNL     1       4.154   6.206  17.918  0.00  0.00    +0.000 C 
ENDROOT
BRANCH   1  13
ATOM     12  C   UNL     1       0.550   1.802  18.869  0.00  0.00    +0.000 C 
ATOM     13  O   UNL     1       1.642   2.345  19.518  0.00  0.00    +0.000 OA
ENDBRANCH   1  13
BRANCH  10  14
ATOM     14  C   UNL     1       5.781   6.151  16.047  0.00  0.00    +0.000 C 
BRANCH  14  15
ATOM     15  N   UNL     1       7.165   6.263  16.553  0.00  0.00    +0.000 NA
ATOM     16  C   UNL     1       7.540   5.176  17.481  0.00  0.00    +0.000 C 
ATOM     17  C   UNL     1       7.591   5.802  18.868  0.00  0.00    +0.000 C 
ATOM     18  C   UNL     1       8.180   7.149  18.537  0.00  0.00    +0.000 C 
ATOM     19  C   UNL     1       7.347   7.516  17.321  0.00  0.00    +0.000 C 
ENDBRANCH  14  15
ENDBRANCH  10  14
TORSDOF 3
ENDMDL
MODEL 4
REMARK VINA RESULT:      -6.8      2.800      5.978
REMARK  Name = 
REMARK  4 active torsions:
REMARK  status: ('A' for Active; 'I' for Inactive)
REMARK    1  A    between atoms: C_1  and  O_2
REMARK    2  A    between atoms: O_2  and  C_3
REMARK    3  A    between atoms: C_12  and  C_13
REMARK    4  A    between atoms: C_13  and  N_14
REMARK                            x       y       z     vdW  Elec       q    Type
REMARK                         _______ _______ _______ _____ _____    ______ ____
ROOT
ATOM      1  C   UNL     1       6.349   6.481  16.701  0.00  0.00    +0.000 A 
ATOM      2  C   UNL     1       7.290   5.757  15.945  0.00  0.00    +0.000 A 
ATOM      3  C   UNL     1       7.033   4.437  15.578  0.00  0.00    +0.000 A 
ATOM      4  C   UNL     1       5.827   3.831  15.939  0.00  0.00    +0.000 A 
ATOM      5  F   UNL     1       5.590   2.557  15.536  0.00  0.00    +0.000 F 
ATOM      6  C   UNL     1       4.875   4.538  16.698  0.00  0.00    +0.000 A 
ATOM      7  C   UNL     1       5.146   5.858  17.097  0.00  0.00    +0.000 A 
ATOM      8  C   UNL     1       4.156   6.653  17.909  0.00  0.00    +0.000 C 
ATOM      9  C   UNL     1       2.830   5.952  18.270  0.00  0.00    +0.000 C 
ATOM     10  C   UNL     1       2.625   4.556  17.728  0.00  0.00    +0.000 C 
ATOM     11  C   UNL     1       3.576   3.913  17.027  0.00  0.00    +0.000 C 
ENDROOT
BRANCH   1  13
ATOM     12  C   UNL     1       7.670   8.283  17.669  0.00  0.00    +0.000 C 
ATOM     13  O   UNL     1       6.546   7.780  17.041  0.00  0.00    +0.000 OA
ENDBRANCH   1  13
BRANCH  10  14
ATOM     14  C   UNL     1       1.277   3.900  17.956  0.00  0.00    +0.000 C 
BRANCH  14  15
ATOM     15  N   UNL     1       1.245   3.086  19.190  0.00  0.00    +0.000 NA
ATOM     16  C   UNL     1       0.823   3.846  20.384  0.00  0.00    +0.000 C 
ATOM     17  C   UNL     1       2.076   4.039  21.227  0.00  0.00    +0.000 C 
ATOM     18  C   UNL     1       2.755   2.710  21.015  0.00  0.00    +0.000 C 
ATOM     19  C   UNL     1       2.592   2.563  19.512  0.00  0.00    +0.000 C 
ENDBRANCH  14  15
ENDBRANCH  10  14
TORSDOF 3
ENDMDL
MODEL 5
REMARK VINA RESULT:      -6.8      1.940      2.904
REMARK  Name = 
REMARK  4 active torsions:
REMARK  status: ('A' for Active; 'I' for Inactive)
REMARK    1  A    between atoms: C_1  and  O_2
REMARK    2  A    between atoms: O_2  and  C_3
REMARK    3  A    between atoms: C_12  and  C_13
REMARK    4  A    between atoms: C_13  and  N_14
REMARK                            x       y       z     vdW  Elec       q    Type
REMARK                         _______ _______ _______ _____ _____    ______ ____
ROOT
ATOM      1  C   UNL     1       1.898   6.218  19.969  0.00  0.00    +0.000 A 
ATOM      2  C   UNL     1       1.475   5.152  20.786  0.00  0.00    +0.000 A 
ATOM      3  C   UNL     1       1.999   3.873  20.600  0.00  0.00    +0.000 A 
ATOM      4  C   UNL     1       2.964   3.646  19.617  0.00  0.00    +0.000 A 
ATOM      5  F   UNL     1       3.481   2.398  19.485  0.00  0.00    +0.000 F 
ATOM      6  C   UNL     1       3.397   4.700  18.789  0.00  0.00    +0.000 A 
ATOM      7  C   UNL     1       2.847   5.982  18.951  0.00  0.00    +0.000 A 
ATOM      8  C   UNL     1       3.281   7.140  18.089  0.00  0.00    +0.000 C 
ATOM      9  C   UNL     1       4.363   6.849  17.028  0.00  0.00    +0.000 C 
ATOM     10  C   UNL     1       4.926   5.447  16.992  0.00  0.00    +0.000 C 
ATOM     11  C   UNL     1       4.462   4.468  17.789  0.00  0.00    +0.000 C 
ENDROOT
BRANCH   1  13
ATOM     12  C   UNL     1       1.396   8.157  21.354  0.00  0.00    +0.000 C 
ATOM     13  O   UNL     1       1.442   7.484  20.147  0.00  0.00    +0.000 OA
ENDBRANCH   1  13
BRANCH  10  14
ATOM     14  C   UNL     1       6.083   5.173  16.051  0.00  0.00    +0.000 C 
BRANCH  14  15
ATOM     15  N   UNL     1       7.391   5.521  16.645  0.00  0.00    +0.000 NA
ATOM     16  C   UNL     1       7.749   4.682  17.808  0.00  0.00    +0.000 C 
ATOM     17  C   UNL     1       7.600   5.573  19.033  0.00  0.00    +0.000 C 
ATOM     18  C   UNL     1       8.113   6.880  18.484  0.00  0.00    +0.000 C 
ATOM     19  C   UNL     1       7.389   6.913  17.149  0.00  0.00    +0.000 C 
ENDBRANCH  14  15
ENDBRANCH  10  14
TORSDOF 3
ENDMDL
MODEL 6
REMARK VINA RESULT:      -6.8      3.245      6.479
REMARK  Name = 
REMARK  4 active torsions:
REMARK  status: ('A' for Active; 'I' for Inactive)
REMARK    1  A    between atoms: C_1  and  O_2
REMARK    2  A    between atoms: O_2  and  C_3
REMARK    3  A    between atoms: C_12  and  C_13
REMARK    4  A    between atoms: C_13  and  N_14
REMARK                            x       y       z     vdW  Elec       q    Type
REMARK                         _______ _______ _______ _____ _____    ______ ____
ROOT
ATOM      1  C   UNL     1       6.335   5.657  16.174  0.00  0.00    +0.000 A 
ATOM      2  C   UNL     1       7.368   6.519  16.588  0.00  0.00    +0.000 A 
ATOM      3  C   UNL     1       7.719   6.600  17.936  0.00  0.00    +0.000 A 
ATOM      4  C   UNL     1       7.062   5.808  18.880  0.00  0.00    +0.000 A 
ATOM      5  F   UNL     1       7.450   5.883  20.178  0.00  0.00    +0.000 F 
ATOM      6  C   UNL     1       6.024   4.943  18.485  0.00  0.00    +0.000 A 
ATOM      7  C   UNL     1       5.646   4.883  17.133  0.00  0.00    +0.000 A 
ATOM      8  C   UNL     1       4.541   3.972  16.664  0.00  0.00    +0.000 C 
ATOM      9  C   UNL     1       3.855   3.102  17.737  0.00  0.00    +0.000 C 
ATOM     10  C   UNL     1       4.393   3.204  19.147  0.00  0.00    +0.000 C 
ATOM     11  C   UNL     1       5.372   4.064  19.479  0.00  0.00    +0.000 C 
ENDROOT
BRANCH   1  13
ATOM     12  C   UNL     1       6.702   4.797  13.926  0.00  0.00    +0.000 C 
ATOM     13  O   UNL     1       5.994   5.520  14.867  0.00  0.00    +0.000 OA
ENDBRANCH   1  13
BRANCH  10  14
ATOM     14  C   UNL     1       3.825   2.262  20.190  0.00  0.00    +0.000 C 
BRANCH  14  15
ATOM     15  N   UNL     1       2.695   2.857  20.936  0.00  0.00    +0.000 NA
ATOM     16  C   UNL     1       1.373   2.399  20.463  0.00  0.00    +0.000 C 
ATOM     17  C   UNL     1       0.757   3.577  19.721  0.00  0.00    +0.000 C 
ATOM     18  C   UNL     1       1.225   4.719  20.588  0.00  0.00    +0.000 C 
ATOM     19  C   UNL     1       2.680   4.329  20.783  0.00  0.00    +0.000 C 
ENDBRANCH  14  15
ENDBRANCH  10  14
TORSDOF 3
ENDMDL
MODEL 7
REMARK VINA RESULT:      -6.7      3.193      6.533
REMARK  Name = 
REMARK  4 active torsions:
REMARK  status: ('A' for Active; 'I' for Inactive)
REMARK    1  A    between atoms: C_1  and  O_2
REMARK    2  A    between atoms: O_2  and  C_3
REMARK    3  A    between atoms: C_12  and  C_13
REMARK    4  A    between atoms: C_13  and  N_14
REMARK                            x       y       z     vdW  Elec       q    Type
REMARK                         _______ _______ _______ _____ _____    ______ ____
ROOT
ATOM      1  C   UNL     1       5.993   4.357  16.313  0.00  0.00    +0.000 A 
ATOM      2  C   UNL     1       7.351   4.441  16.676  0.00  0.00    +0.000 A 
ATOM      3  C   UNL     1       7.713   4.917  17.935  0.00  0.00    +0.000 A 
ATOM      4  C   UNL     1       6.731   5.292  18.854  0.00  0.00    +0.000 A 
ATOM      5  F   UNL     1       7.114   5.717  20.084  0.00  0.00    +0.000 F 
ATOM      6  C   UNL     1       5.368   5.218  18.507  0.00  0.00    +0.000 A 
ATOM      7  C   UNL     1       5.000   4.770  17.227  0.00  0.00    +0.000 A 
ATOM      8  C   UNL     1       3.554   4.674  16.812  0.00  0.00    +0.000 C 
ATOM      9  C   UNL     1       2.501   5.080  17.864  0.00  0.00    +0.000 C 
ATOM     10  C   UNL     1       3.015   5.482  19.228  0.00  0.00    +0.000 C 
ATOM     11  C   UNL     1       4.330   5.560  19.502  0.00  0.00    +0.000 C 
ENDROOT
BRANCH   1  13
ATOM     12  C   UNL     1       6.307   3.969  13.929  0.00  0.00    +0.000 C 
ATOM     13  O   UNL     1       5.600   3.860  15.112  0.00  0.00    +0.000 OA
ENDBRANCH   1  13
BRANCH  10  14
ATOM     14  C   UNL     1       1.995   5.755  20.315  0.00  0.00    +0.000 C 
BRANCH  14  15
ATOM     15  N   UNL     1       1.379   4.517  20.839  0.00  0.00    +0.000 NA
ATOM     16  C   UNL     1       2.280   3.737  21.712  0.00  0.00    +0.000 C 
ATOM     17  C   UNL     1       2.692   2.511  20.908  0.00  0.00    +0.000 C 
ATOM     18  C   UNL     1       1.400   2.208  20.193  0.00  0.00    +0.000 C 
ATOM     19  C   UNL     1       1.012   3.603  19.734  0.00  0.00    +0.000 C 
ENDBRANCH  14  15
ENDBRANCH  10  14
TORSDOF 3
ENDMDL
MODEL 8
REMARK VINA RESULT:      -6.7      1.982      2.922
REMARK  Name = 
REMARK  4 active torsions:
REMARK  status: ('A' for Active; 'I' for Inactive)
REMARK    1  A    between atoms: C_1  and  O_2
REMARK    2  A    between atoms: O_2  and  C_3
REMARK    3  A    between atoms: C_12  and  C_13
REMARK    4  A    between atoms: C_13  and  N_14
REMARK                            x       y       z     vdW  Elec       q    Type
REMARK                         _______ _______ _______ _____ _____    ______ ____
ROOT
ATOM      1  C   UNL     1       2.416   4.381  19.932  0.00  0.00    +0.000 A 
ATOM      2  C   UNL     1       1.740   5.433  20.576  0.00  0.00    +0.000 A 
ATOM      3  C   UNL     1       1.876   6.743  20.117  0.00  0.00    +0.000 A 
ATOM      4  C   UNL     1       2.666   7.016  18.998  0.00  0.00    +0.000 A 
ATOM      5  F   UNL     1       2.750   8.295  18.553  0.00  0.00    +0.000 F 
ATOM      6  C   UNL     1       3.353   5.975  18.343  0.00  0.00    +0.000 A 
ATOM      7  C   UNL     1       3.245   4.660  18.823  0.00  0.00    +0.000 A 
ATOM      8  C   UNL     1       3.962   3.515  18.154  0.00  0.00    +0.000 C 
ATOM      9  C   UNL     1       4.809   3.858  16.911  0.00  0.00    +0.000 C 
ATOM     10  C   UNL     1       4.795   5.298  16.449  0.00  0.00    +0.000 C 
ATOM     11  C   UNL     1       4.142   6.260  17.125  0.00  0.00    +0.000 C 
ENDROOT
BRANCH   1  13
ATOM     12  C   UNL     1       2.573   2.597  21.582  0.00  0.00    +0.000 C 
ATOM     13  O   UNL     1       2.276   3.089  20.325  0.00  0.00    +0.000 OA
ENDBRANCH   1  13
BRANCH  10  14
ATOM     14  C   UNL     1       5.511   5.632  15.155  0.00  0.00    +0.000 C 
BRANCH  14  15
ATOM     15  N   UNL     1       6.207   4.464  14.574  0.00  0.00    +0.000 NA
ATOM     16  C   UNL     1       7.500   4.803  13.946  0.00  0.00    +0.000 C 
ATOM     17  C   UNL     1       7.282   4.699  12.443  0.00  0.00    +0.000 C 
ATOM     18  C   UNL     1       6.368   3.501  12.384  0.00  0.00    +0.000 C 
ATOM     19  C   UNL     1       5.396   3.849  13.499  0.00  0.00    +0.000 C 
ENDBRANCH  14  15
ENDBRANCH  10  14
TORSDOF 3
ENDMDL
MODEL 9
REMARK VINA RESULT:      -6.5      3.719      6.025
REMARK  Name = 
REMARK  4 active torsions:
REMARK  status: ('A' for Active; 'I' for Inactive)
REMARK    1  A    between atoms: C_1  and  O_2
REMARK    2  A    between atoms: O_2  and  C_3
REMARK    3  A    between atoms: C_12  and  C_13
REMARK    4  A    between atoms: C_13  and  N_14
REMARK                            x       y       z     vdW  Elec       q    Type
REMARK                         _______ _______ _______ _____ _____    ______ ____
ROOT
ATOM      1  C   UNL     1       0.213  11.400  19.624  0.00  0.00    +0.000 A 
ATOM      2  C   UNL     1      -0.334  11.792  20.860  0.00  0.00    +0.000 A 
ATOM      3  C   UNL     1      -0.288  10.930  21.955  0.00  0.00    +0.000 A 
ATOM      4  C   UNL     1       0.323   9.680  21.839  0.00  0.00    +0.000 A 
ATOM      5  F   UNL     1       0.385   8.879  22.932  0.00  0.00    +0.000 F 
ATOM      6  C   UNL     1       0.874   9.269  20.609  0.00  0.00    +0.000 A 
ATOM      7  C   UNL     1       0.799  10.122  19.495  0.00  0.00    +0.000 A 
ATOM      8  C   UNL     1       1.375   9.725  18.160  0.00  0.00    +0.000 C 
ATOM      9  C   UNL     1       2.058   8.343  18.081  0.00  0.00    +0.000 C 
ATOM     10  C   UNL     1       2.135   7.544  19.362  0.00  0.00    +0.000 C 
ATOM     11  C   UNL     1       1.572   7.970  20.506  0.00  0.00    +0.000 C 
ENDROOT
BRANCH   1  13
ATOM     12  C   UNL     1      -0.329  13.493  18.504  0.00  0.00    +0.000 C 
ATOM     13  O   UNL     1       0.224  12.227  18.548  0.00  0.00    +0.000 OA
ENDBRANCH   1  13
BRANCH  10  14
ATOM     14  C   UNL     1       2.917   6.245  19.338  0.00  0.00    +0.000 C 
BRANCH  14  15
ATOM     15  N   UNL     1       2.899   5.596  18.010  0.00  0.00    +0.000 NA
ATOM     16  C   UNL     1       1.814   4.606  17.856  0.00  0.00    +0.000 C 
ATOM     17  C   UNL     1       2.482   3.238  17.879  0.00  0.00    +0.000 C 
ATOM     18  C   UNL     1       3.746   3.539  17.114  0.00  0.00    +0.000 C 
ATOM     19  C   UNL     1       4.153   4.847  17.772  0.00  0.00    +0.000 C 
ENDBRANCH  14  15
ENDBRANCH  10  14
TORSDOF 3
ENDMDL
