MODEL 1
REMARK VINA RESULT:      -7.3      0.000      0.000
REMARK  Name = 
REMARK  2 active torsions:
REMARK  status: ('A' for Active; 'I' for Inactive)
REMARK    1  A    between atoms: C_1  and  C_2
REMARK    2  A    between atoms: N_4  and  C_5
REMARK                            x       y       z     vdW  Elec       q    Type
REMARK                         _______ _______ _______ _____ _____    ______ ____
ROOT
ATOM      1  C   UNL     1       1.514   5.741  19.987  0.00  0.00    +0.000 A 
ATOM      2  C   UNL     1       0.849   4.751  20.714  0.00  0.00    +0.000 A 
ATOM      3  C   UNL     1       1.131   3.425  20.441  0.00  0.00    +0.000 A 
ATOM      4  C   UNL     1       1.964   3.167  19.367  0.00  0.00    +0.000 A 
ATOM      5  C   UNL     1       2.055   4.098  18.331  0.00  0.00    +0.000 A 
ATOM      6  C   UNL     1       1.939   5.445  18.680  0.00  0.00    +0.000 A 
ATOM      7  C   UNL     1       2.709   3.553  17.098  0.00  0.00    +0.000 C 
ATOM      8  C   UNL     1       4.160   3.118  17.435  0.00  0.00    +0.000 C 
ATOM      9  C   UNL     1       5.079   4.152  16.866  0.00  0.00    +0.000 A 
ATOM     10  C   UNL     1       5.295   4.379  15.465  0.00  0.00    +0.000 A 
ATOM     11  C   UNL     1       5.958   5.561  15.228  0.00  0.00    +0.000 A 
ATOM     12  S   UNL     1       6.424   6.330  16.685  0.00  0.00    +0.000 S 
ATOM     13  C   UNL     1       5.706   5.106  17.625  0.00  0.00    +0.000 A 
ATOM     14  C   UNL     1       5.717   5.119  19.111  0.00  0.00    +0.000 C 
ATOM     15  C   UNL     1       4.882   3.964  19.716  0.00  0.00    +0.000 C 
ATOM     16  N   UNL     1       4.413   2.823  18.883  0.00  0.00    +0.000 NA
ATOM     17  C   UNL     1       3.158   2.211  19.476  0.00  0.00    +0.000 C 
ENDROOT
BRANCH   1  21
ATOM     18  C   UNL     1       1.917   8.844  22.074  0.00  0.00    +0.000 C 
ATOM     19  C   UNL     1       1.229   7.926  21.111  0.00  0.00    +0.000 C 
ATOM     20  O   UNL     1       0.042   8.106  20.853  0.00  0.00    +0.000 OA
ATOM     21  N   UNL     1       2.043   6.880  20.644  0.00  0.00    +0.000 N 
ATOM     22  H   UNL     1       2.922   6.751  21.131  0.00  0.00    +0.000 HD
ENDBRANCH   1  21
TORSDOF 1
ENDMDL
MODEL 2
REMARK VINA RESULT:      -6.7      2.703      4.601
REMARK  Name = 
REMARK  2 active torsions:
REMARK  status: ('A' for Active; 'I' for Inactive)
REMARK    1  A    between atoms: C_1  and  C_2
REMARK    2  A    between atoms: N_4  and  C_5
REMARK                            x       y       z     vdW  Elec       q    Type
REMARK                         _______ _______ _______ _____ _____    ______ ____
ROOT
ATOM      1  C   UNL     1       3.356   7.457  17.827  0.00  0.00    +0.000 A 
ATOM      2  C   UNL     1       4.131   7.656  16.682  0.00  0.00    +0.000 A 
ATOM      3  C   UNL     1       4.911   6.612  16.219  0.00  0.00    +0.000 A 
ATOM      4  C   UNL     1       4.969   5.475  17.003  0.00  0.00    +0.000 A 
ATOM      5  C   UNL     1       4.731   5.575  18.375  0.00  0.00    +0.000 A 
ATOM      6  C   UNL     1       3.798   6.530  18.786  0.00  0.00    +0.000 A 
ATOM      7  C   UNL     1       5.155   4.360  19.142  0.00  0.00    +0.000 C 
ATOM      8  C   UNL     1       4.355   3.129  18.639  0.00  0.00    +0.000 C 
ATOM      9  C   UNL     1       3.322   2.815  19.676  0.00  0.00    +0.000 A 
ATOM     10  C   UNL     1       3.602   2.305  20.988  0.00  0.00    +0.000 A 
ATOM     11  C   UNL     1       2.507   2.380  21.817  0.00  0.00    +0.000 A 
ATOM     12  S   UNL     1       1.120   2.944  20.987  0.00  0.00    +0.000 S 
ATOM     13  C   UNL     1       1.994   3.124  19.538  0.00  0.00    +0.000 A 
ATOM     14  C   UNL     1       1.377   3.623  18.281  0.00  0.00    +0.000 C 
ATOM     15  C   UNL     1       2.418   3.819  17.151  0.00  0.00    +0.000 C 
ATOM     16  N   UNL     1       3.794   3.260  17.256  0.00  0.00    +0.000 NA
ATOM     17  C   UNL     1       4.763   4.072  16.418  0.00  0.00    +0.000 C 
ENDROOT
BRANCH   1  21
ATOM     18  C   UNL     1       0.247   9.564  17.628  0.00  0.00    +0.000 C 
ATOM     19  C   UNL     1       1.680   9.273  17.949  0.00  0.00    +0.000 C 
ATOM     20  O   UNL     1       2.444  10.205  18.187  0.00  0.00    +0.000 OA
ATOM     21  N   UNL     1       2.013   7.910  17.871  0.00  0.00    +0.000 N 
ATOM     22  H   UNL     1       1.320   7.308  17.443  0.00  0.00    +0.000 HD
ENDBRANCH   1  21
TORSDOF 1
ENDMDL
MODEL 3
REMARK VINA RESULT:      -6.4      1.781      1.999
REMARK  Name = 
REMARK  2 active torsions:
REMARK  status: ('A' for Active; 'I' for Inactive)
REMARK    1  A    between atoms: C_1  and  C_2
REMARK    2  A    between atoms: N_4  and  C_5
REMARK                            x       y       z     vdW  Elec       q    Type
REMARK                         _______ _______ _______ _____ _____    ______ ____
ROOT
ATOM      1  C   UNL     1       2.151   6.831  18.817  0.00  0.00    +0.000 A 
ATOM      2  C   UNL     1       1.697   6.397  20.065  0.00  0.00    +0.000 A 
ATOM      3  C   UNL     1       2.122   5.167  20.534  0.00  0.00    +0.000 A 
ATOM      4  C   UNL     1       2.870   4.389  19.670  0.00  0.00    +0.000 A 
ATOM      5  C   UNL     1       2.734   4.569  18.293  0.00  0.00    +0.000 A 
ATOM      6  C   UNL     1       2.478   5.868  17.848  0.00  0.00    +0.000 A 
ATOM      7  C   UNL     1       3.328   3.455  17.486  0.00  0.00    +0.000 C 
ATOM      8  C   UNL     1       4.850   3.364  17.776  0.00  0.00    +0.000 C 
ATOM      9  C   UNL     1       5.564   3.938  16.592  0.00  0.00    +0.000 A 
ATOM     10  C   UNL     1       5.608   3.340  15.289  0.00  0.00    +0.000 A 
ATOM     11  C   UNL     1       6.083   4.210  14.335  0.00  0.00    +0.000 A 
ATOM     12  S   UNL     1       6.587   5.693  15.025  0.00  0.00    +0.000 S 
ATOM     13  C   UNL     1       6.133   5.186  16.584  0.00  0.00    +0.000 A 
ATOM     14  C   UNL     1       6.291   6.040  17.789  0.00  0.00    +0.000 C 
ATOM     15  C   UNL     1       5.679   5.393  19.056  0.00  0.00    +0.000 C 
ATOM     16  N   UNL     1       5.283   3.958  19.082  0.00  0.00    +0.000 NA
ATOM     17  C   UNL     1       4.184   3.728  20.103  0.00  0.00    +0.000 C 
ENDROOT
BRANCH   1  21
ATOM     18  C   UNL     1       2.268  10.553  18.287  0.00  0.00    +0.000 C 
ATOM     19  C   UNL     1       1.774   9.157  18.064  0.00  0.00    +0.000 C 
ATOM     20  O   UNL     1       0.710   8.983  17.474  0.00  0.00    +0.000 OA
ATOM     21  N   UNL     1       2.589   8.168  18.639  0.00  0.00    +0.000 N 
ATOM     22  H   UNL     1       3.301   8.498  19.280  0.00  0.00    +0.000 HD
ENDBRANCH   1  21
TORSDOF 1
ENDMDL
MODEL 4
REMARK VINA RESULT:      -6.2      9.928     11.503
REMARK  Name = 
REMARK  2 active torsions:
REMARK  status: ('A' for Active; 'I' for Inactive)
REMARK    1  A    between atoms: C_1  and  C_2
REMARK    2  A    between atoms: N_4  and  C_5
REMARK                            x       y       z     vdW  Elec       q    Type
REMARK                         _______ _______ _______ _____ _____    ______ ____
ROOT
ATOM      1  C   UNL     1       8.970  12.340  20.830  0.00  0.00    +0.000 A 
ATOM      2  C   UNL     1       9.236  10.978  20.677  0.00  0.00    +0.000 A 
ATOM      3  C   UNL     1       9.991  10.567  19.593  0.00  0.00    +0.000 A 
ATOM      4  C   UNL     1      10.324  11.529  18.658  0.00  0.00    +0.000 A 
ATOM      5  C   UNL     1       9.518  12.660  18.521  0.00  0.00    +0.000 A 
ATOM      6  C   UNL     1       8.912  13.148  19.681  0.00  0.00    +0.000 A 
ATOM      7  C   UNL     1       9.789  13.435  17.267  0.00  0.00    +0.000 C 
ATOM      8  C   UNL     1      11.258  13.933  17.277  0.00  0.00    +0.000 C 
ATOM      9  C   UNL     1      11.231  15.397  17.586  0.00  0.00    +0.000 A 
ATOM     10  C   UNL     1      10.718  16.412  16.711  0.00  0.00    +0.000 A 
ATOM     11  C   UNL     1      10.555  17.617  17.355  0.00  0.00    +0.000 A 
ATOM     12  S   UNL     1      11.130  17.557  18.967  0.00  0.00    +0.000 S 
ATOM     13  C   UNL     1      11.556  15.917  18.812  0.00  0.00    +0.000 A 
ATOM     14  C   UNL     1      12.163  15.133  19.919  0.00  0.00    +0.000 C 
ATOM     15  C   UNL     1      12.328  13.636  19.560  0.00  0.00    +0.000 C 
ATOM     16  N   UNL     1      12.186  13.152  18.159  0.00  0.00    +0.000 NA
ATOM     17  C   UNL     1      11.757  11.697  18.140  0.00  0.00    +0.000 C 
ENDROOT
BRANCH   1  21
ATOM     18  C   UNL     1       8.557  13.244  24.457  0.00  0.00    +0.000 C 
ATOM     19  C   UNL     1       8.098  12.836  23.091  0.00  0.00    +0.000 C 
ATOM     20  O   UNL     1       6.963  12.390  22.946  0.00  0.00    +0.000 OA
ATOM     21  N   UNL     1       9.088  12.956  22.102  0.00  0.00    +0.000 N 
ATOM     22  H   UNL     1      10.030  13.124  22.434  0.00  0.00    +0.000 HD
ENDBRANCH   1  21
TORSDOF 1
ENDMDL
MODEL 5
REMARK VINA RESULT:      -6.1     10.007     12.235
REMARK  Name = 
REMARK  2 active torsions:
REMARK  status: ('A' for Active; 'I' for Inactive)
REMARK    1  A    between atoms: C_1  and  C_2
REMARK    2  A    between atoms: N_4  and  C_5
REMARK                            x       y       z     vdW  Elec       q    Type
REMARK                         _______ _______ _______ _____ _____    ______ ____
ROOT
ATOM      1  C   UNL     1      12.017  14.922  18.469  0.00  0.00    +0.000 A 
ATOM      2  C   UNL     1      12.332  14.260  17.280  0.00  0.00    +0.000 A 
ATOM      3  C   UNL     1      11.824  12.991  17.072  0.00  0.00    +0.000 A 
ATOM      4  C   UNL     1      11.139  12.408  18.123  0.00  0.00    +0.000 A 
ATOM      5  C   UNL     1      11.415  12.813  19.430  0.00  0.00    +0.000 A 
ATOM      6  C   UNL     1      11.755  14.155  19.617  0.00  0.00    +0.000 A 
ATOM      7  C   UNL     1      10.868  11.882  20.469  0.00  0.00    +0.000 C 
ATOM      8  C   UNL     1       9.323  11.818  20.339  0.00  0.00    +0.000 C 
ATOM      9  C   UNL     1       8.747  12.618  21.465  0.00  0.00    +0.000 A 
ATOM     10  C   UNL     1       8.812  12.253  22.851  0.00  0.00    +0.000 A 
ATOM     11  C   UNL     1       8.461  13.295  23.678  0.00  0.00    +0.000 A 
ATOM     12  S   UNL     1       7.940  14.662  22.790  0.00  0.00    +0.000 S 
ATOM     13  C   UNL     1       8.222  13.875  21.307  0.00  0.00    +0.000 A 
ATOM     14  C   UNL     1       7.974  14.519  19.992  0.00  0.00    +0.000 C 
ATOM     15  C   UNL     1       8.438  13.637  18.806  0.00  0.00    +0.000 C 
ATOM     16  N   UNL     1       8.783  12.201  18.994  0.00  0.00    +0.000 NA
ATOM     17  C   UNL     1       9.769  11.747  17.934  0.00  0.00    +0.000 C 
ENDROOT
BRANCH   1  21
ATOM     18  C   UNL     1      10.085  18.133  18.148  0.00  0.00    +0.000 C 
ATOM     19  C   UNL     1      10.510  16.751  17.759  0.00  0.00    +0.000 C 
ATOM     20  O   UNL     1       9.838  16.122  16.946  0.00  0.00    +0.000 OA
ATOM     21  N   UNL     1      11.642  16.289  18.451  0.00  0.00    +0.000 N 
ATOM     22  H   UNL     1      11.934  16.846  19.246  0.00  0.00    +0.000 HD
ENDBRANCH   1  21
TORSDOF 1
ENDMDL
MODEL 6
REMARK VINA RESULT:      -6.0      2.861      4.619
REMARK  Name = 
REMARK  2 active torsions:
REMARK  status: ('A' for Active; 'I' for Inactive)
REMARK    1  A    between atoms: C_1  and  C_2
REMARK    2  A    between atoms: N_4  and  C_5
REMARK                            x       y       z     vdW  Elec       q    Type
REMARK                         _______ _______ _______ _____ _____    ______ ____
ROOT
ATOM      1  C   UNL     1       4.110   2.291  20.705  0.00  0.00    +0.000 A 
ATOM      2  C   UNL     1       2.812   2.093  21.180  0.00  0.00    +0.000 A 
ATOM      3  C   UNL     1       1.807   2.934  20.737  0.00  0.00    +0.000 A 
ATOM      4  C   UNL     1       2.186   4.004  19.946  0.00  0.00    +0.000 A 
ATOM      5  C   UNL     1       3.483   4.508  20.050  0.00  0.00    +0.000 A 
ATOM      6  C   UNL     1       4.498   3.588  20.327  0.00  0.00    +0.000 A 
ATOM      7  C   UNL     1       3.652   5.850  19.407  0.00  0.00    +0.000 C 
ATOM      8  C   UNL     1       3.338   5.738  17.892  0.00  0.00    +0.000 C 
ATOM      9  C   UNL     1       4.643   5.774  17.161  0.00  0.00    +0.000 A 
ATOM     10  C   UNL     1       5.502   6.920  17.067  0.00  0.00    +0.000 A 
ATOM     11  C   UNL     1       6.750   6.595  16.590  0.00  0.00    +0.000 A 
ATOM     12  S   UNL     1       6.848   4.945  16.142  0.00  0.00    +0.000 S 
ATOM     13  C   UNL     1       5.240   4.662  16.624  0.00  0.00    +0.000 A 
ATOM     14  C   UNL     1       4.589   3.331  16.520  0.00  0.00    +0.000 C 
ATOM     15  C   UNL     1       3.174   3.316  17.149  0.00  0.00    +0.000 C 
ATOM     16  N   UNL     1       2.469   4.578  17.509  0.00  0.00    +0.000 NA
ATOM     17  C   UNL     1       1.475   4.331  18.628  0.00  0.00    +0.000 C 
ENDROOT
BRANCH   1  21
ATOM     18  C   UNL     1       6.203  -0.834  20.665  0.00  0.00    +0.000 C 
ATOM     19  C   UNL     1       5.738   0.492  21.185  0.00  0.00    +0.000 C 
ATOM     20  O   UNL     1       6.056   0.837  22.320  0.00  0.00    +0.000 OA
ATOM     21  N   UNL     1       4.901   1.187  20.297  0.00  0.00    +0.000 N 
ATOM     22  H   UNL     1       4.560   0.659  19.502  0.00  0.00    +0.000 HD
ENDBRANCH   1  21
TORSDOF 1
ENDMDL
MODEL 7
REMARK VINA RESULT:      -5.8      9.508     13.141
REMARK  Name = 
REMARK  2 active torsions:
REMARK  status: ('A' for Active; 'I' for Inactive)
REMARK    1  A    between atoms: C_1  and  C_2
REMARK    2  A    between atoms: N_4  and  C_5
REMARK                            x       y       z     vdW  Elec       q    Type
REMARK                         _______ _______ _______ _____ _____    ______ ____
ROOT
ATOM      1  C   UNL     1      -5.640  11.939  18.274  0.00  0.00    +0.000 A 
ATOM      2  C   UNL     1      -6.649  12.430  17.443  0.00  0.00    +0.000 A 
ATOM      3  C   UNL     1      -7.669  13.175  18.005  0.00  0.00    +0.000 A 
ATOM      4  C   UNL     1      -7.688  13.275  19.385  0.00  0.00    +0.000 A 
ATOM      5  C   UNL     1      -7.087  12.276  20.152  0.00  0.00    +0.000 A 
ATOM      6  C   UNL     1      -5.949  11.668  19.619  0.00  0.00    +0.000 A 
ATOM      7  C   UNL     1      -7.471  12.328  21.600  0.00  0.00    +0.000 C 
ATOM      8  C   UNL     1      -7.022  13.685  22.203  0.00  0.00    +0.000 C 
ATOM      9  C   UNL     1      -5.812  13.420  23.044  0.00  0.00    +0.000 A 
ATOM     10  C   UNL     1      -5.812  12.683  24.276  0.00  0.00    +0.000 A 
ATOM     11  C   UNL     1      -4.539  12.353  24.681  0.00  0.00    +0.000 A 
ATOM     12  S   UNL     1      -3.350  13.030  23.652  0.00  0.00    +0.000 S 
ATOM     13  C   UNL     1      -4.535  13.727  22.649  0.00  0.00    +0.000 A 
ATOM     14  C   UNL     1      -4.203  14.529  21.444  0.00  0.00    +0.000 C 
ATOM     15  C   UNL     1      -5.462  14.932  20.637  0.00  0.00    +0.000 C 
ATOM     16  N   UNL     1      -6.829  14.788  21.208  0.00  0.00    +0.000 NA
ATOM     17  C   UNL     1      -7.853  14.621  20.100  0.00  0.00    +0.000 C 
ENDROOT
BRANCH   1  21
ATOM     18  C   UNL     1      -2.242  11.212  16.837  0.00  0.00    +0.000 C 
ATOM     19  C   UNL     1      -3.515  10.895  17.559  0.00  0.00    +0.000 C 
ATOM     20  O   UNL     1      -3.817   9.721  17.757  0.00  0.00    +0.000 OA
ATOM     21  N   UNL     1      -4.281  12.028  17.882  0.00  0.00    +0.000 N 
ATOM     22  H   UNL     1      -3.994  12.896  17.446  0.00  0.00    +0.000 HD
ENDBRANCH   1  21
TORSDOF 1
ENDMDL
MODEL 8
REMARK VINA RESULT:      -5.7      3.383      6.178
REMARK  Name = 
REMARK  2 active torsions:
REMARK  status: ('A' for Active; 'I' for Inactive)
REMARK    1  A    between atoms: C_1  and  C_2
REMARK    2  A    between atoms: N_4  and  C_5
REMARK                            x       y       z     vdW  Elec       q    Type
REMARK                         _______ _______ _______ _____ _____    ______ ____
ROOT
ATOM      1  C   UNL     1       5.448   5.776  15.699  0.00  0.00    +0.000 A 
ATOM      2  C   UNL     1       6.699   6.327  15.983  0.00  0.00    +0.000 A 
ATOM      3  C   UNL     1       7.075   6.473  17.306  0.00  0.00    +0.000 A 
ATOM      4  C   UNL     1       6.124   6.180  18.266  0.00  0.00    +0.000 A 
ATOM      5  C   UNL     1       4.770   6.274  17.941  0.00  0.00    +0.000 A 
ATOM      6  C   UNL     1       4.411   5.945  16.632  0.00  0.00    +0.000 A 
ATOM      7  C   UNL     1       3.869   6.265  19.138  0.00  0.00    +0.000 C 
ATOM      8  C   UNL     1       4.051   4.931  19.909  0.00  0.00    +0.000 C 
ATOM      9  C   UNL     1       2.853   4.082  19.619  0.00  0.00    +0.000 A 
ATOM     10  C   UNL     1       1.520   4.357  20.076  0.00  0.00    +0.000 A 
ATOM     11  C   UNL     1       0.582   3.583  19.433  0.00  0.00    +0.000 A 
ATOM     12  S   UNL     1       1.312   2.449  18.378  0.00  0.00    +0.000 S 
ATOM     13  C   UNL     1       2.870   3.021  18.752  0.00  0.00    +0.000 A 
ATOM     14  C   UNL     1       4.104   2.455  18.147  0.00  0.00    +0.000 C 
ATOM     15  C   UNL     1       5.374   3.242  18.553  0.00  0.00    +0.000 C 
ATOM     16  N   UNL     1       5.353   4.231  19.666  0.00  0.00    +0.000 NA
ATOM     17  C   UNL     1       6.433   5.278  19.468  0.00  0.00    +0.000 C 
ENDROOT
BRANCH   1  21
ATOM     18  C   UNL     1       6.138   3.255  12.995  0.00  0.00    +0.000 C 
ATOM     19  C   UNL     1       6.323   4.538  13.744  0.00  0.00    +0.000 C 
ATOM     20  O   UNL     1       7.330   5.212  13.542  0.00  0.00    +0.000 OA
ATOM     21  N   UNL     1       5.309   4.799  14.681  0.00  0.00    +0.000 N 
ATOM     22  H   UNL     1       4.678   4.031  14.877  0.00  0.00    +0.000 HD
ENDBRANCH   1  21
TORSDOF 1
ENDMDL
MODEL 9
REMARK VINA RESULT:      -5.7      7.141      9.491
REMARK  Name = 
REMARK  2 active torsions:
REMARK  status: ('A' for Active; 'I' for Inactive)
REMARK    1  A    between atoms: C_1  and  C_2
REMARK    2  A    between atoms: N_4  and  C_5
REMARK                            x       y       z     vdW  Elec       q    Type
REMARK                         _______ _______ _______ _____ _____    ______ ____
ROOT
ATOM      1  C   UNL     1      -2.488  11.253  18.120  0.00  0.00    +0.000 A 
ATOM      2  C   UNL     1      -2.001  10.098  17.504  0.00  0.00    +0.000 A 
ATOM      3  C   UNL     1      -0.714   9.684  17.794  0.00  0.00    +0.000 A 
ATOM      4  C   UNL     1       0.055  10.522  18.582  0.00  0.00    +0.000 A 
ATOM      5  C   UNL     1      -0.231  11.887  18.611  0.00  0.00    +0.000 A 
ATOM      6  C   UNL     1      -1.573  12.255  18.490  0.00  0.00    +0.000 A 
ATOM      7  C   UNL     1       0.864  12.711  19.217  0.00  0.00    +0.000 C 
ATOM      8  C   UNL     1       1.085  12.270  20.688  0.00  0.00    +0.000 C 
ATOM      9  C   UNL     1       0.483  13.323  21.565  0.00  0.00    +0.000 A 
ATOM     10  C   UNL     1       0.990  14.658  21.714  0.00  0.00    +0.000 A 
ATOM     11  C   UNL     1       0.092  15.485  22.346  0.00  0.00    +0.000 A 
ATOM     12  S   UNL     1      -1.299  14.633  22.866  0.00  0.00    +0.000 S 
ATOM     13  C   UNL     1      -0.717  13.174  22.211  0.00  0.00    +0.000 A 
ATOM     14  C   UNL     1      -1.471  11.897  22.289  0.00  0.00    +0.000 C 
ATOM     15  C   UNL     1      -0.783  10.756  21.500  0.00  0.00    +0.000 C 
ATOM     16  N   UNL     1       0.617  10.883  21.012  0.00  0.00    +0.000 NA
ATOM     17  C   UNL     1       0.838  10.005  19.794  0.00  0.00    +0.000 C 
ENDROOT
BRANCH   1  21
ATOM     18  C   UNL     1      -6.223  11.134  18.543  0.00  0.00    +0.000 C 
ATOM     19  C   UNL     1      -4.937  11.493  17.866  0.00  0.00    +0.000 C 
ATOM     20  O   UNL     1      -4.958  11.873  16.698  0.00  0.00    +0.000 OA
ATOM     21  N   UNL     1      -3.798  11.280  18.661  0.00  0.00    +0.000 N 
ATOM     22  H   UNL     1      -3.944  10.752  19.513  0.00  0.00    +0.000 HD
ENDBRANCH   1  21
TORSDOF 1
ENDMDL
