MODEL 1
REMARK VINA RESULT:      -8.0      0.000      0.000
REMARK  Name = 
REMARK  10 active torsions:
REMARK  status: ('A' for Active; 'I' for Inactive)
REMARK    1  A    between atoms: C_1  and  C_2
REMARK    2  A    between atoms: C_2  and  N_3
REMARK    3  A    between atoms: N_3  and  C_4
REMARK    4  A    between atoms: C_4  and  C_5
REMARK    5  A    between atoms: C_6  and  O_8
REMARK    6  A    between atoms: O_8  and  C_9
REMARK    7  A    between atoms: N_16  and  C_17
REMARK    8  A    between atoms: C_17  and  C_18
REMARK    9  A    between atoms: C_26  and  C_27
REMARK   10  A    between atoms: C_30  and  C_31
REMARK                            x       y       z     vdW  Elec       q    Type
REMARK                         _______ _______ _______ _____ _____    ______ ____
ROOT
ATOM      1  C   UNL     1       2.177   6.253  20.503  0.00  0.00    +0.000 A 
ATOM      2  C   UNL     1       1.174   6.944  21.191  0.00  0.00    +0.000 A 
ATOM      3  C   UNL     1       0.763   8.209  20.782  0.00  0.00    +0.000 A 
ATOM      4  C   UNL     1       1.340   8.753  19.628  0.00  0.00    +0.000 A 
ATOM      5  C   UNL     1       2.300   8.050  18.877  0.00  0.00    +0.000 A 
ATOM      6  C   UNL     1       2.574   8.879  17.740  0.00  0.00    +0.000 A 
ATOM      7  C   UNL     1       1.890  10.062  17.875  0.00  0.00    +0.000 A 
ATOM      8  N   UNL     1       1.141   9.984  19.020  0.00  0.00    +0.000 N 
ATOM      9  C   UNL     1       2.770   6.762  19.317  0.00  0.00    +0.000 A 
ENDROOT
BRANCH   9  10
ATOM     10  C   UNL     1       3.801   6.041  18.521  0.00  0.00    +0.000 A 
ATOM     11  C   UNL     1       5.166   6.090  18.863  0.00  0.00    +0.000 A 
ATOM     12  C   UNL     1       6.160   5.527  18.051  0.00  0.00    +0.000 A 
ATOM     13  C   UNL     1       5.813   4.823  16.899  0.00  0.00    +0.000 A 
ATOM     14  C   UNL     1       6.862   4.227  16.012  0.00  0.00    +0.000 C 
ATOM     15  C   UNL     1       4.460   4.676  16.590  0.00  0.00    +0.000 A 
ATOM     16  C   UNL     1       3.477   5.297  17.374  0.00  0.00    +0.000 A 
ENDBRANCH   9  10
BRANCH   1  17
ATOM     17  O   UNL     1       2.515   4.943  20.947  0.00  0.00    +0.000 OA
BRANCH  17  19
ATOM     18  N   UNL     1       2.747   2.843  19.965  0.00  0.00    +0.000 N 
ATOM     19  C   UNL     1       1.865   3.833  20.402  0.00  0.00    +0.000 C 
ATOM     20  O   UNL     1       0.648   3.758  20.255  0.00  0.00    +0.000 OA
BRANCH  18  22
ATOM     21  C   UNL     1       2.363   1.971  17.653  0.00  0.00    +0.000 C 
ATOM     22  C   UNL     1       2.207   1.758  19.149  0.00  0.00    +0.000 C 
ENDBRANCH  18  22
BRANCH  18  23
ATOM     23  C   UNL     1       4.197   2.931  20.145  0.00  0.00    +0.000 C 
ATOM     24  C   UNL     1       4.828   1.621  20.587  0.00  0.00    +0.000 C 
ENDBRANCH  18  23
ENDBRANCH  17  19
ENDBRANCH   1  17
BRANCH   8  25
ATOM     25  C   UNL     1       0.405  11.114  19.578  0.00  0.00    +0.000 C 
BRANCH  25  26
ATOM     26  C   UNL     1      -1.034  11.187  19.127  0.00  0.00    +0.000 A 
ATOM     27  C   UNL     1      -1.963  11.959  19.842  0.00  0.00    +0.000 A 
ATOM     28  C   UNL     1      -3.272  12.107  19.367  0.00  0.00    +0.000 A 
ATOM     29 CL   UNL     1      -4.383  13.095  20.236  0.00  0.00    +0.000 Cl
ATOM     30  C   UNL     1      -3.678  11.491  18.184  0.00  0.00    +0.000 A 
ATOM     31  C   UNL     1      -2.763  10.706  17.488  0.00  0.00    +0.000 A 
ATOM     32 CL   UNL     1      -3.245   9.950  16.017  0.00  0.00    +0.000 Cl
ATOM     33  C   UNL     1      -1.455  10.547  17.952  0.00  0.00    +0.000 A 
ENDBRANCH  25  26
ENDBRANCH   8  25
TORSDOF 7
ENDMDL
MODEL 2
REMARK VINA RESULT:      -7.8      0.662      1.706
REMARK  Name = 
REMARK  10 active torsions:
REMARK  status: ('A' for Active; 'I' for Inactive)
REMARK    1  A    between atoms: C_1  and  C_2
REMARK    2  A    between atoms: C_2  and  N_3
REMARK    3  A    between atoms: N_3  and  C_4
REMARK    4  A    between atoms: C_4  and  C_5
REMARK    5  A    between atoms: C_6  and  O_8
REMARK    6  A    between atoms: O_8  and  C_9
REMARK    7  A    between atoms: N_16  and  C_17
REMARK    8  A    between atoms: C_17  and  C_18
REMARK    9  A    between atoms: C_26  and  C_27
REMARK   10  A    between atoms: C_30  and  C_31
REMARK                            x       y       z     vdW  Elec       q    Type
REMARK                         _______ _______ _______ _____ _____    ______ ____
ROOT
ATOM      1  C   UNL     1       1.963   6.477  20.623  0.00  0.00    +0.000 A 
ATOM      2  C   UNL     1       1.101   7.303  21.352  0.00  0.00    +0.000 A 
ATOM      3  C   UNL     1       0.785   8.583  20.908  0.00  0.00    +0.000 A 
ATOM      4  C   UNL     1       1.310   9.007  19.681  0.00  0.00    +0.000 A 
ATOM      5  C   UNL     1       2.123   8.171  18.893  0.00  0.00    +0.000 A 
ATOM      6  C   UNL     1       2.377   8.912  17.692  0.00  0.00    +0.000 A 
ATOM      7  C   UNL     1       1.832  10.166  17.817  0.00  0.00    +0.000 A 
ATOM      8  N   UNL     1       1.184  10.222  19.023  0.00  0.00    +0.000 N 
ATOM      9  C   UNL     1       2.497   6.864  19.365  0.00  0.00    +0.000 A 
ENDROOT
BRANCH   9  10
ATOM     10  C   UNL     1       3.375   6.000  18.528  0.00  0.00    +0.000 A 
ATOM     11  C   UNL     1       4.778   6.099  18.582  0.00  0.00    +0.000 A 
ATOM     12  C   UNL     1       5.611   5.388  17.708  0.00  0.00    +0.000 A 
ATOM     13  C   UNL     1       5.068   4.488  16.793  0.00  0.00    +0.000 A 
ATOM     14  C   UNL     1       5.942   3.731  15.842  0.00  0.00    +0.000 C 
ATOM     15  C   UNL     1       3.686   4.298  16.786  0.00  0.00    +0.000 A 
ATOM     16  C   UNL     1       2.855   5.060  17.620  0.00  0.00    +0.000 A 
ENDBRANCH   9  10
BRANCH   1  17
ATOM     17  O   UNL     1       2.204   5.161  21.111  0.00  0.00    +0.000 OA
BRANCH  17  19
ATOM     18  N   UNL     1       2.119   2.895  20.578  0.00  0.00    +0.000 N 
ATOM     19  C   UNL     1       1.415   4.097  20.665  0.00  0.00    +0.000 C 
ATOM     20  O   UNL     1       0.244   4.214  20.318  0.00  0.00    +0.000 OA
BRANCH  18  22
ATOM     21  C   UNL     1       1.159   2.055  18.427  0.00  0.00    +0.000 C 
ATOM     22  C   UNL     1       1.480   1.778  19.886  0.00  0.00    +0.000 C 
ENDBRANCH  18  22
BRANCH  18  23
ATOM     23  C   UNL     1       3.515   2.754  20.996  0.00  0.00    +0.000 C 
ATOM     24  C   UNL     1       4.451   2.388  19.857  0.00  0.00    +0.000 C 
ENDBRANCH  18  23
ENDBRANCH  17  19
ENDBRANCH   1  17
BRANCH   8  25
ATOM     25  C   UNL     1       0.619  11.449  19.576  0.00  0.00    +0.000 C 
BRANCH  25  26
ATOM     26  C   UNL     1      -0.849  11.634  19.276  0.00  0.00    +0.000 A 
ATOM     27  C   UNL     1      -1.426  11.023  18.152  0.00  0.00    +0.000 A 
ATOM     28  C   UNL     1      -2.806  11.112  17.930  0.00  0.00    +0.000 A 
ATOM     29 CL   UNL     1      -3.499  10.318  16.569  0.00  0.00    +0.000 Cl
ATOM     30  C   UNL     1      -3.629  11.810  18.814  0.00  0.00    +0.000 A 
ATOM     31  C   UNL     1      -3.053  12.435  19.916  0.00  0.00    +0.000 A 
ATOM     32 CL   UNL     1      -4.058  13.287  21.024  0.00  0.00    +0.000 Cl
ATOM     33  C   UNL     1      -1.678  12.356  20.147  0.00  0.00    +0.000 A 
ENDBRANCH  25  26
ENDBRANCH   8  25
TORSDOF 7
ENDMDL
MODEL 3
REMARK VINA RESULT:      -7.8      1.909      4.304
REMARK  Name = 
REMARK  10 active torsions:
REMARK  status: ('A' for Active; 'I' for Inactive)
REMARK    1  A    between atoms: C_1  and  C_2
REMARK    2  A    between atoms: C_2  and  N_3
REMARK    3  A    between atoms: N_3  and  C_4
REMARK    4  A    between atoms: C_4  and  C_5
REMARK    5  A    between atoms: C_6  and  O_8
REMARK    6  A    between atoms: O_8  and  C_9
REMARK    7  A    between atoms: N_16  and  C_17
REMARK    8  A    between atoms: C_17  and  C_18
REMARK    9  A    between atoms: C_26  and  C_27
REMARK   10  A    between atoms: C_30  and  C_31
REMARK                            x       y       z     vdW  Elec       q    Type
REMARK                         _______ _______ _______ _____ _____    ______ ____
ROOT
ATOM      1  C   UNL     1       2.859   7.094  17.979  0.00  0.00    +0.000 A 
ATOM      2  C   UNL     1       2.949   8.372  17.417  0.00  0.00    +0.000 A 
ATOM      3  C   UNL     1       2.277   9.453  17.978  0.00  0.00    +0.000 A 
ATOM      4  C   UNL     1       1.549   9.242  19.155  0.00  0.00    +0.000 A 
ATOM      5  C   UNL     1       1.499   7.984  19.781  0.00  0.00    +0.000 A 
ATOM      6  C   UNL     1       0.751   8.189  20.987  0.00  0.00    +0.000 A 
ATOM      7  C   UNL     1       0.289   9.482  21.011  0.00  0.00    +0.000 A 
ATOM      8  N   UNL     1       0.775  10.120  19.900  0.00  0.00    +0.000 N 
ATOM      9  C   UNL     1       2.150   6.846  19.184  0.00  0.00    +0.000 A 
ENDROOT
BRANCH   9  10
ATOM     10  C   UNL     1       2.070   5.516  19.850  0.00  0.00    +0.000 A 
ATOM     11  C   UNL     1       1.370   4.441  19.271  0.00  0.00    +0.000 A 
ATOM     12  C   UNL     1       1.175   3.227  19.943  0.00  0.00    +0.000 A 
ATOM     13  C   UNL     1       1.744   3.019  21.198  0.00  0.00    +0.000 A 
ATOM     14  C   UNL     1       1.535   1.735  21.939  0.00  0.00    +0.000 C 
ATOM     15  C   UNL     1       2.525   4.034  21.753  0.00  0.00    +0.000 A 
ATOM     16  C   UNL     1       2.661   5.268  21.101  0.00  0.00    +0.000 A 
ENDBRANCH   9  10
BRANCH   1  17
ATOM     17  O   UNL     1       3.613   6.043  17.382  0.00  0.00    +0.000 OA
BRANCH  17  19
ATOM     18  N   UNL     1       5.930   6.035  17.624  0.00  0.00    +0.000 N 
ATOM     19  C   UNL     1       4.847   6.320  16.790  0.00  0.00    +0.000 C 
ATOM     20  O   UNL     1       4.972   6.825  15.678  0.00  0.00    +0.000 OA
BRANCH  18  22
ATOM     21  C   UNL     1       7.596   7.895  17.762  0.00  0.00    +0.000 C 
ATOM     22  C   UNL     1       7.248   6.518  17.221  0.00  0.00    +0.000 C 
ENDBRANCH  18  22
BRANCH  18  23
ATOM     23  C   UNL     1       5.780   5.427  18.947  0.00  0.00    +0.000 C 
ATOM     24  C   UNL     1       5.324   3.979  18.895  0.00  0.00    +0.000 C 
ENDBRANCH  18  23
ENDBRANCH  17  19
ENDBRANCH   1  17
BRANCH   8  25
ATOM     25  C   UNL     1       0.365  11.462  19.502  0.00  0.00    +0.000 C 
BRANCH  25  26
ATOM     26  C   UNL     1      -1.060  11.544  19.008  0.00  0.00    +0.000 A 
ATOM     27  C   UNL     1      -1.445  10.871  17.839  0.00  0.00    +0.000 A 
ATOM     28  C   UNL     1      -2.787  10.864  17.437  0.00  0.00    +0.000 A 
ATOM     29 CL   UNL     1      -3.244   9.994  16.023  0.00  0.00    +0.000 Cl
ATOM     30  C   UNL     1      -3.760  11.525  18.185  0.00  0.00    +0.000 A 
ATOM     31  C   UNL     1      -3.374  12.212  19.332  0.00  0.00    +0.000 A 
ATOM     32 CL   UNL     1      -4.567  13.022  20.274  0.00  0.00    +0.000 Cl
ATOM     33  C   UNL     1      -2.039  12.230  19.742  0.00  0.00    +0.000 A 
ENDBRANCH  25  26
ENDBRANCH   8  25
TORSDOF 7
ENDMDL
MODEL 4
REMARK VINA RESULT:      -7.6      0.188      1.784
REMARK  Name = 
REMARK  10 active torsions:
REMARK  status: ('A' for Active; 'I' for Inactive)
REMARK    1  A    between atoms: C_1  and  C_2
REMARK    2  A    between atoms: C_2  and  N_3
REMARK    3  A    between atoms: N_3  and  C_4
REMARK    4  A    between atoms: C_4  and  C_5
REMARK    5  A    between atoms: C_6  and  O_8
REMARK    6  A    between atoms: O_8  and  C_9
REMARK    7  A    between atoms: N_16  and  C_17
REMARK    8  A    between atoms: C_17  and  C_18
REMARK    9  A    between atoms: C_26  and  C_27
REMARK   10  A    between atoms: C_30  and  C_31
REMARK                            x       y       z     vdW  Elec       q    Type
REMARK                         _______ _______ _______ _____ _____    ______ ____
ROOT
ATOM      1  C   UNL     1       2.247   6.308  20.449  0.00  0.00    +0.000 A 
ATOM      2  C   UNL     1       1.264   6.946  21.212  0.00  0.00    +0.000 A 
ATOM      3  C   UNL     1       0.803   8.215  20.874  0.00  0.00    +0.000 A 
ATOM      4  C   UNL     1       1.311   8.818  19.717  0.00  0.00    +0.000 A 
ATOM      5  C   UNL     1       2.247   8.169  18.892  0.00  0.00    +0.000 A 
ATOM      6  C   UNL     1       2.445   9.048  17.777  0.00  0.00    +0.000 A 
ATOM      7  C   UNL     1       1.741  10.207  17.993  0.00  0.00    +0.000 A 
ATOM      8  N   UNL     1       1.052  10.066  19.168  0.00  0.00    +0.000 N 
ATOM      9  C   UNL     1       2.768   6.877  19.257  0.00  0.00    +0.000 A 
ENDROOT
BRANCH   9  10
ATOM     10  C   UNL     1       3.775   6.213  18.384  0.00  0.00    +0.000 A 
ATOM     11  C   UNL     1       3.394   5.427  17.280  0.00  0.00    +0.000 A 
ATOM     12  C   UNL     1       4.321   4.692  16.530  0.00  0.00    +0.000 A 
ATOM     13  C   UNL     1       5.682   4.778  16.814  0.00  0.00    +0.000 A 
ATOM     14  C   UNL     1       6.687   3.989  16.032  0.00  0.00    +0.000 C 
ATOM     15  C   UNL     1       6.097   5.628  17.841  0.00  0.00    +0.000 A 
ATOM     16  C   UNL     1       5.157   6.310  18.626  0.00  0.00    +0.000 A 
ENDBRANCH   9  10
BRANCH   1  17
ATOM     17  O   UNL     1       2.637   4.990  20.823  0.00  0.00    +0.000 OA
BRANCH  17  19
ATOM     18  N   UNL     1       2.789   2.882  19.844  0.00  0.00    +0.000 N 
ATOM     19  C   UNL     1       1.944   3.888  20.317  0.00  0.00    +0.000 C 
ATOM     20  O   UNL     1       0.721   3.831  20.229  0.00  0.00    +0.000 OA
BRANCH  18  22
ATOM     21  C   UNL     1       2.352   1.963  17.559  0.00  0.00    +0.000 C 
ATOM     22  C   UNL     1       2.193   1.801  19.061  0.00  0.00    +0.000 C 
ENDBRANCH  18  22
BRANCH  18  23
ATOM     23  C   UNL     1       4.247   2.947  19.954  0.00  0.00    +0.000 C 
ATOM     24  C   UNL     1       4.859   1.706  20.581  0.00  0.00    +0.000 C 
ENDBRANCH  18  23
ENDBRANCH  17  19
ENDBRANCH   1  17
BRANCH   8  25
ATOM     25  C   UNL     1       0.320  11.154  19.806  0.00  0.00    +0.000 C 
BRANCH  25  26
ATOM     26  C   UNL     1      -1.077  11.348  19.266  0.00  0.00    +0.000 A 
ATOM     27  C   UNL     1      -1.492  10.668  18.111  0.00  0.00    +0.000 A 
ATOM     28  C   UNL     1      -2.817  10.770  17.668  0.00  0.00    +0.000 A 
ATOM     29 CL   UNL     1      -3.315   9.892  16.273  0.00  0.00    +0.000 Cl
ATOM     30  C   UNL     1      -3.744  11.548  18.361  0.00  0.00    +0.000 A 
ATOM     31  C   UNL     1      -3.327  12.240  19.493  0.00  0.00    +0.000 A 
ATOM     32 CL   UNL     1      -4.464  13.194  20.368  0.00  0.00    +0.000 Cl
ATOM     33  C   UNL     1      -2.007  12.150  19.943  0.00  0.00    +0.000 A 
ENDBRANCH  25  26
ENDBRANCH   8  25
TORSDOF 7
ENDMDL
MODEL 5
REMARK VINA RESULT:      -7.6      1.866      3.982
REMARK  Name = 
REMARK  10 active torsions:
REMARK  status: ('A' for Active; 'I' for Inactive)
REMARK    1  A    between atoms: C_1  and  C_2
REMARK    2  A    between atoms: C_2  and  N_3
REMARK    3  A    between atoms: N_3  and  C_4
REMARK    4  A    between atoms: C_4  and  C_5
REMARK    5  A    between atoms: C_6  and  O_8
REMARK    6  A    between atoms: O_8  and  C_9
REMARK    7  A    between atoms: N_16  and  C_17
REMARK    8  A    between atoms: C_17  and  C_18
REMARK    9  A    between atoms: C_26  and  C_27
REMARK   10  A    between atoms: C_30  and  C_31
REMARK                            x       y       z     vdW  Elec       q    Type
REMARK                         _______ _______ _______ _____ _____    ______ ____
ROOT
ATOM      1  C   UNL     1       2.720   7.041  18.068  0.00  0.00    +0.000 A 
ATOM      2  C   UNL     1       2.792   8.316  17.498  0.00  0.00    +0.000 A 
ATOM      3  C   UNL     1       2.128   9.398  18.070  0.00  0.00    +0.000 A 
ATOM      4  C   UNL     1       1.427   9.188  19.264  0.00  0.00    +0.000 A 
ATOM      5  C   UNL     1       1.397   7.932  19.896  0.00  0.00    +0.000 A 
ATOM      6  C   UNL     1       0.675   8.139  21.117  0.00  0.00    +0.000 A 
ATOM      7  C   UNL     1       0.208   9.430  21.146  0.00  0.00    +0.000 A 
ATOM      8  N   UNL     1       0.666  10.066  20.023  0.00  0.00    +0.000 N 
ATOM      9  C   UNL     1       2.039   6.795  19.289  0.00  0.00    +0.000 A 
ENDROOT
BRANCH   9  10
ATOM     10  C   UNL     1       1.979   5.468  19.961  0.00  0.00    +0.000 A 
ATOM     11  C   UNL     1       1.241   4.397  19.421  0.00  0.00    +0.000 A 
ATOM     12  C   UNL     1       1.068   3.188  20.106  0.00  0.00    +0.000 A 
ATOM     13  C   UNL     1       1.697   2.977  21.332  0.00  0.00    +0.000 A 
ATOM     14  C   UNL     1       1.513   1.696  22.085  0.00  0.00    +0.000 C 
ATOM     15  C   UNL     1       2.515   3.985  21.843  0.00  0.00    +0.000 A 
ATOM     16  C   UNL     1       2.630   5.216  21.182  0.00  0.00    +0.000 A 
ENDBRANCH   9  10
BRANCH   1  17
ATOM     17  O   UNL     1       3.465   5.991  17.458  0.00  0.00    +0.000 OA
BRANCH  17  19
ATOM     18  N   UNL     1       5.779   5.926  17.714  0.00  0.00    +0.000 N 
ATOM     19  C   UNL     1       4.708   6.261  16.883  0.00  0.00    +0.000 C 
ATOM     20  O   UNL     1       4.852   6.800  15.790  0.00  0.00    +0.000 OA
BRANCH  18  22
ATOM     21  C   UNL     1       7.936   6.921  18.498  0.00  0.00    +0.000 C 
ATOM     22  C   UNL     1       7.110   6.394  17.336  0.00  0.00    +0.000 C 
ENDBRANCH  18  22
BRANCH  18  23
ATOM     23  C   UNL     1       5.607   5.278  19.015  0.00  0.00    +0.000 C 
ATOM     24  C   UNL     1       5.180   3.823  18.911  0.00  0.00    +0.000 C 
ENDBRANCH  18  23
ENDBRANCH  17  19
ENDBRANCH   1  17
BRANCH   8  25
ATOM     25  C   UNL     1       0.242  11.405  19.628  0.00  0.00    +0.000 C 
BRANCH  25  26
ATOM     26  C   UNL     1      -1.140  11.452  19.021  0.00  0.00    +0.000 A 
ATOM     27  C   UNL     1      -2.214  11.993  19.743  0.00  0.00    +0.000 A 
ATOM     28  C   UNL     1      -3.472  12.129  19.143  0.00  0.00    +0.000 A 
ATOM     29 CL   UNL     1      -4.765  12.837  20.034  0.00  0.00    +0.000 Cl
ATOM     30  C   UNL     1      -3.682  11.728  17.824  0.00  0.00    +0.000 A 
ATOM     31  C   UNL     1      -2.622  11.170  17.115  0.00  0.00    +0.000 A 
ATOM     32 CL   UNL     1      -2.862  10.683  15.481  0.00  0.00    +0.000 Cl
ATOM     33  C   UNL     1      -1.364  11.026  17.703  0.00  0.00    +0.000 A 
ENDBRANCH  25  26
ENDBRANCH   8  25
TORSDOF 7
ENDMDL
MODEL 6
REMARK VINA RESULT:      -7.4      2.018      3.632
REMARK  Name = 
REMARK  10 active torsions:
REMARK  status: ('A' for Active; 'I' for Inactive)
REMARK    1  A    between atoms: C_1  and  C_2
REMARK    2  A    between atoms: C_2  and  N_3
REMARK    3  A    between atoms: N_3  and  C_4
REMARK    4  A    between atoms: C_4  and  C_5
REMARK    5  A    between atoms: C_6  and  O_8
REMARK    6  A    between atoms: O_8  and  C_9
REMARK    7  A    between atoms: N_16  and  C_17
REMARK    8  A    between atoms: C_17  and  C_18
REMARK    9  A    between atoms: C_26  and  C_27
REMARK   10  A    between atoms: C_30  and  C_31
REMARK                            x       y       z     vdW  Elec       q    Type
REMARK                         _______ _______ _______ _____ _____    ______ ____
ROOT
ATOM      1  C   UNL     1       3.221   7.763  17.540  0.00  0.00    +0.000 A 
ATOM      2  C   UNL     1       3.088   9.154  17.499  0.00  0.00    +0.000 A 
ATOM      3  C   UNL     1       2.325   9.831  18.447  0.00  0.00    +0.000 A 
ATOM      4  C   UNL     1       1.737   9.088  19.477  0.00  0.00    +0.000 A 
ATOM      5  C   UNL     1       1.914   7.696  19.582  0.00  0.00    +0.000 A 
ATOM      6  C   UNL     1       1.251   7.320  20.797  0.00  0.00    +0.000 A 
ATOM      7  C   UNL     1       0.621   8.422  21.321  0.00  0.00    +0.000 A 
ATOM      8  N   UNL     1       0.918   9.493  20.521  0.00  0.00    +0.000 N 
ATOM      9  C   UNL     1       2.659   6.978  18.581  0.00  0.00    +0.000 A 
ENDROOT
BRANCH   9  10
ATOM     10  C   UNL     1       2.819   5.502  18.697  0.00  0.00    +0.000 A 
ATOM     11  C   UNL     1       3.836   4.927  19.481  0.00  0.00    +0.000 A 
ATOM     12  C   UNL     1       4.080   3.548  19.495  0.00  0.00    +0.000 A 
ATOM     13  C   UNL     1       3.259   2.681  18.777  0.00  0.00    +0.000 A 
ATOM     14  C   UNL     1       3.513   1.205  18.768  0.00  0.00    +0.000 C 
ATOM     15  C   UNL     1       2.182   3.216  18.069  0.00  0.00    +0.000 A 
ATOM     16  C   UNL     1       1.984   4.602  18.010  0.00  0.00    +0.000 A 
ENDBRANCH   9  10
BRANCH   1  17
ATOM     17  O   UNL     1       4.057   7.140  16.568  0.00  0.00    +0.000 OA
BRANCH  17  19
ATOM     18  N   UNL     1       5.913   5.735  16.498  0.00  0.00    +0.000 N 
ATOM     19  C   UNL     1       5.426   7.006  16.809  0.00  0.00    +0.000 C 
ATOM     20  O   UNL     1       6.121   7.886  17.308  0.00  0.00    +0.000 OA
BRANCH  18  22
ATOM     21  C   UNL     1       7.351   5.015  18.413  0.00  0.00    +0.000 C 
ATOM     22  C   UNL     1       7.262   5.392  16.944  0.00  0.00    +0.000 C 
ENDBRANCH  18  22
BRANCH  18  23
ATOM     23  C   UNL     1       5.085   4.687  15.898  0.00  0.00    +0.000 C 
ATOM     24  C   UNL     1       5.896   3.581  15.244  0.00  0.00    +0.000 C 
ENDBRANCH  18  23
ENDBRANCH  17  19
ENDBRANCH   1  17
BRANCH   8  25
ATOM     25  C   UNL     1       0.296  10.805  20.671  0.00  0.00    +0.000 C 
BRANCH  25  26
ATOM     26  C   UNL     1      -0.979  10.969  19.879  0.00  0.00    +0.000 A 
ATOM     27  C   UNL     1      -1.985  11.838  20.327  0.00  0.00    +0.000 A 
ATOM     28  C   UNL     1      -3.122  12.067  19.542  0.00  0.00    +0.000 A 
ATOM     29 CL   UNL     1      -4.324  13.171  20.091  0.00  0.00    +0.000 Cl
ATOM     30  C   UNL     1      -3.278  11.436  18.308  0.00  0.00    +0.000 A 
ATOM     31  C   UNL     1      -2.291  10.556  17.875  0.00  0.00    +0.000 A 
ATOM     32 CL   UNL     1      -2.461   9.781  16.347  0.00  0.00    +0.000 Cl
ATOM     33  C   UNL     1      -1.153  10.317  18.650  0.00  0.00    +0.000 A 
ENDBRANCH  25  26
ENDBRANCH   8  25
TORSDOF 7
ENDMDL
MODEL 7
REMARK VINA RESULT:      -7.4      1.713      3.994
REMARK  Name = 
REMARK  10 active torsions:
REMARK  status: ('A' for Active; 'I' for Inactive)
REMARK    1  A    between atoms: C_1  and  C_2
REMARK    2  A    between atoms: C_2  and  N_3
REMARK    3  A    between atoms: N_3  and  C_4
REMARK    4  A    between atoms: C_4  and  C_5
REMARK    5  A    between atoms: C_6  and  O_8
REMARK    6  A    between atoms: O_8  and  C_9
REMARK    7  A    between atoms: N_16  and  C_17
REMARK    8  A    between atoms: C_17  and  C_18
REMARK    9  A    between atoms: C_26  and  C_27
REMARK   10  A    between atoms: C_30  and  C_31
REMARK                            x       y       z     vdW  Elec       q    Type
REMARK                         _______ _______ _______ _____ _____    ______ ____
ROOT
ATOM      1  C   UNL     1       2.628   6.857  18.109  0.00  0.00    +0.000 A 
ATOM      2  C   UNL     1       2.752   8.112  17.505  0.00  0.00    +0.000 A 
ATOM      3  C   UNL     1       2.186   9.246  18.081  0.00  0.00    +0.000 A 
ATOM      4  C   UNL     1       1.535   9.109  19.313  0.00  0.00    +0.000 A 
ATOM      5  C   UNL     1       1.458   7.871  19.977  0.00  0.00    +0.000 A 
ATOM      6  C   UNL     1       0.812   8.151  21.227  0.00  0.00    +0.000 A 
ATOM      7  C   UNL     1       0.430   9.470  21.246  0.00  0.00    +0.000 A 
ATOM      8  N   UNL     1       0.871  10.050  20.085  0.00  0.00    +0.000 N 
ATOM      9  C   UNL     1       1.995   6.682  19.368  0.00  0.00    +0.000 A 
ENDROOT
BRANCH   9  10
ATOM     10  C   UNL     1       1.886   5.377  20.076  0.00  0.00    +0.000 A 
ATOM     11  C   UNL     1       2.607   5.112  21.256  0.00  0.00    +0.000 A 
ATOM     12  C   UNL     1       2.616   3.847  21.858  0.00  0.00    +0.000 A 
ATOM     13  C   UNL     1       1.837   2.815  21.340  0.00  0.00    +0.000 A 
ATOM     14  C   UNL     1       1.845   1.453  21.962  0.00  0.00    +0.000 C 
ATOM     15  C   UNL     1       1.035   3.078  20.228  0.00  0.00    +0.000 A 
ATOM     16  C   UNL     1       1.082   4.329  19.595  0.00  0.00    +0.000 A 
ENDBRANCH   9  10
BRANCH   1  17
ATOM     17  O   UNL     1       3.273   5.747  17.491  0.00  0.00    +0.000 OA
BRANCH  17  19
ATOM     18  N   UNL     1       5.377   4.819  17.859  0.00  0.00    +0.000 N 
ATOM     19  C   UNL     1       4.638   5.806  17.204  0.00  0.00    +0.000 C 
ATOM     20  O   UNL     1       5.153   6.674  16.505  0.00  0.00    +0.000 OA
BRANCH  18  22
ATOM     21  C   UNL     1       7.406   5.706  19.022  0.00  0.00    +0.000 C 
ATOM     22  C   UNL     1       6.834   4.934  17.845  0.00  0.00    +0.000 C 
ENDBRANCH  18  22
BRANCH  18  23
ATOM     23  C   UNL     1       4.764   3.782  18.689  0.00  0.00    +0.000 C 
ATOM     24  C   UNL     1       3.998   2.744  17.885  0.00  0.00    +0.000 C 
ENDBRANCH  18  23
ENDBRANCH  17  19
ENDBRANCH   1  17
BRANCH   8  25
ATOM     25  C   UNL     1       0.512  11.404  19.678  0.00  0.00    +0.000 C 
BRANCH  25  26
ATOM     26  C   UNL     1      -0.915  11.541  19.203  0.00  0.00    +0.000 A 
ATOM     27  C   UNL     1      -1.345  10.870  18.048  0.00  0.00    +0.000 A 
ATOM     28  C   UNL     1      -2.692  10.916  17.665  0.00  0.00    +0.000 A 
ATOM     29 CL   UNL     1      -3.206  10.049  16.269  0.00  0.00    +0.000 Cl
ATOM     30  C   UNL     1      -3.625  11.629  18.416  0.00  0.00    +0.000 A 
ATOM     31  C   UNL     1      -3.193  12.313  19.549  0.00  0.00    +0.000 A 
ATOM     32 CL   UNL     1      -4.337  13.186  20.496  0.00  0.00    +0.000 Cl
ATOM     33  C   UNL     1      -1.853  12.278  19.940  0.00  0.00    +0.000 A 
ENDBRANCH  25  26
ENDBRANCH   8  25
TORSDOF 7
ENDMDL
MODEL 8
REMARK VINA RESULT:      -7.3      1.914      4.101
REMARK  Name = 
REMARK  10 active torsions:
REMARK  status: ('A' for Active; 'I' for Inactive)
REMARK    1  A    between atoms: C_1  and  C_2
REMARK    2  A    between atoms: C_2  and  N_3
REMARK    3  A    between atoms: N_3  and  C_4
REMARK    4  A    between atoms: C_4  and  C_5
REMARK    5  A    between atoms: C_6  and  O_8
REMARK    6  A    between atoms: O_8  and  C_9
REMARK    7  A    between atoms: N_16  and  C_17
REMARK    8  A    between atoms: C_17  and  C_18
REMARK    9  A    between atoms: C_26  and  C_27
REMARK   10  A    between atoms: C_30  and  C_31
REMARK                            x       y       z     vdW  Elec       q    Type
REMARK                         _______ _______ _______ _____ _____    ______ ____
ROOT
ATOM      1  C   UNL     1       2.745   6.979  18.194  0.00  0.00    +0.000 A 
ATOM      2  C   UNL     1       2.822   8.250  17.614  0.00  0.00    +0.000 A 
ATOM      3  C   UNL     1       2.088   9.317  18.123  0.00  0.00    +0.000 A 
ATOM      4  C   UNL     1       1.309   9.101  19.266  0.00  0.00    +0.000 A 
ATOM      5  C   UNL     1       1.269   7.851  19.911  0.00  0.00    +0.000 A 
ATOM      6  C   UNL     1       0.456   8.051  21.075  0.00  0.00    +0.000 A 
ATOM      7  C   UNL     1      -0.048   9.328  21.054  0.00  0.00    +0.000 A 
ATOM      8  N   UNL     1       0.472   9.964  19.957  0.00  0.00    +0.000 N 
ATOM      9  C   UNL     1       1.985   6.727  19.367  0.00  0.00    +0.000 A 
ENDROOT
BRANCH   9  10
ATOM     10  C   UNL     1       1.915   5.406  20.050  0.00  0.00    +0.000 A 
ATOM     11  C   UNL     1       1.156   4.342  19.527  0.00  0.00    +0.000 A 
ATOM     12  C   UNL     1       0.974   3.140  20.223  0.00  0.00    +0.000 A 
ATOM     13  C   UNL     1       1.614   2.930  21.443  0.00  0.00    +0.000 A 
ATOM     14  C   UNL     1       1.421   1.658  22.209  0.00  0.00    +0.000 C 
ATOM     15  C   UNL     1       2.451   3.931  21.938  0.00  0.00    +0.000 A 
ATOM     16  C   UNL     1       2.576   5.155  21.265  0.00  0.00    +0.000 A 
ENDBRANCH   9  10
BRANCH   1  17
ATOM     17  O   UNL     1       3.561   5.944  17.653  0.00  0.00    +0.000 OA
BRANCH  17  19
ATOM     18  N   UNL     1       5.799   5.804  17.024  0.00  0.00    +0.000 N 
ATOM     19  C   UNL     1       4.884   5.805  18.078  0.00  0.00    +0.000 C 
ATOM     20  O   UNL     1       5.210   5.631  19.249  0.00  0.00    +0.000 OA
BRANCH  18  22
ATOM     21  C   UNL     1       7.925   6.388  18.205  0.00  0.00    +0.000 C 
ATOM     22  C   UNL     1       7.176   5.410  17.315  0.00  0.00    +0.000 C 
ENDBRANCH  18  22
BRANCH  18  23
ATOM     23  C   UNL     1       5.411   6.017  15.629  0.00  0.00    +0.000 C 
ATOM     24  C   UNL     1       5.919   4.934  14.692  0.00  0.00    +0.000 C 
ENDBRANCH  18  23
ENDBRANCH  17  19
ENDBRANCH   1  17
BRANCH   8  25
ATOM     25  C   UNL     1       0.039  11.286  19.516  0.00  0.00    +0.000 C 
BRANCH  25  26
ATOM     26  C   UNL     1      -1.312  11.292  18.842  0.00  0.00    +0.000 A 
ATOM     27  C   UNL     1      -2.415  11.890  19.469  0.00  0.00    +0.000 A 
ATOM     28  C   UNL     1      -3.643  11.984  18.801  0.00  0.00    +0.000 A 
ATOM     29 CL   UNL     1      -4.971  12.762  19.573  0.00  0.00    +0.000 Cl
ATOM     30  C   UNL     1      -3.793  11.484  17.509  0.00  0.00    +0.000 A 
ATOM     31  C   UNL     1      -2.705  10.870  16.895  0.00  0.00    +0.000 A 
ATOM     32 CL   UNL     1      -2.872  10.260  15.293  0.00  0.00    +0.000 Cl
ATOM     33  C   UNL     1      -1.477  10.767  17.552  0.00  0.00    +0.000 A 
ENDBRANCH  25  26
ENDBRANCH   8  25
TORSDOF 7
ENDMDL
MODEL 9
REMARK VINA RESULT:      -7.3      2.308      4.026
REMARK  Name = 
REMARK  10 active torsions:
REMARK  status: ('A' for Active; 'I' for Inactive)
REMARK    1  A    between atoms: C_1  and  C_2
REMARK    2  A    between atoms: C_2  and  N_3
REMARK    3  A    between atoms: N_3  and  C_4
REMARK    4  A    between atoms: C_4  and  C_5
REMARK    5  A    between atoms: C_6  and  O_8
REMARK    6  A    between atoms: O_8  and  C_9
REMARK    7  A    between atoms: N_16  and  C_17
REMARK    8  A    between atoms: C_17  and  C_18
REMARK    9  A    between atoms: C_26  and  C_27
REMARK   10  A    between atoms: C_30  and  C_31
REMARK                            x       y       z     vdW  Elec       q    Type
REMARK                         _______ _______ _______ _____ _____    ______ ____
ROOT
ATOM      1  C   UNL     1       3.240   7.491  17.607  0.00  0.00    +0.000 A 
ATOM      2  C   UNL     1       3.023   8.871  17.689  0.00  0.00    +0.000 A 
ATOM      3  C   UNL     1       2.272   9.419  18.725  0.00  0.00    +0.000 A 
ATOM      4  C   UNL     1       1.784   8.560  19.717  0.00  0.00    +0.000 A 
ATOM      5  C   UNL     1       2.048   7.179  19.697  0.00  0.00    +0.000 A 
ATOM      6  C   UNL     1       1.474   6.666  20.907  0.00  0.00    +0.000 A 
ATOM      7  C   UNL     1       0.808   7.680  21.550  0.00  0.00    +0.000 A 
ATOM      8  N   UNL     1       0.999   8.829  20.828  0.00  0.00    +0.000 N 
ATOM      9  C   UNL     1       2.781   6.592  18.606  0.00  0.00    +0.000 A 
ENDROOT
BRANCH   9  10
ATOM     10  C   UNL     1       3.034   5.124  18.590  0.00  0.00    +0.000 A 
ATOM     11  C   UNL     1       4.032   4.537  19.391  0.00  0.00    +0.000 A 
ATOM     12  C   UNL     1       4.368   3.181  19.290  0.00  0.00    +0.000 A 
ATOM     13  C   UNL     1       3.661   2.342  18.432  0.00  0.00    +0.000 A 
ATOM     14  C   UNL     1       4.015   0.893  18.300  0.00  0.00    +0.000 C 
ATOM     15  C   UNL     1       2.601   2.878  17.699  0.00  0.00    +0.000 A 
ATOM     16  C   UNL     1       2.313   4.249  17.759  0.00  0.00    +0.000 A 
ENDBRANCH   9  10
BRANCH   1  17
ATOM     17  O   UNL     1       4.059   7.003  16.549  0.00  0.00    +0.000 OA
BRANCH  17  19
ATOM     18  N   UNL     1       5.952   5.692  16.192  0.00  0.00    +0.000 N 
ATOM     19  C   UNL     1       5.437   6.870  16.737  0.00  0.00    +0.000 C 
ATOM     20  O   UNL     1       6.119   7.667  17.374  0.00  0.00    +0.000 OA
BRANCH  18  22
ATOM     21  C   UNL     1       7.448   4.649  17.904  0.00  0.00    +0.000 C 
ATOM     22  C   UNL     1       7.319   5.317  16.545  0.00  0.00    +0.000 C 
ENDBRANCH  18  22
BRANCH  18  23
ATOM     23  C   UNL     1       5.139   4.744  15.429  0.00  0.00    +0.000 C 
ATOM     24  C   UNL     1       5.951   3.898  14.462  0.00  0.00    +0.000 C 
ENDBRANCH  18  23
ENDBRANCH  17  19
ENDBRANCH   1  17
BRANCH   8  25
ATOM     25  C   UNL     1       0.309  10.082  21.116  0.00  0.00    +0.000 C 
BRANCH  25  26
ATOM     26  C   UNL     1      -0.290  10.742  19.898  0.00  0.00    +0.000 A 
ATOM     27  C   UNL     1      -1.198  10.045  19.087  0.00  0.00    +0.000 A 
ATOM     28  C   UNL     1      -1.830  10.690  18.016  0.00  0.00    +0.000 A 
ATOM     29 CL   UNL     1      -2.974   9.827  17.062  0.00  0.00    +0.000 Cl
ATOM     30  C   UNL     1      -1.566  12.030  17.733  0.00  0.00    +0.000 A 
ATOM     31  C   UNL     1      -0.648  12.715  18.523  0.00  0.00    +0.000 A 
ATOM     32 CL   UNL     1      -0.323  14.374  18.196  0.00  0.00    +0.000 Cl
ATOM     33  C   UNL     1      -0.009  12.082  19.592  0.00  0.00    +0.000 A 
ENDBRANCH  25  26
ENDBRANCH   8  25
TORSDOF 7
ENDMDL
