MODEL 1
REMARK VINA RESULT:      -6.8      0.000      0.000
REMARK  Name = 
REMARK  5 active torsions:
REMARK  status: ('A' for Active; 'I' for Inactive)
REMARK    1  A    between atoms: C_1  and  C_2
REMARK    2  A    between atoms: C_2  and  C_8
REMARK    3  A    between atoms: N_3  and  N_4
REMARK    4  A    between atoms: N_4  and  C_5
REMARK    5  A    between atoms: C_5  and  N_6
REMARK                            x       y       z     vdW  Elec       q    Type
REMARK                         _______ _______ _______ _____ _____    ______ ____
ROOT
ATOM      1  C   UNL     1       5.289   5.341  17.966  0.00  0.00    +0.000 A 
ATOM      2  N   UNL     1       5.111   4.160  18.526  0.00  0.00    +0.000 NA
ATOM      3  C   UNL     1       3.982   4.275  19.298  0.00  0.00    +0.000 A 
ATOM      4  C   UNL     1       3.353   3.319  20.105  0.00  0.00    +0.000 A 
ATOM      5  C   UNL     1       2.196   3.697  20.791  0.00  0.00    +0.000 A 
ATOM      6 CL   UNL     1       1.399   2.547  21.796  0.00  0.00    +0.000 Cl
ATOM      7  C   UNL     1       1.672   4.988  20.681  0.00  0.00    +0.000 A 
ATOM      8  C   UNL     1       2.294   5.955  19.881  0.00  0.00    +0.000 A 
ATOM      9  C   UNL     1       3.451   5.557  19.207  0.00  0.00    +0.000 A 
ATOM     10  N   UNL     1       4.306   6.216  18.362  0.00  0.00    +0.000 N 
ATOM     11  H   UNL     1       4.241   7.178  18.059  0.00  0.00    +0.000 HD
ENDROOT
BRANCH   1  13
ATOM     12  C   UNL     1       7.326   6.736  17.525  0.00  0.00    +0.000 C 
ATOM     13  C   UNL     1       6.377   5.652  17.057  0.00  0.00    +0.000 C 
ATOM     14  N   UNL     1       6.446   4.975  15.943  0.00  0.00    +0.000 NA
BRANCH  14  15
ATOM     15  N   UNL     1       7.459   5.243  15.064  0.00  0.00    +0.000 N 
ATOM     16  H   UNL     1       8.330   5.665  15.365  0.00  0.00    +0.000 HD
BRANCH  15  17
ATOM     17  C   UNL     1       7.355   4.970  13.731  0.00  0.00    +0.000 C 
ATOM     18  S   UNL     1       6.305   3.824  13.152  0.00  0.00    +0.000 S 
BRANCH  17  19
ATOM     19  N   UNL     1       8.147   5.691  12.907  0.00  0.00    +0.000 N 
ATOM     20  H   UNL     1       9.103   5.387  12.794  0.00  0.00    +0.000 HD
ATOM     21  H   UNL     1       7.744   6.363  12.269  0.00  0.00    +0.000 HD
ENDBRANCH  17  19
ENDBRANCH  15  17
ENDBRANCH  14  15
ENDBRANCH   1  13
TORSDOF 4
ENDMDL
MODEL 2
REMARK VINA RESULT:      -6.7      1.135      1.137
REMARK  Name = 
REMARK  5 active torsions:
REMARK  status: ('A' for Active; 'I' for Inactive)
REMARK    1  A    between atoms: C_1  and  C_2
REMARK    2  A    between atoms: C_2  and  C_8
REMARK    3  A    between atoms: N_3  and  N_4
REMARK    4  A    between atoms: N_4  and  C_5
REMARK    5  A    between atoms: C_5  and  N_6
REMARK                            x       y       z     vdW  Elec       q    Type
REMARK                         _______ _______ _______ _____ _____    ______ ____
ROOT
ATOM      1  C   UNL     1       5.195   4.496  17.773  0.00  0.00    +0.000 A 
ATOM      2  N   UNL     1       5.207   3.935  18.967  0.00  0.00    +0.000 NA
ATOM      3  C   UNL     1       3.891   3.726  19.298  0.00  0.00    +0.000 A 
ATOM      4  C   UNL     1       3.343   3.163  20.458  0.00  0.00    +0.000 A 
ATOM      5  C   UNL     1       1.952   3.058  20.542  0.00  0.00    +0.000 A 
ATOM      6 CL   UNL     1       1.243   2.374  21.956  0.00  0.00    +0.000 Cl
ATOM      7  C   UNL     1       1.123   3.498  19.506  0.00  0.00    +0.000 A 
ATOM      8  C   UNL     1       1.659   4.066  18.343  0.00  0.00    +0.000 A 
ATOM      9  C   UNL     1       3.051   4.164  18.281  0.00  0.00    +0.000 A 
ATOM     10  N   UNL     1       3.905   4.657  17.328  0.00  0.00    +0.000 N 
ATOM     11  H   UNL     1       3.653   5.065  16.439  0.00  0.00    +0.000 HD
ENDROOT
BRANCH   1  13
ATOM     12  C   UNL     1       7.534   5.390  17.895  0.00  0.00    +0.000 C 
ATOM     13  C   UNL     1       6.391   4.877  17.045  0.00  0.00    +0.000 C 
ATOM     14  N   UNL     1       6.379   4.736  15.747  0.00  0.00    +0.000 NA
BRANCH  14  15
ATOM     15  N   UNL     1       7.490   5.086  15.030  0.00  0.00    +0.000 N 
ATOM     16  H   UNL     1       8.327   5.438  15.480  0.00  0.00    +0.000 HD
BRANCH  15  17
ATOM     17  C   UNL     1       7.535   4.994  13.669  0.00  0.00    +0.000 C 
ATOM     18  S   UNL     1       6.544   3.963  12.829  0.00  0.00    +0.000 S 
BRANCH  17  19
ATOM     19  N   UNL     1       8.424   5.796  13.042  0.00  0.00    +0.000 N 
ATOM     20  H   UNL     1       8.059   6.498  12.416  0.00  0.00    +0.000 HD
ATOM     21  H   UNL     1       9.384   5.836  13.354  0.00  0.00    +0.000 HD
ENDBRANCH  17  19
ENDBRANCH  15  17
ENDBRANCH  14  15
ENDBRANCH   1  13
TORSDOF 4
ENDMDL
MODEL 3
REMARK VINA RESULT:      -6.6      1.361      1.843
REMARK  Name = 
REMARK  5 active torsions:
REMARK  status: ('A' for Active; 'I' for Inactive)
REMARK    1  A    between atoms: C_1  and  C_2
REMARK    2  A    between atoms: C_2  and  C_8
REMARK    3  A    between atoms: N_3  and  N_4
REMARK    4  A    between atoms: N_4  and  C_5
REMARK    5  A    between atoms: C_5  and  N_6
REMARK                            x       y       z     vdW  Elec       q    Type
REMARK                         _______ _______ _______ _____ _____    ______ ____
ROOT
ATOM      1  C   UNL     1       4.556   4.598  17.223  0.00  0.00    +0.000 A 
ATOM      2  N   UNL     1       4.433   4.832  18.516  0.00  0.00    +0.000 NA
ATOM      3  C   UNL     1       3.461   3.973  18.963  0.00  0.00    +0.000 A 
ATOM      4  C   UNL     1       2.941   3.809  20.254  0.00  0.00    +0.000 A 
ATOM      5  C   UNL     1       1.947   2.845  20.444  0.00  0.00    +0.000 A 
ATOM      6 CL   UNL     1       1.283   2.621  22.018  0.00  0.00    +0.000 Cl
ATOM      7  C   UNL     1       1.480   2.061  19.386  0.00  0.00    +0.000 A 
ATOM      8  C   UNL     1       1.988   2.217  18.090  0.00  0.00    +0.000 A 
ATOM      9  C   UNL     1       2.978   3.188  17.922  0.00  0.00    +0.000 A 
ATOM     10  N   UNL     1       3.684   3.613  16.826  0.00  0.00    +0.000 N 
ATOM     11  H   UNL     1       3.603   3.269  15.879  0.00  0.00    +0.000 HD
ENDROOT
BRANCH   1  13
ATOM     12  C   UNL     1       5.135   6.730  16.036  0.00  0.00    +0.000 C 
ATOM     13  C   UNL     1       5.492   5.293  16.359  0.00  0.00    +0.000 C 
ATOM     14  N   UNL     1       6.543   4.635  15.953  0.00  0.00    +0.000 NA
BRANCH  14  15
ATOM     15  N   UNL     1       7.446   5.261  15.138  0.00  0.00    +0.000 N 
ATOM     16  H   UNL     1       8.123   5.923  15.499  0.00  0.00    +0.000 HD
BRANCH  15  17
ATOM     17  C   UNL     1       7.481   5.043  13.791  0.00  0.00    +0.000 C 
ATOM     18  S   UNL     1       6.486   3.936  13.058  0.00  0.00    +0.000 S 
BRANCH  17  19
ATOM     19  N   UNL     1       8.364   5.784  13.086  0.00  0.00    +0.000 N 
ATOM     20  H   UNL     1       8.839   6.531  13.570  0.00  0.00    +0.000 HD
ATOM     21  H   UNL     1       8.694   5.466  12.185  0.00  0.00    +0.000 HD
ENDBRANCH  17  19
ENDBRANCH  15  17
ENDBRANCH  14  15
ENDBRANCH   1  13
TORSDOF 4
ENDMDL
MODEL 4
REMARK VINA RESULT:      -6.4      1.156      1.755
REMARK  Name = 
REMARK  5 active torsions:
REMARK  status: ('A' for Active; 'I' for Inactive)
REMARK    1  A    between atoms: C_1  and  C_2
REMARK    2  A    between atoms: C_2  and  C_8
REMARK    3  A    between atoms: N_3  and  N_4
REMARK    4  A    between atoms: N_4  and  C_5
REMARK    5  A    between atoms: C_5  and  N_6
REMARK                            x       y       z     vdW  Elec       q    Type
REMARK                         _______ _______ _______ _____ _____    ______ ____
ROOT
ATOM      1  C   UNL     1       5.607   4.749  17.447  0.00  0.00    +0.000 A 
ATOM      2  N   UNL     1       4.324   5.056  17.430  0.00  0.00    +0.000 NA
ATOM      3  C   UNL     1       3.740   4.285  18.405  0.00  0.00    +0.000 A 
ATOM      4  C   UNL     1       2.398   4.218  18.802  0.00  0.00    +0.000 A 
ATOM      5  C   UNL     1       2.063   3.342  19.839  0.00  0.00    +0.000 A 
ATOM      6 CL   UNL     1       0.422   3.231  20.350  0.00  0.00    +0.000 Cl
ATOM      7  C   UNL     1       3.031   2.554  20.469  0.00  0.00    +0.000 A 
ATOM      8  C   UNL     1       4.375   2.610  20.078  0.00  0.00    +0.000 A 
ATOM      9  C   UNL     1       4.687   3.489  19.038  0.00  0.00    +0.000 A 
ATOM     10  N   UNL     1       5.863   3.796  18.404  0.00  0.00    +0.000 N 
ATOM     11  H   UNL     1       6.776   3.409  18.596  0.00  0.00    +0.000 HD
ENDROOT
BRANCH   1  13
ATOM     12  C   UNL     1       7.324   6.550  17.138  0.00  0.00    +0.000 C 
ATOM     13  C   UNL     1       6.595   5.349  16.571  0.00  0.00    +0.000 C 
ATOM     14  N   UNL     1       6.773   4.806  15.397  0.00  0.00    +0.000 NA
BRANCH  14  15
ATOM     15  N   UNL     1       7.697   5.347  14.547  0.00  0.00    +0.000 N 
ATOM     16  H   UNL     1       8.454   5.930  14.881  0.00  0.00    +0.000 HD
BRANCH  15  17
ATOM     17  C   UNL     1       7.649   5.144  13.198  0.00  0.00    +0.000 C 
ATOM     18  S   UNL     1       6.777   3.900  12.531  0.00  0.00    +0.000 S 
BRANCH  17  19
ATOM     19  N   UNL     1       8.343   6.017  12.434  0.00  0.00    +0.000 N 
ATOM     20  H   UNL     1       9.273   5.750  12.148  0.00  0.00    +0.000 HD
ATOM     21  H   UNL     1       7.872   6.794  11.992  0.00  0.00    +0.000 HD
ENDBRANCH  17  19
ENDBRANCH  15  17
ENDBRANCH  14  15
ENDBRANCH   1  13
TORSDOF 4
ENDMDL
MODEL 5
REMARK VINA RESULT:      -6.4      1.855      1.910
REMARK  Name = 
REMARK  5 active torsions:
REMARK  status: ('A' for Active; 'I' for Inactive)
REMARK    1  A    between atoms: C_1  and  C_2
REMARK    2  A    between atoms: C_2  and  C_8
REMARK    3  A    between atoms: N_3  and  N_4
REMARK    4  A    between atoms: N_4  and  C_5
REMARK    5  A    between atoms: C_5  and  N_6
REMARK                            x       y       z     vdW  Elec       q    Type
REMARK                         _______ _______ _______ _____ _____    ______ ____
ROOT
ATOM      1  C   UNL     1       4.797   4.426  16.678  0.00  0.00    +0.000 A 
ATOM      2  N   UNL     1       4.462   3.342  17.352  0.00  0.00    +0.000 NA
ATOM      3  C   UNL     1       3.581   3.758  18.319  0.00  0.00    +0.000 A 
ATOM      4  C   UNL     1       2.924   3.012  19.306  0.00  0.00    +0.000 A 
ATOM      5  C   UNL     1       2.062   3.686  20.175  0.00  0.00    +0.000 A 
ATOM      6 CL   UNL     1       1.241   2.800  21.403  0.00  0.00    +0.000 Cl
ATOM      7  C   UNL     1       1.853   5.065  20.069  0.00  0.00    +0.000 A 
ATOM      8  C   UNL     1       2.507   5.822  19.089  0.00  0.00    +0.000 A 
ATOM      9  C   UNL     1       3.366   5.129  18.235  0.00  0.00    +0.000 A 
ATOM     10  N   UNL     1       4.158   5.529  17.189  0.00  0.00    +0.000 N 
ATOM     11  H   UNL     1       4.263   6.468  16.831  0.00  0.00    +0.000 HD
ENDROOT
BRANCH   1  13
ATOM     12  C   UNL     1       7.085   5.006  15.831  0.00  0.00    +0.000 C 
ATOM     13  C   UNL     1       5.712   4.429  15.551  0.00  0.00    +0.000 C 
ATOM     14  N   UNL     1       5.283   3.934  14.422  0.00  0.00    +0.000 NA
BRANCH  14  15
ATOM     15  N   UNL     1       6.121   3.922  13.341  0.00  0.00    +0.000 N 
ATOM     16  H   UNL     1       6.977   4.463  13.322  0.00  0.00    +0.000 HD
BRANCH  15  17
ATOM     17  C   UNL     1       5.849   3.192  12.220  0.00  0.00    +0.000 C 
ATOM     18  S   UNL     1       4.375   3.266  11.464  0.00  0.00    +0.000 S 
BRANCH  17  19
ATOM     19  N   UNL     1       6.850   2.413  11.754  0.00  0.00    +0.000 N 
ATOM     20  H   UNL     1       6.851   2.192  10.769  0.00  0.00    +0.000 HD
ATOM     21  H   UNL     1       7.672   2.245  12.318  0.00  0.00    +0.000 HD
ENDBRANCH  17  19
ENDBRANCH  15  17
ENDBRANCH  14  15
ENDBRANCH   1  13
TORSDOF 4
ENDMDL
MODEL 6
REMARK VINA RESULT:      -6.3      3.212      4.332
REMARK  Name = 
REMARK  5 active torsions:
REMARK  status: ('A' for Active; 'I' for Inactive)
REMARK    1  A    between atoms: C_1  and  C_2
REMARK    2  A    between atoms: C_2  and  C_8
REMARK    3  A    between atoms: N_3  and  N_4
REMARK    4  A    between atoms: N_4  and  C_5
REMARK    5  A    between atoms: C_5  and  N_6
REMARK                            x       y       z     vdW  Elec       q    Type
REMARK                         _______ _______ _______ _____ _____    ______ ____
ROOT
ATOM      1  C   UNL     1       3.303   6.199  18.799  0.00  0.00    +0.000 A 
ATOM      2  N   UNL     1       2.957   7.169  17.973  0.00  0.00    +0.000 NA
ATOM      3  C   UNL     1       2.150   8.010  18.698  0.00  0.00    +0.000 A 
ATOM      4  C   UNL     1       1.510   9.191  18.302  0.00  0.00    +0.000 A 
ATOM      5  C   UNL     1       0.739   9.870  19.250  0.00  0.00    +0.000 A 
ATOM      6 CL   UNL     1      -0.065  11.325  18.795  0.00  0.00    +0.000 Cl
ATOM      7  C   UNL     1       0.605   9.394  20.557  0.00  0.00    +0.000 A 
ATOM      8  C   UNL     1       1.237   8.212  20.965  0.00  0.00    +0.000 A 
ATOM      9  C   UNL     1       1.999   7.548  20.001  0.00  0.00    +0.000 A 
ATOM     10  N   UNL     1       2.734   6.391  20.035  0.00  0.00    +0.000 N 
ATOM     11  H   UNL     1       2.860   5.774  20.825  0.00  0.00    +0.000 HD
ENDROOT
BRANCH   1  13
ATOM     12  C   UNL     1       4.261   3.975  19.450  0.00  0.00    +0.000 C 
ATOM     13  C   UNL     1       4.169   5.094  18.432  0.00  0.00    +0.000 C 
ATOM     14  N   UNL     1       4.772   5.155  17.277  0.00  0.00    +0.000 NA
BRANCH  14  15
ATOM     15  N   UNL     1       5.595   4.129  16.901  0.00  0.00    +0.000 N 
ATOM     16  H   UNL     1       5.358   3.161  17.080  0.00  0.00    +0.000 HD
BRANCH  15  17
ATOM     17  C   UNL     1       6.787   4.347  16.273  0.00  0.00    +0.000 C 
ATOM     18  S   UNL     1       6.875   4.663  14.647  0.00  0.00    +0.000 S 
BRANCH  17  19
ATOM     19  N   UNL     1       7.892   4.302  17.050  0.00  0.00    +0.000 N 
ATOM     20  H   UNL     1       8.752   4.657  16.660  0.00  0.00    +0.000 HD
ATOM     21  H   UNL     1       7.812   4.129  18.042  0.00  0.00    +0.000 HD
ENDBRANCH  17  19
ENDBRANCH  15  17
ENDBRANCH  14  15
ENDBRANCH   1  13
TORSDOF 4
ENDMDL
MODEL 7
REMARK VINA RESULT:      -6.2      4.229      5.576
REMARK  Name = 
REMARK  5 active torsions:
REMARK  status: ('A' for Active; 'I' for Inactive)
REMARK    1  A    between atoms: C_1  and  C_2
REMARK    2  A    between atoms: C_2  and  C_8
REMARK    3  A    between atoms: N_3  and  N_4
REMARK    4  A    between atoms: N_4  and  C_5
REMARK    5  A    between atoms: C_5  and  N_6
REMARK                            x       y       z     vdW  Elec       q    Type
REMARK                         _______ _______ _______ _____ _____    ______ ____
ROOT
ATOM      1  C   UNL     1       3.006   6.579  18.935  0.00  0.00    +0.000 A 
ATOM      2  N   UNL     1       2.673   7.526  18.079  0.00  0.00    +0.000 NA
ATOM      3  C   UNL     1       1.887   8.407  18.780  0.00  0.00    +0.000 A 
ATOM      4  C   UNL     1       1.267   9.586  18.348  0.00  0.00    +0.000 A 
ATOM      5  C   UNL     1       0.516  10.312  19.277  0.00  0.00    +0.000 A 
ATOM      6 CL   UNL     1      -0.263  11.765  18.778  0.00  0.00    +0.000 Cl
ATOM      7  C   UNL     1       0.383   9.884  20.600  0.00  0.00    +0.000 A 
ATOM      8  C   UNL     1       0.994   8.704  21.044  0.00  0.00    +0.000 A 
ATOM      9  C   UNL     1       1.737   7.993  20.099  0.00  0.00    +0.000 A 
ATOM     10  N   UNL     1       2.450   6.824  20.168  0.00  0.00    +0.000 N 
ATOM     11  H   UNL     1       2.570   6.231  20.977  0.00  0.00    +0.000 HD
ENDROOT
BRANCH   1  13
ATOM     12  C   UNL     1       4.195   5.302  17.134  0.00  0.00    +0.000 C 
ATOM     13  C   UNL     1       3.848   5.445  18.601  0.00  0.00    +0.000 C 
ATOM     14  N   UNL     1       4.233   4.669  19.578  0.00  0.00    +0.000 NA
BRANCH  14  15
ATOM     15  N   UNL     1       5.027   3.592  19.298  0.00  0.00    +0.000 N 
ATOM     16  H   UNL     1       5.978   3.701  18.965  0.00  0.00    +0.000 HD
BRANCH  15  17
ATOM     17  C   UNL     1       4.586   2.308  19.439  0.00  0.00    +0.000 C 
ATOM     18  S   UNL     1       3.411   1.674  18.453  0.00  0.00    +0.000 S 
BRANCH  17  19
ATOM     19  N   UNL     1       5.165   1.577  20.416  0.00  0.00    +0.000 N 
ATOM     20  H   UNL     1       4.701   0.727  20.702  0.00  0.00    +0.000 HD
ATOM     21  H   UNL     1       6.121   1.756  20.689  0.00  0.00    +0.000 HD
ENDBRANCH  17  19
ENDBRANCH  15  17
ENDBRANCH  14  15
ENDBRANCH   1  13
TORSDOF 4
ENDMDL
MODEL 8
REMARK VINA RESULT:      -6.2      3.167      4.337
REMARK  Name = 
REMARK  5 active torsions:
REMARK  status: ('A' for Active; 'I' for Inactive)
REMARK    1  A    between atoms: C_1  and  C_2
REMARK    2  A    between atoms: C_2  and  C_8
REMARK    3  A    between atoms: N_3  and  N_4
REMARK    4  A    between atoms: N_4  and  C_5
REMARK    5  A    between atoms: C_5  and  N_6
REMARK                            x       y       z     vdW  Elec       q    Type
REMARK                         _______ _______ _______ _____ _____    ______ ____
ROOT
ATOM      1  C   UNL     1       3.184   6.378  18.681  0.00  0.00    +0.000 A 
ATOM      2  N   UNL     1       2.647   6.474  19.882  0.00  0.00    +0.000 NA
ATOM      3  C   UNL     1       1.958   7.662  19.891  0.00  0.00    +0.000 A 
ATOM      4  C   UNL     1       1.210   8.249  20.920  0.00  0.00    +0.000 A 
ATOM      5  C   UNL     1       0.594   9.478  20.665  0.00  0.00    +0.000 A 
ATOM      6 CL   UNL     1      -0.330  10.230  21.909  0.00  0.00    +0.000 Cl
ATOM      7  C   UNL     1       0.712  10.109  19.423  0.00  0.00    +0.000 A 
ATOM      8  C   UNL     1       1.460   9.533  18.388  0.00  0.00    +0.000 A 
ATOM      9  C   UNL     1       2.070   8.308  18.666  0.00  0.00    +0.000 A 
ATOM     10  N   UNL     1       2.862   7.475  17.918  0.00  0.00    +0.000 N 
ATOM     11  H   UNL     1       3.164   7.617  16.964  0.00  0.00    +0.000 HD
ENDROOT
BRANCH   1  13
ATOM     12  C   UNL     1       3.279   4.227  17.395  0.00  0.00    +0.000 C 
ATOM     13  C   UNL     1       3.996   5.257  18.243  0.00  0.00    +0.000 C 
ATOM     14  N   UNL     1       5.250   5.241  18.605  0.00  0.00    +0.000 NA
BRANCH  14  15
ATOM     15  N   UNL     1       6.043   4.200  18.209  0.00  0.00    +0.000 N 
ATOM     16  H   UNL     1       5.907   3.260  18.563  0.00  0.00    +0.000 HD
BRANCH  15  17
ATOM     17  C   UNL     1       7.070   4.363  17.326  0.00  0.00    +0.000 C 
ATOM     18  S   UNL     1       6.801   4.717  15.728  0.00  0.00    +0.000 S 
BRANCH  17  19
ATOM     19  N   UNL     1       8.318   4.231  17.825  0.00  0.00    +0.000 N 
ATOM     20  H   UNL     1       9.087   4.554  17.255  0.00  0.00    +0.000 HD
ATOM     21  H   UNL     1       8.458   4.027  18.805  0.00  0.00    +0.000 HD
ENDBRANCH  17  19
ENDBRANCH  15  17
ENDBRANCH  14  15
ENDBRANCH   1  13
TORSDOF 4
ENDMDL
MODEL 9
REMARK VINA RESULT:      -6.2      2.255      2.715
REMARK  Name = 
REMARK  5 active torsions:
REMARK  status: ('A' for Active; 'I' for Inactive)
REMARK    1  A    between atoms: C_1  and  C_2
REMARK    2  A    between atoms: C_2  and  C_8
REMARK    3  A    between atoms: N_3  and  N_4
REMARK    4  A    between atoms: N_4  and  C_5
REMARK    5  A    between atoms: C_5  and  N_6
REMARK                            x       y       z     vdW  Elec       q    Type
REMARK                         _______ _______ _______ _____ _____    ______ ____
ROOT
ATOM      1  C   UNL     1       5.081   4.486  16.462  0.00  0.00    +0.000 A 
ATOM      2  N   UNL     1       4.564   5.636  16.850  0.00  0.00    +0.000 NA
ATOM      3  C   UNL     1       3.811   5.353  17.963  0.00  0.00    +0.000 A 
ATOM      4  C   UNL     1       3.049   6.212  18.765  0.00  0.00    +0.000 A 
ATOM      5  C   UNL     1       2.373   5.663  19.858  0.00  0.00    +0.000 A 
ATOM      6 CL   UNL     1       1.423   6.690  20.863  0.00  0.00    +0.000 Cl
ATOM      7  C   UNL     1       2.451   4.299  20.153  0.00  0.00    +0.000 A 
ATOM      8  C   UNL     1       3.207   3.429  19.357  0.00  0.00    +0.000 A 
ATOM      9  C   UNL     1       3.870   3.998  18.268  0.00  0.00    +0.000 A 
ATOM     10  N   UNL     1       4.676   3.469  17.292  0.00  0.00    +0.000 N 
ATOM     11  H   UNL     1       4.948   2.502  17.187  0.00  0.00    +0.000 HD
ENDROOT
BRANCH   1  13
ATOM     12  C   UNL     1       7.332   4.958  15.462  0.00  0.00    +0.000 C 
ATOM     13  C   UNL     1       5.957   4.338  15.314  0.00  0.00    +0.000 C 
ATOM     14  N   UNL     1       5.496   3.687  14.281  0.00  0.00    +0.000 NA
BRANCH  14  15
ATOM     15  N   UNL     1       6.296   3.530  13.183  0.00  0.00    +0.000 N 
ATOM     16  H   UNL     1       7.237   3.905  13.149  0.00  0.00    +0.000 HD
BRANCH  15  17
ATOM     17  C   UNL     1       5.875   2.870  12.065  0.00  0.00    +0.000 C 
ATOM     18  S   UNL     1       4.392   3.165  11.383  0.00  0.00    +0.000 S 
BRANCH  17  19
ATOM     19  N   UNL     1       6.735   1.971  11.539  0.00  0.00    +0.000 N 
ATOM     20  H   UNL     1       7.590   2.323  11.135  0.00  0.00    +0.000 HD
ATOM     21  H   UNL     1       6.629   0.986  11.738  0.00  0.00    +0.000 HD
ENDBRANCH  17  19
ENDBRANCH  15  17
ENDBRANCH  14  15
ENDBRANCH   1  13
TORSDOF 4
ENDMDL
