MODEL 1
REMARK VINA RESULT:      -6.2      0.000      0.000
REMARK  Name = 
REMARK  10 active torsions:
REMARK  status: ('A' for Active; 'I' for Inactive)
REMARK    1  A    between atoms: C_2  and  C_3
REMARK    2  A    between atoms: C_7  and  C_8
REMARK    3  A    between atoms: C_10  and  C_11
REMARK    4  A    between atoms: C_15  and  O_16
REMARK    5  A    between atoms: O_16  and  C_17
REMARK    6  A    between atoms: C_17  and  C_18
REMARK    7  A    between atoms: C_21  and  C_22
REMARK    8  A    between atoms: C_22  and  O_24
REMARK    9  A    between atoms: O_24  and  C_25
REMARK   10  A    between atoms: C_26  and  C_27
REMARK                            x       y       z     vdW  Elec       q    Type
REMARK                         _______ _______ _______ _____ _____    ______ ____
ROOT
ATOM      1  C   UNL     1      -0.870  11.641  19.612  0.00  0.00    +0.000 C 
ATOM      2  C   UNL     1      -2.050  12.259  20.375  0.00  0.00    +0.000 C 
ATOM      3  C   UNL     1      -1.546  13.262  21.451  0.00  0.00    +0.000 C 
ATOM      4  C   UNL     1      -0.576  12.522  22.405  0.00  0.00    +0.000 C 
ATOM      5  C   UNL     1      -2.756  13.955  22.188  0.00  0.00    +0.000 C 
ATOM      6  C   UNL     1      -3.680  13.038  23.005  0.00  0.00    +0.000 C 
ATOM      7  O   UNL     1      -3.369  11.897  23.338  0.00  0.00    +0.000 OA
ATOM      8  C   UNL     1      -5.033  13.666  23.383  0.00  0.00    +0.000 C 
ATOM      9  C   UNL     1      -4.765  14.968  24.148  0.00  0.00    +0.000 C 
ATOM     10  C   UNL     1      -3.798  15.931  23.411  0.00  0.00    +0.000 C 
ATOM     11  C   UNL     1      -2.426  15.236  23.047  0.00  0.00    +0.000 C 
ATOM     12  C   UNL     1      -1.671  14.921  24.363  0.00  0.00    +0.000 C 
ATOM     13  C   UNL     1      -1.556  16.194  22.188  0.00  0.00    +0.000 C 
ATOM     14  C   UNL     1      -0.362  15.524  21.502  0.00  0.00    +0.000 C 
ATOM     15  C   UNL     1      -0.808  14.345  20.631  0.00  0.00    +0.000 C 
ATOM     16  C   UNL     1       0.333  13.785  19.804  0.00  0.00    +0.000 C 
ATOM     17  O   UNL     1       1.381  14.400  19.609  0.00  0.00    +0.000 OA
ATOM     18  O   UNL     1       0.088  12.625  19.153  0.00  0.00    +0.000 OA
ENDROOT
BRANCH   1  23
ATOM     19  C   UNL     1      -0.546   9.875  17.759  0.00  0.00    +0.000 A 
ATOM     20  O   UNL     1      -1.267   9.302  16.763  0.00  0.00    +0.000 OA
ATOM     21  C   UNL     1      -2.508   9.849  16.814  0.00  0.00    +0.000 A 
ATOM     22  C   UNL     1      -2.583  10.777  17.827  0.00  0.00    +0.000 A 
ATOM     23  C   UNL     1      -1.306  10.789  18.463  0.00  0.00    +0.000 A 
BRANCH  19  25
ATOM     24  C   UNL     1       1.936   9.094  18.038  0.00  0.00    +0.000 C 
ATOM     25  C   UNL     1       0.799   9.451  17.900  0.00  0.00    +0.000 C 
ENDBRANCH  19  25
ENDBRANCH   1  23
BRANCH  10  26
ATOM     26  C   UNL     1      -3.627  17.209  24.243  0.00  0.00    +0.000 C 
ATOM     27  O   UNL     1      -3.291  17.230  25.419  0.00  0.00    +0.000 OA
BRANCH  26  28
ATOM     28  O   UNL     1      -3.870  18.317  23.487  0.00  0.00    +0.000 OA
ATOM     29  C   UNL     1      -5.258  18.564  23.237  0.00  0.00    +0.000 C 
ENDBRANCH  26  28
ENDBRANCH  10  26
BRANCH   8  30
ATOM     30  O   UNL     1      -5.842  12.809  24.206  0.00  0.00    +0.000 OA
BRANCH  30  31
ATOM     31  C   UNL     1      -7.190  12.968  24.052  0.00  0.00    +0.000 C 
ATOM     32  C   UNL     1      -7.699  12.357  22.783  0.00  0.00    +0.000 C 
ATOM     33  O   UNL     1      -7.916  13.509  24.875  0.00  0.00    +0.000 OA
ENDBRANCH  30  31
ENDBRANCH   8  30
TORSDOF 6
ENDMDL
MODEL 2
REMARK VINA RESULT:      -6.2      2.899      4.909
REMARK  Name = 
REMARK  10 active torsions:
REMARK  status: ('A' for Active; 'I' for Inactive)
REMARK    1  A    between atoms: C_2  and  C_3
REMARK    2  A    between atoms: C_7  and  C_8
REMARK    3  A    between atoms: C_10  and  C_11
REMARK    4  A    between atoms: C_15  and  O_16
REMARK    5  A    between atoms: O_16  and  C_17
REMARK    6  A    between atoms: C_17  and  C_18
REMARK    7  A    between atoms: C_21  and  C_22
REMARK    8  A    between atoms: C_22  and  O_24
REMARK    9  A    between atoms: O_24  and  C_25
REMARK   10  A    between atoms: C_26  and  C_27
REMARK                            x       y       z     vdW  Elec       q    Type
REMARK                         _______ _______ _______ _____ _____    ______ ____
ROOT
ATOM      1  C   UNL     1       0.926  15.600  19.890  0.00  0.00    +0.000 C 
ATOM      2  C   UNL     1      -0.536  15.132  19.891  0.00  0.00    +0.000 C 
ATOM      3  C   UNL     1      -0.858  14.332  21.185  0.00  0.00    +0.000 C 
ATOM      4  C   UNL     1       0.122  13.137  21.289  0.00  0.00    +0.000 C 
ATOM      5  C   UNL     1      -2.378  13.913  21.227  0.00  0.00    +0.000 C 
ATOM      6  C   UNL     1      -2.856  12.955  20.124  0.00  0.00    +0.000 C 
ATOM      7  O   UNL     1      -2.087  12.299  19.425  0.00  0.00    +0.000 OA
ATOM      8  C   UNL     1      -4.385  12.873  19.967  0.00  0.00    +0.000 C 
ATOM      9  C   UNL     1      -4.989  12.472  21.319  0.00  0.00    +0.000 C 
ATOM     10  C   UNL     1      -4.516  13.363  22.497  0.00  0.00    +0.000 C 
ATOM     11  C   UNL     1      -2.940  13.412  22.612  0.00  0.00    +0.000 C 
ATOM     12  C   UNL     1      -2.433  12.003  23.013  0.00  0.00    +0.000 C 
ATOM     13  C   UNL     1      -2.519  14.426  23.711  0.00  0.00    +0.000 C 
ATOM     14  C   UNL     1      -1.035  14.804  23.690  0.00  0.00    +0.000 C 
ATOM     15  C   UNL     1      -0.618  15.354  22.322  0.00  0.00    +0.000 C 
ATOM     16  C   UNL     1       0.796  15.902  22.334  0.00  0.00    +0.000 C 
ATOM     17  O   UNL     1       1.397  16.172  23.373  0.00  0.00    +0.000 OA
ATOM     18  O   UNL     1       1.322  16.230  21.132  0.00  0.00    +0.000 OA
ENDROOT
BRANCH   1  23
ATOM     19  C   UNL     1       2.383  16.501  17.961  0.00  0.00    +0.000 A 
ATOM     20  O   UNL     1       2.338  17.482  17.025  0.00  0.00    +0.000 OA
ATOM     21  C   UNL     1       1.161  18.136  17.201  0.00  0.00    +0.000 A 
ATOM     22  C   UNL     1       0.458  17.588  18.249  0.00  0.00    +0.000 A 
ATOM     23  C   UNL     1       1.245  16.504  18.743  0.00  0.00    +0.000 A 
BRANCH  19  25
ATOM     24  C   UNL     1       4.517  14.986  17.959  0.00  0.00    +0.000 C 
ATOM     25  C   UNL     1       3.536  15.676  17.968  0.00  0.00    +0.000 C 
ENDBRANCH  19  25
ENDBRANCH   1  23
BRANCH  10  26
ATOM     26  C   UNL     1      -5.203  12.900  23.788  0.00  0.00    +0.000 C 
ATOM     27  O   UNL     1      -4.793  11.997  24.505  0.00  0.00    +0.000 OA
BRANCH  26  28
ATOM     28  O   UNL     1      -6.312  13.649  24.043  0.00  0.00    +0.000 OA
ATOM     29  C   UNL     1      -6.169  15.038  23.725  0.00  0.00    +0.000 C 
ENDBRANCH  26  28
ENDBRANCH  10  26
BRANCH   8  30
ATOM     30  O   UNL     1      -4.800  11.916  18.978  0.00  0.00    +0.000 OA
BRANCH  30  31
ATOM     31  C   UNL     1      -6.110  12.005  18.604  0.00  0.00    +0.000 C 
ATOM     32  C   UNL     1      -6.443  13.330  17.990  0.00  0.00    +0.000 C 
ATOM     33  O   UNL     1      -6.920  11.094  18.713  0.00  0.00    +0.000 OA
ENDBRANCH  30  31
ENDBRANCH   8  30
TORSDOF 6
ENDMDL
MODEL 3
REMARK VINA RESULT:      -6.1      2.845      3.603
REMARK  Name = 
REMARK  10 active torsions:
REMARK  status: ('A' for Active; 'I' for Inactive)
REMARK    1  A    between atoms: C_2  and  C_3
REMARK    2  A    between atoms: C_7  and  C_8
REMARK    3  A    between atoms: C_10  and  C_11
REMARK    4  A    between atoms: C_15  and  O_16
REMARK    5  A    between atoms: O_16  and  C_17
REMARK    6  A    between atoms: C_17  and  C_18
REMARK    7  A    between atoms: C_21  and  C_22
REMARK    8  A    between atoms: C_22  and  O_24
REMARK    9  A    between atoms: O_24  and  C_25
REMARK   10  A    between atoms: C_26  and  C_27
REMARK                            x       y       z     vdW  Elec       q    Type
REMARK                         _______ _______ _______ _____ _____    ______ ____
ROOT
ATOM      1  C   UNL     1      -0.697  12.024  22.387  0.00  0.00    +0.000 C 
ATOM      2  C   UNL     1      -2.069  12.269  21.742  0.00  0.00    +0.000 C 
ATOM      3  C   UNL     1      -2.617  13.672  22.127  0.00  0.00    +0.000 C 
ATOM      4  C   UNL     1      -2.688  13.771  23.671  0.00  0.00    +0.000 C 
ATOM      5  C   UNL     1      -3.991  13.959  21.408  0.00  0.00    +0.000 C 
ATOM      6  C   UNL     1      -5.165  13.037  21.777  0.00  0.00    +0.000 C 
ATOM      7  O   UNL     1      -5.164  12.316  22.772  0.00  0.00    +0.000 OA
ATOM      8  C   UNL     1      -6.354  13.094  20.802  0.00  0.00    +0.000 C 
ATOM      9  C   UNL     1      -6.830  14.549  20.703  0.00  0.00    +0.000 C 
ATOM     10  C   UNL     1      -5.692  15.552  20.382  0.00  0.00    +0.000 C 
ATOM     11  C   UNL     1      -4.498  15.452  21.413  0.00  0.00    +0.000 C 
ATOM     12  C   UNL     1      -5.005  15.929  22.798  0.00  0.00    +0.000 C 
ATOM     13  C   UNL     1      -3.329  16.371  20.964  0.00  0.00    +0.000 C 
ATOM     14  C   UNL     1      -2.005  16.113  21.689  0.00  0.00    +0.000 C 
ATOM     15  C   UNL     1      -1.568  14.651  21.550  0.00  0.00    +0.000 C 
ATOM     16  C   UNL     1      -0.175  14.418  22.104  0.00  0.00    +0.000 C 
ATOM     17  O   UNL     1       0.617  15.334  22.324  0.00  0.00    +0.000 OA
ATOM     18  O   UNL     1       0.222  13.129  22.204  0.00  0.00    +0.000 OA
ENDROOT
BRANCH   1  23
ATOM     19  C   UNL     1       0.647  10.548  20.753  0.00  0.00    +0.000 A 
ATOM     20  O   UNL     1       1.065   9.261  20.654  0.00  0.00    +0.000 OA
ATOM     21  C   UNL     1       0.625   8.620  21.766  0.00  0.00    +0.000 A 
ATOM     22  C   UNL     1      -0.080   9.484  22.572  0.00  0.00    +0.000 A 
ATOM     23  C   UNL     1      -0.057  10.756  21.923  0.00  0.00    +0.000 A 
BRANCH  19  25
ATOM     24  C   UNL     1       1.306  12.158  18.798  0.00  0.00    +0.000 C 
ATOM     25  C   UNL     1       0.996  11.418  19.689  0.00  0.00    +0.000 C 
ENDBRANCH  19  25
ENDBRANCH   1  23
BRANCH  10  26
ATOM     26  C   UNL     1      -6.280  16.965  20.272  0.00  0.00    +0.000 C 
ATOM     27  O   UNL     1      -6.974  17.494  21.130  0.00  0.00    +0.000 OA
BRANCH  26  28
ATOM     28  O   UNL     1      -5.902  17.560  19.106  0.00  0.00    +0.000 OA
ATOM     29  C   UNL     1      -6.494  16.986  17.936  0.00  0.00    +0.000 C 
ENDBRANCH  26  28
ENDBRANCH  10  26
BRANCH   8  30
ATOM     30  O   UNL     1      -7.461  12.276  21.214  0.00  0.00    +0.000 OA
BRANCH  30  31
ATOM     31  C   UNL     1      -7.480  11.019  20.680  0.00  0.00    +0.000 C 
ATOM     32  C   UNL     1      -7.077  11.003  19.238  0.00  0.00    +0.000 C 
ATOM     33  O   UNL     1      -7.751  10.007  21.312  0.00  0.00    +0.000 OA
ENDBRANCH  30  31
ENDBRANCH   8  30
TORSDOF 6
ENDMDL
MODEL 4
REMARK VINA RESULT:      -6.0      2.721      5.222
REMARK  Name = 
REMARK  10 active torsions:
REMARK  status: ('A' for Active; 'I' for Inactive)
REMARK    1  A    between atoms: C_2  and  C_3
REMARK    2  A    between atoms: C_7  and  C_8
REMARK    3  A    between atoms: C_10  and  C_11
REMARK    4  A    between atoms: C_15  and  O_16
REMARK    5  A    between atoms: O_16  and  C_17
REMARK    6  A    between atoms: C_17  and  C_18
REMARK    7  A    between atoms: C_21  and  C_22
REMARK    8  A    between atoms: C_22  and  O_24
REMARK    9  A    between atoms: O_24  and  C_25
REMARK   10  A    between atoms: C_26  and  C_27
REMARK                            x       y       z     vdW  Elec       q    Type
REMARK                         _______ _______ _______ _____ _____    ______ ____
ROOT
ATOM      1  C   UNL     1       1.181  14.908  20.332  0.00  0.00    +0.000 C 
ATOM      2  C   UNL     1      -0.286  14.547  20.057  0.00  0.00    +0.000 C 
ATOM      3  C   UNL     1      -0.982  14.044  21.353  0.00  0.00    +0.000 C 
ATOM      4  C   UNL     1      -0.191  12.832  21.904  0.00  0.00    +0.000 C 
ATOM      5  C   UNL     1      -2.508  13.741  21.093  0.00  0.00    +0.000 C 
ATOM      6  C   UNL     1      -2.825  12.616  20.095  0.00  0.00    +0.000 C 
ATOM      7  O   UNL     1      -1.995  11.786  19.734  0.00  0.00    +0.000 OA
ATOM      8  C   UNL     1      -4.277  12.605  19.585  0.00  0.00    +0.000 C 
ATOM      9  C   UNL     1      -5.215  12.522  20.796  0.00  0.00    +0.000 C 
ATOM     10  C   UNL     1      -4.927  13.596  21.876  0.00  0.00    +0.000 C 
ATOM     11  C   UNL     1      -3.424  13.564  22.365  0.00  0.00    +0.000 C 
ATOM     12  C   UNL     1      -3.182  12.232  23.121  0.00  0.00    +0.000 C 
ATOM     13  C   UNL     1      -3.155  14.747  23.335  0.00  0.00    +0.000 C 
ATOM     14  C   UNL     1      -1.672  15.015  23.612  0.00  0.00    +0.000 C 
ATOM     15  C   UNL     1      -0.896  15.253  22.313  0.00  0.00    +0.000 C 
ATOM     16  C   UNL     1       0.530  15.699  22.575  0.00  0.00    +0.000 C 
ATOM     17  O   UNL     1       0.904  16.130  23.665  0.00  0.00    +0.000 OA
ATOM     18  O   UNL     1       1.350  15.746  21.501  0.00  0.00    +0.000 OA
ENDROOT
BRANCH   1  23
ATOM     19  C   UNL     1       1.444  16.666  18.461  0.00  0.00    +0.000 A 
ATOM     20  O   UNL     1       2.287  16.939  17.434  0.00  0.00    +0.000 OA
ATOM     21  C   UNL     1       3.252  15.984  17.455  0.00  0.00    +0.000 A 
ATOM     22  C   UNL     1       3.026  15.095  18.481  0.00  0.00    +0.000 A 
ATOM     23  C   UNL     1       1.851  15.543  19.156  0.00  0.00    +0.000 A 
BRANCH  19  25
ATOM     24  C   UNL     1      -0.588  18.286  18.770  0.00  0.00    +0.000 C 
ATOM     25  C   UNL     1       0.345  17.544  18.638  0.00  0.00    +0.000 C 
ENDBRANCH  19  25
ENDBRANCH   1  23
BRANCH  10  26
ATOM     26  C   UNL     1      -5.938  13.445  23.020  0.00  0.00    +0.000 C 
ATOM     27  O   UNL     1      -6.251  14.343  23.790  0.00  0.00    +0.000 OA
BRANCH  26  28
ATOM     28  O   UNL     1      -6.461  12.187  23.045  0.00  0.00    +0.000 OA
ATOM     29  C   UNL     1      -7.855  12.137  23.366  0.00  0.00    +0.000 C 
ENDBRANCH  26  28
ENDBRANCH  10  26
BRANCH   8  30
ATOM     30  O   UNL     1      -4.559  11.500  18.710  0.00  0.00    +0.000 OA
BRANCH  30  31
ATOM     31  C   UNL     1      -5.797  11.521  18.134  0.00  0.00    +0.000 C 
ATOM     32  C   UNL     1      -5.970  12.669  17.188  0.00  0.00    +0.000 C 
ATOM     33  O   UNL     1      -6.661  10.677  18.330  0.00  0.00    +0.000 OA
ENDBRANCH  30  31
ENDBRANCH   8  30
TORSDOF 6
ENDMDL
MODEL 5
REMARK VINA RESULT:      -6.0      4.065      6.593
REMARK  Name = 
REMARK  10 active torsions:
REMARK  status: ('A' for Active; 'I' for Inactive)
REMARK    1  A    between atoms: C_2  and  C_3
REMARK    2  A    between atoms: C_7  and  C_8
REMARK    3  A    between atoms: C_10  and  C_11
REMARK    4  A    between atoms: C_15  and  O_16
REMARK    5  A    between atoms: O_16  and  C_17
REMARK    6  A    between atoms: C_17  and  C_18
REMARK    7  A    between atoms: C_21  and  C_22
REMARK    8  A    between atoms: C_22  and  O_24
REMARK    9  A    between atoms: O_24  and  C_25
REMARK   10  A    between atoms: C_26  and  C_27
REMARK                            x       y       z     vdW  Elec       q    Type
REMARK                         _______ _______ _______ _____ _____    ______ ____
ROOT
ATOM      1  C   UNL     1      -2.060  11.503  18.478  0.00  0.00    +0.000 C 
ATOM      2  C   UNL     1      -1.206  12.769  18.319  0.00  0.00    +0.000 C 
ATOM      3  C   UNL     1      -0.329  13.005  19.581  0.00  0.00    +0.000 C 
ATOM      4  C   UNL     1      -1.254  13.094  20.820  0.00  0.00    +0.000 C 
ATOM      5  C   UNL     1       0.605  14.262  19.393  0.00  0.00    +0.000 C 
ATOM      6  C   UNL     1      -0.096  15.619  19.225  0.00  0.00    +0.000 C 
ATOM      7  O   UNL     1      -1.276  15.805  19.513  0.00  0.00    +0.000 OA
ATOM      8  C   UNL     1       0.803  16.739  18.673  0.00  0.00    +0.000 C 
ATOM      9  C   UNL     1       2.022  16.880  19.593  0.00  0.00    +0.000 C 
ATOM     10  C   UNL     1       2.758  15.541  19.854  0.00  0.00    +0.000 C 
ATOM     11  C   UNL     1       1.791  14.427  20.420  0.00  0.00    +0.000 C 
ATOM     12  C   UNL     1       1.327  14.853  21.837  0.00  0.00    +0.000 C 
ATOM     13  C   UNL     1       2.543  13.072  20.526  0.00  0.00    +0.000 C 
ATOM     14  C   UNL     1       1.635  11.858  20.744  0.00  0.00    +0.000 C 
ATOM     15  C   UNL     1       0.574  11.750  19.644  0.00  0.00    +0.000 C 
ATOM     16  C   UNL     1      -0.216  10.459  19.739  0.00  0.00    +0.000 C 
ATOM     17  O   UNL     1       0.165   9.490  20.396  0.00  0.00    +0.000 OA
ATOM     18  O   UNL     1      -1.300  10.359  18.937  0.00  0.00    +0.000 OA
ENDROOT
BRANCH   1  23
ATOM     19  C   UNL     1      -4.148  11.338  16.971  0.00  0.00    +0.000 A 
ATOM     20  O   UNL     1      -4.480  10.868  15.743  0.00  0.00    +0.000 OA
ATOM     21  C   UNL     1      -3.346  10.360  15.198  0.00  0.00    +0.000 A 
ATOM     22  C   UNL     1      -2.292  10.491  16.073  0.00  0.00    +0.000 A 
ATOM     23  C   UNL     1      -2.805  11.146  17.233  0.00  0.00    +0.000 A 
BRANCH  19  25
ATOM     24  C   UNL     1      -6.063  12.434  18.379  0.00  0.00    +0.000 C 
ATOM     25  C   UNL     1      -5.188  11.923  17.735  0.00  0.00    +0.000 C 
ENDBRANCH  19  25
ENDBRANCH   1  23
BRANCH  10  26
ATOM     26  C   UNL     1       3.974  15.799  20.753  0.00  0.00    +0.000 C 
ATOM     27  O   UNL     1       4.865  14.987  20.964  0.00  0.00    +0.000 OA
BRANCH  26  28
ATOM     28  O   UNL     1       3.943  17.064  21.261  0.00  0.00    +0.000 OA
ATOM     29  C   UNL     1       5.227  17.692  21.349  0.00  0.00    +0.000 C 
ENDBRANCH  26  28
ENDBRANCH  10  26
BRANCH   8  30
ATOM     30  O   UNL     1       0.137  18.011  18.596  0.00  0.00    +0.000 OA
BRANCH  30  31
ATOM     31  C   UNL     1      -0.297  18.359  17.349  0.00  0.00    +0.000 C 
ATOM     32  C   UNL     1       0.799  18.324  16.329  0.00  0.00    +0.000 C 
ATOM     33  O   UNL     1      -1.459  18.630  17.076  0.00  0.00    +0.000 OA
ENDBRANCH  30  31
ENDBRANCH   8  30
TORSDOF 6
ENDMDL
MODEL 6
REMARK VINA RESULT:      -5.9      4.903      9.291
REMARK  Name = 
REMARK  10 active torsions:
REMARK  status: ('A' for Active; 'I' for Inactive)
REMARK    1  A    between atoms: C_2  and  C_3
REMARK    2  A    between atoms: C_7  and  C_8
REMARK    3  A    between atoms: C_10  and  C_11
REMARK    4  A    between atoms: C_15  and  O_16
REMARK    5  A    between atoms: O_16  and  C_17
REMARK    6  A    between atoms: C_17  and  C_18
REMARK    7  A    between atoms: C_21  and  C_22
REMARK    8  A    between atoms: C_22  and  O_24
REMARK    9  A    between atoms: O_24  and  C_25
REMARK   10  A    between atoms: C_26  and  C_27
REMARK                            x       y       z     vdW  Elec       q    Type
REMARK                         _______ _______ _______ _____ _____    ______ ____
ROOT
ATOM      1  C   UNL     1       4.188   5.193  17.111  0.00  0.00    +0.000 C 
ATOM      2  C   UNL     1       3.840   6.580  17.672  0.00  0.00    +0.000 C 
ATOM      3  C   UNL     1       2.655   6.488  18.673  0.00  0.00    +0.000 C 
ATOM      4  C   UNL     1       1.444   5.845  17.952  0.00  0.00    +0.000 C 
ATOM      5  C   UNL     1       2.341   7.897  19.307  0.00  0.00    +0.000 C 
ATOM      6  C   UNL     1       1.868   8.996  18.342  0.00  0.00    +0.000 C 
ATOM      7  O   UNL     1       1.459   8.761  17.208  0.00  0.00    +0.000 OA
ATOM      8  C   UNL     1       1.941  10.423  18.913  0.00  0.00    +0.000 C 
ATOM      9  C   UNL     1       1.124  10.467  20.210  0.00  0.00    +0.000 C 
ATOM     10  C   UNL     1       1.507   9.356  21.221  0.00  0.00    +0.000 C 
ATOM     11  C   UNL     1       1.416   7.912  20.585  0.00  0.00    +0.000 C 
ATOM     12  C   UNL     1      -0.072   7.606  20.274  0.00  0.00    +0.000 C 
ATOM     13  C   UNL     1       1.946   6.853  21.590  0.00  0.00    +0.000 C 
ATOM     14  C   UNL     1       2.216   5.476  20.976  0.00  0.00    +0.000 C 
ATOM     15  C   UNL     1       3.189   5.571  19.797  0.00  0.00    +0.000 C 
ATOM     16  C   UNL     1       3.610   4.203  19.294  0.00  0.00    +0.000 C 
ATOM     17  O   UNL     1       3.456   3.175  19.952  0.00  0.00    +0.000 OA
ATOM     18  O   UNL     1       4.311   4.180  18.138  0.00  0.00    +0.000 OA
ENDROOT
BRANCH   1  23
ATOM     19  C   UNL     1       6.710   5.500  16.659  0.00  0.00    +0.000 A 
ATOM     20  O   UNL     1       7.571   5.431  15.613  0.00  0.00    +0.000 OA
ATOM     21  C   UNL     1       6.837   5.090  14.523  0.00  0.00    +0.000 A 
ATOM     22  C   UNL     1       5.511   4.952  14.862  0.00  0.00    +0.000 A 
ATOM     23  C   UNL     1       5.420   5.203  16.264  0.00  0.00    +0.000 A 
BRANCH  19  25
ATOM     24  C   UNL     1       7.731   6.119  18.988  0.00  0.00    +0.000 C 
ATOM     25  C   UNL     1       7.260   5.844  17.919  0.00  0.00    +0.000 C 
ENDBRANCH  19  25
ENDBRANCH   1  23
BRANCH  10  26
ATOM     26  C   UNL     1       0.658   9.512  22.490  0.00  0.00    +0.000 C 
ATOM     27  O   UNL     1       1.082   9.368  23.629  0.00  0.00    +0.000 OA
BRANCH  26  28
ATOM     28  O   UNL     1      -0.622   9.862  22.178  0.00  0.00    +0.000 OA
ATOM     29  C   UNL     1      -1.181  10.865  23.033  0.00  0.00    +0.000 C 
ENDBRANCH  26  28
ENDBRANCH  10  26
BRANCH   8  30
ATOM     30  O   UNL     1       1.425  11.417  18.012  0.00  0.00    +0.000 OA
BRANCH  30  31
ATOM     31  C   UNL     1       1.814  12.698  18.283  0.00  0.00    +0.000 C 
ATOM     32  C   UNL     1       0.653  13.607  18.545  0.00  0.00    +0.000 C 
ATOM     33  O   UNL     1       2.980  13.063  18.350  0.00  0.00    +0.000 OA
ENDBRANCH  30  31
ENDBRANCH   8  30
TORSDOF 6
ENDMDL
MODEL 7
REMARK VINA RESULT:      -5.9      3.235      6.146
REMARK  Name = 
REMARK  10 active torsions:
REMARK  status: ('A' for Active; 'I' for Inactive)
REMARK    1  A    between atoms: C_2  and  C_3
REMARK    2  A    between atoms: C_7  and  C_8
REMARK    3  A    between atoms: C_10  and  C_11
REMARK    4  A    between atoms: C_15  and  O_16
REMARK    5  A    between atoms: O_16  and  C_17
REMARK    6  A    between atoms: C_17  and  C_18
REMARK    7  A    between atoms: C_21  and  C_22
REMARK    8  A    between atoms: C_22  and  O_24
REMARK    9  A    between atoms: O_24  and  C_25
REMARK   10  A    between atoms: C_26  and  C_27
REMARK                            x       y       z     vdW  Elec       q    Type
REMARK                         _______ _______ _______ _____ _____    ______ ____
ROOT
ATOM      1  C   UNL     1       0.884   8.951  19.271  0.00  0.00    +0.000 C 
ATOM      2  C   UNL     1       1.165  10.448  19.464  0.00  0.00    +0.000 C 
ATOM      3  C   UNL     1      -0.001  11.134  20.230  0.00  0.00    +0.000 C 
ATOM      4  C   UNL     1      -1.317  10.898  19.447  0.00  0.00    +0.000 C 
ATOM      5  C   UNL     1       0.315  12.656  20.496  0.00  0.00    +0.000 C 
ATOM      6  C   UNL     1       0.465  13.553  19.257  0.00  0.00    +0.000 C 
ATOM      7  O   UNL     1       0.075  13.224  18.140  0.00  0.00    +0.000 OA
ATOM      8  C   UNL     1       1.137  14.911  19.529  0.00  0.00    +0.000 C 
ATOM      9  C   UNL     1       0.338  15.637  20.619  0.00  0.00    +0.000 C 
ATOM     10  C   UNL     1       0.100  14.778  21.888  0.00  0.00    +0.000 C 
ATOM     11  C   UNL     1      -0.591  13.396  21.553  0.00  0.00    +0.000 C 
ATOM     12  C   UNL     1      -2.029  13.678  21.046  0.00  0.00    +0.000 C 
ATOM     13  C   UNL     1      -0.674  12.519  22.832  0.00  0.00    +0.000 C 
ATOM     14  C   UNL     1      -1.017  11.049  22.572  0.00  0.00    +0.000 C 
ATOM     15  C   UNL     1      -0.025  10.409  21.596  0.00  0.00    +0.000 C 
ATOM     16  C   UNL     1      -0.237   8.913  21.468  0.00  0.00    +0.000 C 
ATOM     17  O   UNL     1      -0.888   8.259  22.282  0.00  0.00    +0.000 OA
ATOM     18  O   UNL     1       0.458   8.291  20.488  0.00  0.00    +0.000 OA
ENDROOT
BRANCH   1  23
ATOM     19  C   UNL     1       2.524   6.972  19.042  0.00  0.00    +0.000 A 
ATOM     20  O   UNL     1       3.607   6.630  18.300  0.00  0.00    +0.000 OA
ATOM     21  C   UNL     1       3.839   7.661  17.448  0.00  0.00    +0.000 A 
ATOM     22  C   UNL     1       2.919   8.665  17.646  0.00  0.00    +0.000 A 
ATOM     23  C   UNL     1       2.042   8.215  18.679  0.00  0.00    +0.000 A 
BRANCH  19  25
ATOM     24  C   UNL     1       1.707   5.245  20.831  0.00  0.00    +0.000 C 
ATOM     25  C   UNL     1       2.091   6.035  20.012  0.00  0.00    +0.000 C 
ENDBRANCH  19  25
ENDBRANCH   1  23
BRANCH  10  26
ATOM     26  C   UNL     1      -0.673  15.606  22.922  0.00  0.00    +0.000 C 
ATOM     27  O   UNL     1      -1.529  16.436  22.644  0.00  0.00    +0.000 OA
BRANCH  26  28
ATOM     28  O   UNL     1      -0.300  15.273  24.189  0.00  0.00    +0.000 OA
ATOM     29  C   UNL     1      -1.349  15.383  25.158  0.00  0.00    +0.000 C 
ENDBRANCH  26  28
ENDBRANCH  10  26
BRANCH   8  30
ATOM     30  O   UNL     1       1.196  15.753  18.366  0.00  0.00    +0.000 OA
BRANCH  30  31
ATOM     31  C   UNL     1       2.415  16.321  18.126  0.00  0.00    +0.000 C 
ATOM     32  C   UNL     1       3.548  15.383  18.405  0.00  0.00    +0.000 C 
ATOM     33  O   UNL     1       2.572  17.453  17.691  0.00  0.00    +0.000 OA
ENDBRANCH  30  31
ENDBRANCH   8  30
TORSDOF 6
ENDMDL
MODEL 8
REMARK VINA RESULT:      -5.9      2.688      3.296
REMARK  Name = 
REMARK  10 active torsions:
REMARK  status: ('A' for Active; 'I' for Inactive)
REMARK    1  A    between atoms: C_2  and  C_3
REMARK    2  A    between atoms: C_7  and  C_8
REMARK    3  A    between atoms: C_10  and  C_11
REMARK    4  A    between atoms: C_15  and  O_16
REMARK    5  A    between atoms: O_16  and  C_17
REMARK    6  A    between atoms: C_17  and  C_18
REMARK    7  A    between atoms: C_21  and  C_22
REMARK    8  A    between atoms: C_22  and  O_24
REMARK    9  A    between atoms: O_24  and  C_25
REMARK   10  A    between atoms: C_26  and  C_27
REMARK                            x       y       z     vdW  Elec       q    Type
REMARK                         _______ _______ _______ _____ _____    ______ ____
ROOT
ATOM      1  C   UNL     1      -0.217  12.540  20.738  0.00  0.00    +0.000 C 
ATOM      2  C   UNL     1      -1.737  12.630  20.537  0.00  0.00    +0.000 C 
ATOM      3  C   UNL     1      -2.305  13.917  21.199  0.00  0.00    +0.000 C 
ATOM      4  C   UNL     1      -1.928  13.912  22.701  0.00  0.00    +0.000 C 
ATOM      5  C   UNL     1      -3.853  14.052  20.933  0.00  0.00    +0.000 C 
ATOM      6  C   UNL     1      -4.751  12.955  21.528  0.00  0.00    +0.000 C 
ATOM      7  O   UNL     1      -4.374  12.183  22.405  0.00  0.00    +0.000 OA
ATOM      8  C   UNL     1      -6.173  12.905  20.941  0.00  0.00    +0.000 C 
ATOM      9  C   UNL     1      -6.822  14.283  21.126  0.00  0.00    +0.000 C 
ATOM     10  C   UNL     1      -5.954  15.452  20.594  0.00  0.00    +0.000 C 
ATOM     11  C   UNL     1      -4.506  15.457  21.228  0.00  0.00    +0.000 C 
ATOM     12  C   UNL     1      -4.633  15.775  22.740  0.00  0.00    +0.000 C 
ATOM     13  C   UNL     1      -3.635  16.555  20.557  0.00  0.00    +0.000 C 
ATOM     14  C   UNL     1      -2.136  16.441  20.847  0.00  0.00    +0.000 C 
ATOM     15  C   UNL     1      -1.593  15.066  20.446  0.00  0.00    +0.000 C 
ATOM     16  C   UNL     1      -0.082  14.995  20.555  0.00  0.00    +0.000 C 
ATOM     17  O   UNL     1       0.628  15.998  20.629  0.00  0.00    +0.000 OA
ATOM     18  O   UNL     1       0.473  13.771  20.411  0.00  0.00    +0.000 OA
ENDROOT
BRANCH   1  23
ATOM     19  C   UNL     1       0.471  10.079  20.377  0.00  0.00    +0.000 A 
ATOM     20  O   UNL     1       1.126   9.332  19.454  0.00  0.00    +0.000 OA
ATOM     21  C   UNL     1       1.492  10.175  18.456  0.00  0.00    +0.000 A 
ATOM     22  C   UNL     1       1.086  11.459  18.738  0.00  0.00    +0.000 A 
ATOM     23  C   UNL     1       0.400  11.403  19.989  0.00  0.00    +0.000 A 
BRANCH  19  25
ATOM     24  C   UNL     1      -0.403   8.824  22.501  0.00  0.00    +0.000 C 
ATOM     25  C   UNL     1      -0.011   9.401  21.525  0.00  0.00    +0.000 C 
ENDBRANCH  19  25
ENDBRANCH   1  23
BRANCH  10  26
ATOM     26  C   UNL     1      -6.707  16.773  20.796  0.00  0.00    +0.000 C 
ATOM     27  O   UNL     1      -7.240  17.113  21.844  0.00  0.00    +0.000 OA
BRANCH  26  28
ATOM     28  O   UNL     1      -6.676  17.529  19.662  0.00  0.00    +0.000 OA
ATOM     29  C   UNL     1      -6.661  16.767  18.450  0.00  0.00    +0.000 C 
ENDBRANCH  26  28
ENDBRANCH  10  26
BRANCH   8  30
ATOM     30  O   UNL     1      -7.007  11.917  21.569  0.00  0.00    +0.000 OA
BRANCH  30  31
ATOM     31  C   UNL     1      -7.287  10.825  20.798  0.00  0.00    +0.000 C 
ATOM     32  C   UNL     1      -7.148  11.106  19.334  0.00  0.00    +0.000 C 
ATOM     33  O   UNL     1      -7.577   9.724  21.246  0.00  0.00    +0.000 OA
ENDBRANCH  30  31
ENDBRANCH   8  30
TORSDOF 6
ENDMDL
MODEL 9
REMARK VINA RESULT:      -5.9      2.520      5.365
REMARK  Name = 
REMARK  10 active torsions:
REMARK  status: ('A' for Active; 'I' for Inactive)
REMARK    1  A    between atoms: C_2  and  C_3
REMARK    2  A    between atoms: C_7  and  C_8
REMARK    3  A    between atoms: C_10  and  C_11
REMARK    4  A    between atoms: C_15  and  O_16
REMARK    5  A    between atoms: O_16  and  C_17
REMARK    6  A    between atoms: C_17  and  C_18
REMARK    7  A    between atoms: C_21  and  C_22
REMARK    8  A    between atoms: C_22  and  O_24
REMARK    9  A    between atoms: O_24  and  C_25
REMARK   10  A    between atoms: C_26  and  C_27
REMARK                            x       y       z     vdW  Elec       q    Type
REMARK                         _______ _______ _______ _____ _____    ______ ____
ROOT
ATOM      1  C   UNL     1       1.436  14.769  20.240  0.00  0.00    +0.000 C 
ATOM      2  C   UNL     1      -0.005  14.375  19.884  0.00  0.00    +0.000 C 
ATOM      3  C   UNL     1      -0.793  13.958  21.157  0.00  0.00    +0.000 C 
ATOM      4  C   UNL     1      -0.040  12.796  21.850  0.00  0.00    +0.000 C 
ATOM      5  C   UNL     1      -2.294  13.623  20.808  0.00  0.00    +0.000 C 
ATOM      6  C   UNL     1      -2.531  12.427  19.871  0.00  0.00    +0.000 C 
ATOM      7  O   UNL     1      -1.672  11.582  19.633  0.00  0.00    +0.000 OA
ATOM      8  C   UNL     1      -3.941  12.366  19.257  0.00  0.00    +0.000 C 
ATOM      9  C   UNL     1      -4.966  12.359  20.399  0.00  0.00    +0.000 C 
ATOM     10  C   UNL     1      -4.764  13.509  21.418  0.00  0.00    +0.000 C 
ATOM     11  C   UNL     1      -3.302  13.527  22.018  0.00  0.00    +0.000 C 
ATOM     12  C   UNL     1      -3.111  12.254  22.882  0.00  0.00    +0.000 C 
ATOM     13  C   UNL     1      -3.110  14.777  22.918  0.00  0.00    +0.000 C 
ATOM     14  C   UNL     1      -1.654  15.079  23.285  0.00  0.00    +0.000 C 
ATOM     15  C   UNL     1      -0.784  15.233  22.033  0.00  0.00    +0.000 C 
ATOM     16  C   UNL     1       0.616  15.710  22.367  0.00  0.00    +0.000 C 
ATOM     17  O   UNL     1       0.906  16.221  23.448  0.00  0.00    +0.000 OA
ATOM     18  O   UNL     1       1.514  15.690  21.355  0.00  0.00    +0.000 OA
ENDROOT
BRANCH   1  23
ATOM     19  C   UNL     1       1.937  16.503  18.396  0.00  0.00    +0.000 A 
ATOM     20  O   UNL     1       2.813  16.677  17.375  0.00  0.00    +0.000 OA
ATOM     21  C   UNL     1       3.641  15.601  17.382  0.00  0.00    +0.000 A 
ATOM     22  C   UNL     1       3.295  14.735  18.394  0.00  0.00    +0.000 A 
ATOM     23  C   UNL     1       2.189  15.327  19.075  0.00  0.00    +0.000 A 
BRANCH  19  25
ATOM     24  C   UNL     1       0.144  18.375  18.761  0.00  0.00    +0.000 C 
ATOM     25  C   UNL     1       0.965  17.517  18.585  0.00  0.00    +0.000 C 
ENDBRANCH  19  25
ENDBRANCH   1  23
BRANCH  10  26
ATOM     26  C   UNL     1      -5.857  13.430  22.493  0.00  0.00    +0.000 C 
ATOM     27  O   UNL     1      -6.092  12.438  23.169  0.00  0.00    +0.000 OA
BRANCH  26  28
ATOM     28  O   UNL     1      -6.509  14.620  22.611  0.00  0.00    +0.000 OA
ATOM     29  C   UNL     1      -6.918  14.935  23.947  0.00  0.00    +0.000 C 
ENDBRANCH  26  28
ENDBRANCH  10  26
BRANCH   8  30
ATOM     30  O   UNL     1      -4.152  11.199  18.445  0.00  0.00    +0.000 OA
BRANCH  30  31
ATOM     31  C   UNL     1      -4.294  11.445  17.109  0.00  0.00    +0.000 C 
ATOM     32  C   UNL     1      -3.234  10.778  16.287  0.00  0.00    +0.000 C 
ATOM     33  O   UNL     1      -5.206  12.099  16.623  0.00  0.00    +0.000 OA
ENDBRANCH  30  31
ENDBRANCH   8  30
TORSDOF 6
ENDMDL
