MODEL 1
REMARK VINA RESULT:      -8.8      0.000      0.000
REMARK  Name = 
REMARK  12 active torsions:
REMARK  status: ('A' for Active; 'I' for Inactive)
REMARK    1  A    between atoms: C_1  and  C_2
REMARK    2  A    between atoms: C_2  and  N_3
REMARK    3  A    between atoms: C_2  and  C_26
REMARK    4  A    between atoms: N_6  and  C_7
REMARK    5  A    between atoms: C_7  and  C_8
REMARK    6  A    between atoms: C_8  and  C_9
REMARK    7  A    between atoms: C_9  and  C_10
REMARK    8  A    between atoms: C_10  and  N_11
REMARK    9  A    between atoms: C_10  and  C_22
REMARK   10  A    between atoms: N_11  and  S_12
REMARK   11  A    between atoms: S_12  and  C_15
REMARK   12  A    between atoms: N_24  and  O_25
REMARK                            x       y       z     vdW  Elec       q    Type
REMARK                         _______ _______ _______ _____ _____    ______ ____
ROOT
ATOM      1  C   UNL     1       6.376   4.466  17.156  0.00  0.00    +0.000 C 
ENDROOT
BRANCH   1   2
ATOM      2  C   UNL     1       6.676   4.465  15.621  0.00  0.00    +0.000 C 
ATOM      3  O   UNL     1       6.123   3.696  14.836  0.00  0.00    +0.000 OA
ATOM      4  N   UNL     1       7.598   5.397  15.193  0.00  0.00    +0.000 N 
ATOM      5  H   UNL     1       7.760   6.259  15.711  0.00  0.00    +0.000 HD
BRANCH   4   6
ATOM      6  O   UNL     1       7.831   5.450  13.797  0.00  0.00    +0.000 OA
ATOM      7  H   UNL     1       7.975   6.407  13.633  0.00  0.00    +0.000 HD
ENDBRANCH   4   6
ENDBRANCH   1   2
BRANCH   1   8
ATOM      8  N   UNL     1       5.225   5.386  17.260  0.00  0.00    +0.000 NA
ATOM      9  H   UNL     1       4.656   5.474  16.397  0.00  0.00    +0.000 HD
BRANCH   8  10
ATOM     10  S   UNL     1       4.192   5.650  18.578  0.00  0.00    +0.000 S 
ATOM     11  O   UNL     1       4.973   5.621  19.794  0.00  0.00    +0.000 OA
ATOM     12  O   UNL     1       3.528   6.854  18.133  0.00  0.00    +0.000 OA
BRANCH  10  13
ATOM     13  C   UNL     1       2.970   4.346  18.570  0.00  0.00    +0.000 A 
ATOM     14  C   UNL     1       3.077   3.242  17.707  0.00  0.00    +0.000 A 
ATOM     15  C   UNL     1       2.174   2.176  17.767  0.00  0.00    +0.000 A 
ATOM     16  C   UNL     1       1.114   2.218  18.661  0.00  0.00    +0.000 A 
ATOM     17  C   UNL     1       0.971   3.315  19.501  0.00  0.00    +0.000 A 
ATOM     18  C   UNL     1       1.904   4.371  19.485  0.00  0.00    +0.000 A 
ATOM     19 CL   UNL     1       1.651   5.599  20.668  0.00  0.00    +0.000 Cl
ENDBRANCH  10  13
ENDBRANCH   8  10
ENDBRANCH   1   8
BRANCH   1  20
ATOM     20  C   UNL     1       7.683   4.864  17.861  0.00  0.00    +0.000 C 
BRANCH  20  21
ATOM     21  C   UNL     1       7.787   6.115  18.754  0.00  0.00    +0.000 C 
BRANCH  21  22
ATOM     22  C   UNL     1       8.025   7.464  18.067  0.00  0.00    +0.000 C 
BRANCH  22  26
ATOM     23  N   UNL     1       9.718  10.419  19.409  0.00  0.00    +0.000 N 
ATOM     24  C   UNL     1       8.788   9.743  18.662  0.00  0.00    +0.000 C 
ATOM     25  O   UNL     1       8.083  10.293  17.825  0.00  0.00    +0.000 OA
ATOM     26  N   UNL     1       8.763   8.395  18.918  0.00  0.00    +0.000 N 
ATOM     27  H   UNL     1      10.393   9.848  19.889  0.00  0.00    +0.000 HD
ATOM     28  H   UNL     1       8.891   8.144  19.888  0.00  0.00    +0.000 HD
BRANCH  23  30
ATOM     29  C   UNL     1      11.586  11.700  18.419  0.00  0.00    +0.000 C 
ATOM     30  C   UNL     1      10.159  11.750  18.983  0.00  0.00    +0.000 C 
BRANCH  30  31
ATOM     31  C   UNL     1      10.099  12.793  20.086  0.00  0.00    +0.000 A 
ATOM     32  C   UNL     1       9.192  12.602  21.146  0.00  0.00    +0.000 A 
ATOM     33  C   UNL     1       9.019  13.578  22.127  0.00  0.00    +0.000 A 
ATOM     34  C   UNL     1       9.754  14.759  22.067  0.00  0.00    +0.000 A 
ATOM     35  C   UNL     1      10.664  14.959  21.030  0.00  0.00    +0.000 A 
ATOM     36  C   UNL     1      10.833  13.984  20.043  0.00  0.00    +0.000 A 
ENDBRANCH  30  31
ENDBRANCH  23  30
ENDBRANCH  22  26
ENDBRANCH  21  22
ENDBRANCH  20  21
ENDBRANCH   1  20
TORSDOF 11
ENDMDL
MODEL 2
REMARK VINA RESULT:      -7.9      5.317      7.541
REMARK  Name = 
REMARK  12 active torsions:
REMARK  status: ('A' for Active; 'I' for Inactive)
REMARK    1  A    between atoms: C_1  and  C_2
REMARK    2  A    between atoms: C_2  and  N_3
REMARK    3  A    between atoms: C_2  and  C_26
REMARK    4  A    between atoms: N_6  and  C_7
REMARK    5  A    between atoms: C_7  and  C_8
REMARK    6  A    between atoms: C_8  and  C_9
REMARK    7  A    between atoms: C_9  and  C_10
REMARK    8  A    between atoms: C_10  and  N_11
REMARK    9  A    between atoms: C_10  and  C_22
REMARK   10  A    between atoms: N_11  and  S_12
REMARK   11  A    between atoms: S_12  and  C_15
REMARK   12  A    between atoms: N_24  and  O_25
REMARK                            x       y       z     vdW  Elec       q    Type
REMARK                         _______ _______ _______ _____ _____    ______ ____
ROOT
ATOM      1  C   UNL     1       5.324   4.651  18.594  0.00  0.00    +0.000 C 
ENDROOT
BRANCH   1   2
ATOM      2  C   UNL     1       6.681   5.123  17.978  0.00  0.00    +0.000 C 
ATOM      3  O   UNL     1       7.735   4.509  18.141  0.00  0.00    +0.000 OA
ATOM      4  N   UNL     1       6.625   6.274  17.220  0.00  0.00    +0.000 N 
ATOM      5  H   UNL     1       5.764   6.562  16.758  0.00  0.00    +0.000 HD
BRANCH   4   6
ATOM      6  O   UNL     1       7.835   6.676  16.604  0.00  0.00    +0.000 OA
ATOM      7  H   UNL     1       7.584   7.509  16.148  0.00  0.00    +0.000 HD
ENDBRANCH   4   6
ENDBRANCH   1   2
BRANCH   1   8
ATOM      8  N   UNL     1       5.620   3.263  19.003  0.00  0.00    +0.000 NA
ATOM      9  H   UNL     1       6.566   3.118  19.404  0.00  0.00    +0.000 HD
BRANCH   8  10
ATOM     10  S   UNL     1       4.587   2.121  19.713  0.00  0.00    +0.000 S 
ATOM     11  O   UNL     1       4.455   0.994  18.819  0.00  0.00    +0.000 OA
ATOM     12  O   UNL     1       5.217   1.992  21.008  0.00  0.00    +0.000 OA
BRANCH  10  13
ATOM     13  C   UNL     1       3.010   2.919  19.978  0.00  0.00    +0.000 A 
ATOM     14  C   UNL     1       2.780   3.746  21.090  0.00  0.00    +0.000 A 
ATOM     15  C   UNL     1       1.579   4.446  21.247  0.00  0.00    +0.000 A 
ATOM     16  C   UNL     1       0.563   4.292  20.315  0.00  0.00    +0.000 A 
ATOM     17  C   UNL     1       0.757   3.454  19.224  0.00  0.00    +0.000 A 
ATOM     18  C   UNL     1       1.982   2.784  19.029  0.00  0.00    +0.000 A 
ATOM     19 CL   UNL     1       2.104   1.878  17.568  0.00  0.00    +0.000 Cl
ENDBRANCH  10  13
ENDBRANCH   8  10
ENDBRANCH   1   8
BRANCH   1  20
ATOM     20  C   UNL     1       4.249   4.871  17.516  0.00  0.00    +0.000 C 
BRANCH  20  21
ATOM     21  C   UNL     1       3.161   5.954  17.650  0.00  0.00    +0.000 C 
BRANCH  21  22
ATOM     22  C   UNL     1       3.461   7.161  18.544  0.00  0.00    +0.000 C 
BRANCH  22  26
ATOM     23  N   UNL     1       0.647   9.397  19.239  0.00  0.00    +0.000 N 
ATOM     24  C   UNL     1       1.616   8.811  18.466  0.00  0.00    +0.000 C 
ATOM     25  O   UNL     1       1.909   9.217  17.349  0.00  0.00    +0.000 OA
ATOM     26  N   UNL     1       2.245   7.762  19.088  0.00  0.00    +0.000 N 
ATOM     27  H   UNL     1       0.648   9.139  20.212  0.00  0.00    +0.000 HD
ATOM     28  H   UNL     1       1.642   7.176  19.649  0.00  0.00    +0.000 HD
BRANCH  23  30
ATOM     29  C   UNL     1       0.340  11.689  20.111  0.00  0.00    +0.000 C 
ATOM     30  C   UNL     1       0.179  10.746  18.911  0.00  0.00    +0.000 C 
BRANCH  30  31
ATOM     31  C   UNL     1      -1.264  10.789  18.437  0.00  0.00    +0.000 A 
ATOM     32  C   UNL     1      -1.627  10.031  17.308  0.00  0.00    +0.000 A 
ATOM     33  C   UNL     1      -2.910  10.117  16.766  0.00  0.00    +0.000 A 
ATOM     34  C   UNL     1      -3.852  10.960  17.349  0.00  0.00    +0.000 A 
ATOM     35  C   UNL     1      -3.513  11.710  18.473  0.00  0.00    +0.000 A 
ATOM     36  C   UNL     1      -2.226  11.629  19.013  0.00  0.00    +0.000 A 
ENDBRANCH  30  31
ENDBRANCH  23  30
ENDBRANCH  22  26
ENDBRANCH  21  22
ENDBRANCH  20  21
ENDBRANCH   1  20
TORSDOF 11
ENDMDL
MODEL 3
REMARK VINA RESULT:      -7.9      5.300      7.886
REMARK  Name = 
REMARK  12 active torsions:
REMARK  status: ('A' for Active; 'I' for Inactive)
REMARK    1  A    between atoms: C_1  and  C_2
REMARK    2  A    between atoms: C_2  and  N_3
REMARK    3  A    between atoms: C_2  and  C_26
REMARK    4  A    between atoms: N_6  and  C_7
REMARK    5  A    between atoms: C_7  and  C_8
REMARK    6  A    between atoms: C_8  and  C_9
REMARK    7  A    between atoms: C_9  and  C_10
REMARK    8  A    between atoms: C_10  and  N_11
REMARK    9  A    between atoms: C_10  and  C_22
REMARK   10  A    between atoms: N_11  and  S_12
REMARK   11  A    between atoms: S_12  and  C_15
REMARK   12  A    between atoms: N_24  and  O_25
REMARK                            x       y       z     vdW  Elec       q    Type
REMARK                         _______ _______ _______ _____ _____    ______ ____
ROOT
ATOM      1  C   UNL     1       5.707   4.957  18.343  0.00  0.00    +0.000 C 
ENDROOT
BRANCH   1   2
ATOM      2  C   UNL     1       6.317   5.565  17.038  0.00  0.00    +0.000 C 
ATOM      3  O   UNL     1       6.405   6.778  16.847  0.00  0.00    +0.000 OA
ATOM      4  N   UNL     1       6.769   4.652  16.108  0.00  0.00    +0.000 N 
ATOM      5  H   UNL     1       7.066   3.718  16.384  0.00  0.00    +0.000 HD
BRANCH   4   6
ATOM      6  O   UNL     1       7.381   5.191  14.951  0.00  0.00    +0.000 OA
ATOM      7  H   UNL     1       8.043   5.814  15.321  0.00  0.00    +0.000 HD
ENDBRANCH   4   6
ENDBRANCH   1   2
BRANCH   1   8
ATOM      8  N   UNL     1       5.316   3.598  17.915  0.00  0.00    +0.000 NA
ATOM      9  H   UNL     1       5.894   2.832  18.310  0.00  0.00    +0.000 HD
BRANCH   8  10
ATOM     10  S   UNL     1       3.763   2.975  17.644  0.00  0.00    +0.000 S 
ATOM     11  O   UNL     1       3.140   3.726  16.577  0.00  0.00    +0.000 OA
ATOM     12  O   UNL     1       4.082   1.573  17.499  0.00  0.00    +0.000 OA
BRANCH  10  13
ATOM     13  C   UNL     1       2.846   3.146  19.169  0.00  0.00    +0.000 A 
ATOM     14  C   UNL     1       1.588   3.772  19.206  0.00  0.00    +0.000 A 
ATOM     15  C   UNL     1       0.828   3.820  20.379  0.00  0.00    +0.000 A 
ATOM     16  C   UNL     1       1.336   3.285  21.554  0.00  0.00    +0.000 A 
ATOM     17  C   UNL     1       2.592   2.689  21.547  0.00  0.00    +0.000 A 
ATOM     18  C   UNL     1       3.343   2.590  20.359  0.00  0.00    +0.000 A 
ATOM     19 CL   UNL     1       4.826   1.720  20.495  0.00  0.00    +0.000 Cl
ENDBRANCH  10  13
ENDBRANCH   8  10
ENDBRANCH   1   8
BRANCH   1  20
ATOM     20  C   UNL     1       4.596   5.917  18.799  0.00  0.00    +0.000 C 
BRANCH  20  21
ATOM     21  C   UNL     1       3.630   6.589  17.804  0.00  0.00    +0.000 C 
BRANCH  21  22
ATOM     22  C   UNL     1       3.304   8.071  18.015  0.00  0.00    +0.000 C 
BRANCH  22  26
ATOM     23  N   UNL     1       0.028   9.685  17.780  0.00  0.00    +0.000 N 
ATOM     24  C   UNL     1       1.395   9.641  17.878  0.00  0.00    +0.000 C 
ATOM     25  O   UNL     1       2.074  10.628  18.128  0.00  0.00    +0.000 OA
ATOM     26  N   UNL     1       1.909   8.379  17.711  0.00  0.00    +0.000 N 
ATOM     27  H   UNL     1      -0.442   8.795  17.805  0.00  0.00    +0.000 HD
ATOM     28  H   UNL     1       1.448   7.821  17.006  0.00  0.00    +0.000 HD
BRANCH  23  30
ATOM     29  C   UNL     1      -0.856  10.708  19.849  0.00  0.00    +0.000 C 
ATOM     30  C   UNL     1      -0.699  10.834  18.328  0.00  0.00    +0.000 C 
BRANCH  30  31
ATOM     31  C   UNL     1      -2.069  11.040  17.703  0.00  0.00    +0.000 A 
ATOM     32  C   UNL     1      -3.092  11.603  18.489  0.00  0.00    +0.000 A 
ATOM     33  C   UNL     1      -4.393  11.716  18.001  0.00  0.00    +0.000 A 
ATOM     34  C   UNL     1      -4.692  11.271  16.715  0.00  0.00    +0.000 A 
ATOM     35  C   UNL     1      -3.688  10.721  15.920  0.00  0.00    +0.000 A 
ATOM     36  C   UNL     1      -2.385  10.602  16.411  0.00  0.00    +0.000 A 
ENDBRANCH  30  31
ENDBRANCH  23  30
ENDBRANCH  22  26
ENDBRANCH  21  22
ENDBRANCH  20  21
ENDBRANCH   1  20
TORSDOF 11
ENDMDL
MODEL 4
REMARK VINA RESULT:      -7.9      1.834      2.162
REMARK  Name = 
REMARK  12 active torsions:
REMARK  status: ('A' for Active; 'I' for Inactive)
REMARK    1  A    between atoms: C_1  and  C_2
REMARK    2  A    between atoms: C_2  and  N_3
REMARK    3  A    between atoms: C_2  and  C_26
REMARK    4  A    between atoms: N_6  and  C_7
REMARK    5  A    between atoms: C_7  and  C_8
REMARK    6  A    between atoms: C_8  and  C_9
REMARK    7  A    between atoms: C_9  and  C_10
REMARK    8  A    between atoms: C_10  and  N_11
REMARK    9  A    between atoms: C_10  and  C_22
REMARK   10  A    between atoms: N_11  and  S_12
REMARK   11  A    between atoms: S_12  and  C_15
REMARK   12  A    between atoms: N_24  and  O_25
REMARK                            x       y       z     vdW  Elec       q    Type
REMARK                         _______ _______ _______ _____ _____    ______ ____
ROOT
ATOM      1  C   UNL     1       5.755   5.050  17.280  0.00  0.00    +0.000 C 
ENDROOT
BRANCH   1   2
ATOM      2  C   UNL     1       6.141   5.576  15.859  0.00  0.00    +0.000 C 
ATOM      3  O   UNL     1       5.467   6.408  15.252  0.00  0.00    +0.000 OA
ATOM      4  N   UNL     1       7.302   5.057  15.325  0.00  0.00    +0.000 N 
ATOM      5  H   UNL     1       8.047   4.703  15.922  0.00  0.00    +0.000 HD
BRANCH   4   6
ATOM      6  O   UNL     1       7.696   5.573  14.067  0.00  0.00    +0.000 OA
ATOM      7  H   UNL     1       8.620   5.864  14.227  0.00  0.00    +0.000 HD
ENDBRANCH   4   6
ENDBRANCH   1   2
BRANCH   1   8
ATOM      8  N   UNL     1       4.295   4.854  17.167  0.00  0.00    +0.000 NA
ATOM      9  H   UNL     1       3.835   5.414  16.423  0.00  0.00    +0.000 HD
BRANCH   8  10
ATOM     10  S   UNL     1       3.396   3.431  17.360  0.00  0.00    +0.000 S 
ATOM     11  O   UNL     1       2.356   3.397  16.357  0.00  0.00    +0.000 OA
ATOM     12  O   UNL     1       4.468   2.462  17.373  0.00  0.00    +0.000 OA
BRANCH  10  13
ATOM     13  C   UNL     1       2.698   3.459  19.006  0.00  0.00    +0.000 A 
ATOM     14  C   UNL     1       1.509   4.150  19.290  0.00  0.00    +0.000 A 
ATOM     15  C   UNL     1       0.912   4.093  20.554  0.00  0.00    +0.000 A 
ATOM     16  C   UNL     1       1.524   3.380  21.575  0.00  0.00    +0.000 A 
ATOM     17  C   UNL     1       2.718   2.715  21.324  0.00  0.00    +0.000 A 
ATOM     18  C   UNL     1       3.300   2.724  20.041  0.00  0.00    +0.000 A 
ATOM     19 CL   UNL     1       4.715   1.754  19.866  0.00  0.00    +0.000 Cl
ENDBRANCH  10  13
ENDBRANCH   8  10
ENDBRANCH   1   8
BRANCH   1  20
ATOM     20  C   UNL     1       6.266   6.091  18.290  0.00  0.00    +0.000 C 
BRANCH  20  21
ATOM     21  C   UNL     1       7.710   6.627  18.258  0.00  0.00    +0.000 C 
BRANCH  21  22
ATOM     22  C   UNL     1       7.921   8.089  17.851  0.00  0.00    +0.000 C 
BRANCH  22  26
ATOM     23  N   UNL     1       9.960  10.616  19.540  0.00  0.00    +0.000 N 
ATOM     24  C   UNL     1       9.005  10.159  18.669  0.00  0.00    +0.000 C 
ATOM     25  O   UNL     1       8.491  10.871  17.816  0.00  0.00    +0.000 OA
ATOM     26  N   UNL     1       8.721   8.825  18.826  0.00  0.00    +0.000 N 
ATOM     27  H   UNL     1      10.476   9.907  20.035  0.00  0.00    +0.000 HD
ATOM     28  H   UNL     1       8.709   8.502  19.783  0.00  0.00    +0.000 HD
BRANCH  23  30
ATOM     29  C   UNL     1      12.165  11.732  19.544  0.00  0.00    +0.000 C 
ATOM     30  C   UNL     1      10.666  11.866  19.249  0.00  0.00    +0.000 C 
BRANCH  30  31
ATOM     31  C   UNL     1      10.116  13.064  20.006  0.00  0.00    +0.000 A 
ATOM     32  C   UNL     1       9.962  12.967  21.402  0.00  0.00    +0.000 A 
ATOM     33  C   UNL     1       9.364  13.995  22.132  0.00  0.00    +0.000 A 
ATOM     34  C   UNL     1       8.915  15.138  21.477  0.00  0.00    +0.000 A 
ATOM     35  C   UNL     1       9.069  15.254  20.097  0.00  0.00    +0.000 A 
ATOM     36  C   UNL     1       9.662  14.223  19.364  0.00  0.00    +0.000 A 
ENDBRANCH  30  31
ENDBRANCH  23  30
ENDBRANCH  22  26
ENDBRANCH  21  22
ENDBRANCH  20  21
ENDBRANCH   1  20
TORSDOF 11
ENDMDL
MODEL 5
REMARK VINA RESULT:      -7.9      5.363      7.337
REMARK  Name = 
REMARK  12 active torsions:
REMARK  status: ('A' for Active; 'I' for Inactive)
REMARK    1  A    between atoms: C_1  and  C_2
REMARK    2  A    between atoms: C_2  and  N_3
REMARK    3  A    between atoms: C_2  and  C_26
REMARK    4  A    between atoms: N_6  and  C_7
REMARK    5  A    between atoms: C_7  and  C_8
REMARK    6  A    between atoms: C_8  and  C_9
REMARK    7  A    between atoms: C_9  and  C_10
REMARK    8  A    between atoms: C_10  and  N_11
REMARK    9  A    between atoms: C_10  and  C_22
REMARK   10  A    between atoms: N_11  and  S_12
REMARK   11  A    between atoms: S_12  and  C_15
REMARK   12  A    between atoms: N_24  and  O_25
REMARK                            x       y       z     vdW  Elec       q    Type
REMARK                         _______ _______ _______ _____ _____    ______ ____
ROOT
ATOM      1  C   UNL     1       5.785   4.131  18.210  0.00  0.00    +0.000 C 
ENDROOT
BRANCH   1   2
ATOM      2  C   UNL     1       6.913   4.610  17.240  0.00  0.00    +0.000 C 
ATOM      3  O   UNL     1       8.072   4.201  17.314  0.00  0.00    +0.000 OA
ATOM      4  N   UNL     1       6.527   5.516  16.275  0.00  0.00    +0.000 N 
ATOM      5  H   UNL     1       5.564   5.563  15.948  0.00  0.00    +0.000 HD
BRANCH   4   6
ATOM      6  O   UNL     1       7.526   5.908  15.351  0.00  0.00    +0.000 OA
ATOM      7  H   UNL     1       7.037   6.496  14.734  0.00  0.00    +0.000 HD
ENDBRANCH   4   6
ENDBRANCH   1   2
BRANCH   1   8
ATOM      8  N   UNL     1       4.713   3.717  17.281  0.00  0.00    +0.000 NA
ATOM      9  H   UNL     1       4.981   3.713  16.278  0.00  0.00    +0.000 HD
BRANCH   8  10
ATOM     10  S   UNL     1       3.524   2.528  17.494  0.00  0.00    +0.000 S 
ATOM     11  O   UNL     1       2.620   2.568  16.367  0.00  0.00    +0.000 OA
ATOM     12  O   UNL     1       4.365   1.382  17.751  0.00  0.00    +0.000 OA
BRANCH  10  13
ATOM     13  C   UNL     1       2.666   2.897  19.018  0.00  0.00    +0.000 A 
ATOM     14  C   UNL     1       3.055   2.323  20.240  0.00  0.00    +0.000 A 
ATOM     15  C   UNL     1       2.446   2.685  21.446  0.00  0.00    +0.000 A 
ATOM     16  C   UNL     1       1.398   3.594  21.445  0.00  0.00    +0.000 A 
ATOM     17  C   UNL     1       0.976   4.150  20.244  0.00  0.00    +0.000 A 
ATOM     18  C   UNL     1       1.617   3.832  19.030  0.00  0.00    +0.000 A 
ATOM     19 CL   UNL     1       1.051   4.694  17.648  0.00  0.00    +0.000 Cl
ENDBRANCH  10  13
ENDBRANCH   8  10
ENDBRANCH   1   8
BRANCH   1  20
ATOM     20  C   UNL     1       5.498   5.302  19.165  0.00  0.00    +0.000 C 
BRANCH  20  21
ATOM     21  C   UNL     1       4.075   5.845  19.395  0.00  0.00    +0.000 C 
BRANCH  21  22
ATOM     22  C   UNL     1       3.610   7.020  18.529  0.00  0.00    +0.000 C 
BRANCH  22  26
ATOM     23  N   UNL     1       0.818   9.305  19.146  0.00  0.00    +0.000 N 
ATOM     24  C   UNL     1       1.772   8.673  18.390  0.00  0.00    +0.000 C 
ATOM     25  O   UNL     1       2.047   9.015  17.248  0.00  0.00    +0.000 OA
ATOM     26  N   UNL     1       2.407   7.656  19.059  0.00  0.00    +0.000 N 
ATOM     27  H   UNL     1       0.834   9.102  20.131  0.00  0.00    +0.000 HD
ATOM     28  H   UNL     1       1.811   7.105  19.661  0.00  0.00    +0.000 HD
BRANCH  23  30
ATOM     29  C   UNL     1       0.595  11.658  19.871  0.00  0.00    +0.000 C 
ATOM     30  C   UNL     1       0.350  10.637  18.752  0.00  0.00    +0.000 C 
BRANCH  30  31
ATOM     31  C   UNL     1      -1.118  10.673  18.360  0.00  0.00    +0.000 A 
ATOM     32  C   UNL     1      -1.549   9.878  17.281  0.00  0.00    +0.000 A 
ATOM     33  C   UNL     1      -2.860   9.953  16.812  0.00  0.00    +0.000 A 
ATOM     34  C   UNL     1      -3.764  10.823  17.417  0.00  0.00    +0.000 A 
ATOM     35  C   UNL     1      -3.356  11.609  18.493  0.00  0.00    +0.000 A 
ATOM     36  C   UNL     1      -2.041  11.539  18.960  0.00  0.00    +0.000 A 
ENDBRANCH  30  31
ENDBRANCH  23  30
ENDBRANCH  22  26
ENDBRANCH  21  22
ENDBRANCH  20  21
ENDBRANCH   1  20
TORSDOF 11
ENDMDL
MODEL 6
REMARK VINA RESULT:      -7.8      5.514      7.229
REMARK  Name = 
REMARK  12 active torsions:
REMARK  status: ('A' for Active; 'I' for Inactive)
REMARK    1  A    between atoms: C_1  and  C_2
REMARK    2  A    between atoms: C_2  and  N_3
REMARK    3  A    between atoms: C_2  and  C_26
REMARK    4  A    between atoms: N_6  and  C_7
REMARK    5  A    between atoms: C_7  and  C_8
REMARK    6  A    between atoms: C_8  and  C_9
REMARK    7  A    between atoms: C_9  and  C_10
REMARK    8  A    between atoms: C_10  and  N_11
REMARK    9  A    between atoms: C_10  and  C_22
REMARK   10  A    between atoms: N_11  and  S_12
REMARK   11  A    between atoms: S_12  and  C_15
REMARK   12  A    between atoms: N_24  and  O_25
REMARK                            x       y       z     vdW  Elec       q    Type
REMARK                         _______ _______ _______ _____ _____    ______ ____
ROOT
ATOM      1  C   UNL     1       4.870   5.364  18.201  0.00  0.00    +0.000 C 
ENDROOT
BRANCH   1   2
ATOM      2  C   UNL     1       6.328   4.920  18.547  0.00  0.00    +0.000 C 
ATOM      3  O   UNL     1       6.786   4.972  19.688  0.00  0.00    +0.000 OA
ATOM      4  N   UNL     1       7.077   4.450  17.488  0.00  0.00    +0.000 N 
ATOM      5  H   UNL     1       6.634   4.039  16.669  0.00  0.00    +0.000 HD
BRANCH   4   6
ATOM      6  O   UNL     1       8.377   3.986  17.800  0.00  0.00    +0.000 OA
ATOM      7  H   UNL     1       8.897   4.237  17.006  0.00  0.00    +0.000 HD
ENDBRANCH   4   6
ENDBRANCH   1   2
BRANCH   1   8
ATOM      8  N   UNL     1       4.432   4.323  17.248  0.00  0.00    +0.000 NA
ATOM      9  H   UNL     1       5.184   3.940  16.643  0.00  0.00    +0.000 HD
BRANCH   8  10
ATOM     10  S   UNL     1       3.283   3.096  17.468  0.00  0.00    +0.000 S 
ATOM     11  O   UNL     1       2.240   3.252  16.479  0.00  0.00    +0.000 OA
ATOM     12  O   UNL     1       4.154   1.943  17.475  0.00  0.00    +0.000 OA
BRANCH  10  13
ATOM     13  C   UNL     1       2.629   3.267  19.122  0.00  0.00    +0.000 A 
ATOM     14  C   UNL     1       1.409   3.919  19.368  0.00  0.00    +0.000 A 
ATOM     15  C   UNL     1       0.850   3.968  20.650  0.00  0.00    +0.000 A 
ATOM     16  C   UNL     1       1.529   3.407  21.721  0.00  0.00    +0.000 A 
ATOM     17  C   UNL     1       2.753   2.785  21.506  0.00  0.00    +0.000 A 
ATOM     18  C   UNL     1       3.300   2.685  20.211  0.00  0.00    +0.000 A 
ATOM     19 CL   UNL     1       4.764   1.781  20.097  0.00  0.00    +0.000 Cl
ENDBRANCH  10  13
ENDBRANCH   8  10
ENDBRANCH   1   8
BRANCH   1  20
ATOM     20  C   UNL     1       4.957   6.813  17.695  0.00  0.00    +0.000 C 
BRANCH  20  21
ATOM     21  C   UNL     1       3.722   7.582  17.188  0.00  0.00    +0.000 C 
BRANCH  21  22
ATOM     22  C   UNL     1       2.601   7.875  18.191  0.00  0.00    +0.000 C 
BRANCH  22  26
ATOM     23  N   UNL     1      -0.028  10.412  17.970  0.00  0.00    +0.000 N 
ATOM     24  C   UNL     1       0.875   9.600  18.608  0.00  0.00    +0.000 C 
ATOM     25  O   UNL     1       0.881   9.440  19.821  0.00  0.00    +0.000 OA
ATOM     26  N   UNL     1       1.731   8.961  17.746  0.00  0.00    +0.000 N 
ATOM     27  H   UNL     1      -0.097  10.293  16.973  0.00  0.00    +0.000 HD
ATOM     28  H   UNL     1       2.038   9.517  16.961  0.00  0.00    +0.000 HD
BRANCH  23  30
ATOM     29  C   UNL     1      -2.490  10.569  17.816  0.00  0.00    +0.000 C 
ATOM     30  C   UNL     1      -1.244  10.831  18.673  0.00  0.00    +0.000 C 
BRANCH  30  31
ATOM     31  C   UNL     1      -1.229  12.291  19.093  0.00  0.00    +0.000 A 
ATOM     32  C   UNL     1      -0.332  13.169  18.455  0.00  0.00    +0.000 A 
ATOM     33  C   UNL     1      -0.202  14.493  18.875  0.00  0.00    +0.000 A 
ATOM     34  C   UNL     1      -0.970  14.962  19.938  0.00  0.00    +0.000 A 
ATOM     35  C   UNL     1      -1.869  14.109  20.573  0.00  0.00    +0.000 A 
ATOM     36  C   UNL     1      -1.997  12.780  20.158  0.00  0.00    +0.000 A 
ENDBRANCH  30  31
ENDBRANCH  23  30
ENDBRANCH  22  26
ENDBRANCH  21  22
ENDBRANCH  20  21
ENDBRANCH   1  20
TORSDOF 11
ENDMDL
MODEL 7
REMARK VINA RESULT:      -7.8      5.438      7.561
REMARK  Name = 
REMARK  12 active torsions:
REMARK  status: ('A' for Active; 'I' for Inactive)
REMARK    1  A    between atoms: C_1  and  C_2
REMARK    2  A    between atoms: C_2  and  N_3
REMARK    3  A    between atoms: C_2  and  C_26
REMARK    4  A    between atoms: N_6  and  C_7
REMARK    5  A    between atoms: C_7  and  C_8
REMARK    6  A    between atoms: C_8  and  C_9
REMARK    7  A    between atoms: C_9  and  C_10
REMARK    8  A    between atoms: C_10  and  N_11
REMARK    9  A    between atoms: C_10  and  C_22
REMARK   10  A    between atoms: N_11  and  S_12
REMARK   11  A    between atoms: S_12  and  C_15
REMARK   12  A    between atoms: N_24  and  O_25
REMARK                            x       y       z     vdW  Elec       q    Type
REMARK                         _______ _______ _______ _____ _____    ______ ____
ROOT
ATOM      1  C   UNL     1       5.870   5.171  17.708  0.00  0.00    +0.000 C 
ENDROOT
BRANCH   1   2
ATOM      2  C   UNL     1       6.959   4.979  16.603  0.00  0.00    +0.000 C 
ATOM      3  O   UNL     1       7.996   4.343  16.794  0.00  0.00    +0.000 OA
ATOM      4  N   UNL     1       6.682   5.559  15.383  0.00  0.00    +0.000 N 
ATOM      5  H   UNL     1       5.724   5.731  15.085  0.00  0.00    +0.000 HD
BRANCH   4   6
ATOM      6  O   UNL     1       7.630   5.338  14.356  0.00  0.00    +0.000 OA
ATOM      7  H   UNL     1       8.431   5.797  14.692  0.00  0.00    +0.000 HD
ENDBRANCH   4   6
ENDBRANCH   1   2
BRANCH   1   8
ATOM      8  N   UNL     1       5.389   3.792  17.931  0.00  0.00    +0.000 NA
ATOM      9  H   UNL     1       5.756   3.334  18.788  0.00  0.00    +0.000 HD
BRANCH   8  10
ATOM     10  S   UNL     1       3.855   3.139  17.624  0.00  0.00    +0.000 S 
ATOM     11  O   UNL     1       3.241   3.881  16.545  0.00  0.00    +0.000 OA
ATOM     12  O   UNL     1       4.205   1.745  17.482  0.00  0.00    +0.000 OA
BRANCH  10  13
ATOM     13  C   UNL     1       2.900   3.287  19.128  0.00  0.00    +0.000 A 
ATOM     14  C   UNL     1       1.662   3.951  19.152  0.00  0.00    +0.000 A 
ATOM     15  C   UNL     1       0.871   3.983  20.305  0.00  0.00    +0.000 A 
ATOM     16  C   UNL     1       1.329   3.393  21.474  0.00  0.00    +0.000 A 
ATOM     17  C   UNL     1       2.565   2.759  21.481  0.00  0.00    +0.000 A 
ATOM     18  C   UNL     1       3.347   2.676  20.312  0.00  0.00    +0.000 A 
ATOM     19 CL   UNL     1       4.797   1.755  20.457  0.00  0.00    +0.000 Cl
ENDBRANCH  10  13
ENDBRANCH   8  10
ENDBRANCH   1   8
BRANCH   1  20
ATOM     20  C   UNL     1       4.870   6.205  17.167  0.00  0.00    +0.000 C 
BRANCH  20  21
ATOM     21  C   UNL     1       4.006   7.078  18.097  0.00  0.00    +0.000 C 
BRANCH  21  22
ATOM     22  C   UNL     1       2.517   7.220  17.764  0.00  0.00    +0.000 C 
BRANCH  22  26
ATOM     23  N   UNL     1       0.958  10.505  18.179  0.00  0.00    +0.000 N 
ATOM     24  C   UNL     1       1.466   9.301  18.595  0.00  0.00    +0.000 C 
ATOM     25  O   UNL     1       1.315   8.876  19.733  0.00  0.00    +0.000 OA
ATOM     26  N   UNL     1       2.117   8.615  17.601  0.00  0.00    +0.000 N 
ATOM     27  H   UNL     1       0.936  10.651  17.183  0.00  0.00    +0.000 HD
ATOM     28  H   UNL     1       2.663   9.190  16.974  0.00  0.00    +0.000 HD
BRANCH  23  30
ATOM     29  C   UNL     1      -0.112  10.621  20.404  0.00  0.00    +0.000 C 
ATOM     30  C   UNL     1      -0.092  11.157  18.967  0.00  0.00    +0.000 C 
BRANCH  30  31
ATOM     31  C   UNL     1      -1.480  11.015  18.365  0.00  0.00    +0.000 A 
ATOM     32  C   UNL     1      -2.525  11.805  18.881  0.00  0.00    +0.000 A 
ATOM     33  C   UNL     1      -3.837  11.638  18.439  0.00  0.00    +0.000 A 
ATOM     34  C   UNL     1      -4.125  10.680  17.470  0.00  0.00    +0.000 A 
ATOM     35  C   UNL     1      -3.101   9.897  16.941  0.00  0.00    +0.000 A 
ATOM     36  C   UNL     1      -1.787  10.059  17.387  0.00  0.00    +0.000 A 
ENDBRANCH  30  31
ENDBRANCH  23  30
ENDBRANCH  22  26
ENDBRANCH  21  22
ENDBRANCH  20  21
ENDBRANCH   1  20
TORSDOF 11
ENDMDL
MODEL 8
REMARK VINA RESULT:      -7.7      5.902      8.065
REMARK  Name = 
REMARK  12 active torsions:
REMARK  status: ('A' for Active; 'I' for Inactive)
REMARK    1  A    between atoms: C_1  and  C_2
REMARK    2  A    between atoms: C_2  and  N_3
REMARK    3  A    between atoms: C_2  and  C_26
REMARK    4  A    between atoms: N_6  and  C_7
REMARK    5  A    between atoms: C_7  and  C_8
REMARK    6  A    between atoms: C_8  and  C_9
REMARK    7  A    between atoms: C_9  and  C_10
REMARK    8  A    between atoms: C_10  and  N_11
REMARK    9  A    between atoms: C_10  and  C_22
REMARK   10  A    between atoms: N_11  and  S_12
REMARK   11  A    between atoms: S_12  and  C_15
REMARK   12  A    between atoms: N_24  and  O_25
REMARK                            x       y       z     vdW  Elec       q    Type
REMARK                         _______ _______ _______ _____ _____    ______ ____
ROOT
ATOM      1  C   UNL     1       1.985   4.339  19.165  0.00  0.00    +0.000 C 
ENDROOT
BRANCH   1   2
ATOM      2  C   UNL     1       1.919   3.968  20.683  0.00  0.00    +0.000 C 
ATOM      3  O   UNL     1       2.290   4.735  21.572  0.00  0.00    +0.000 OA
ATOM      4  N   UNL     1       1.404   2.722  20.971  0.00  0.00    +0.000 N 
ATOM      5  H   UNL     1       0.756   2.258  20.337  0.00  0.00    +0.000 HD
BRANCH   4   6
ATOM      6  O   UNL     1       1.280   2.400  22.344  0.00  0.00    +0.000 OA
ATOM      7  H   UNL     1       1.000   3.251  22.746  0.00  0.00    +0.000 HD
ENDBRANCH   4   6
ENDBRANCH   1   2
BRANCH   1   8
ATOM      8  N   UNL     1       3.226   3.671  18.722  0.00  0.00    +0.000 NA
ATOM      9  H   UNL     1       3.170   3.220  17.788  0.00  0.00    +0.000 HD
BRANCH   8  10
ATOM     10  S   UNL     1       4.834   4.151  18.958  0.00  0.00    +0.000 S 
ATOM     11  O   UNL     1       4.844   5.408  19.672  0.00  0.00    +0.000 OA
ATOM     12  O   UNL     1       5.368   2.942  19.542  0.00  0.00    +0.000 OA
BRANCH  10  13
ATOM     13  C   UNL     1       5.582   4.325  17.344  0.00  0.00    +0.000 A 
ATOM     14  C   UNL     1       4.846   4.120  16.165  0.00  0.00    +0.000 A 
ATOM     15  C   UNL     1       5.405   4.350  14.903  0.00  0.00    +0.000 A 
ATOM     16  C   UNL     1       6.731   4.742  14.796  0.00  0.00    +0.000 A 
ATOM     17  C   UNL     1       7.487   4.920  15.948  0.00  0.00    +0.000 A 
ATOM     18  C   UNL     1       6.919   4.741  17.226  0.00  0.00    +0.000 A 
ATOM     19 CL   UNL     1       7.955   5.114  18.553  0.00  0.00    +0.000 Cl
ENDBRANCH  10  13
ENDBRANCH   8  10
ENDBRANCH   1   8
BRANCH   1  20
ATOM     20  C   UNL     1       1.924   5.873  19.084  0.00  0.00    +0.000 C 
BRANCH  20  21
ATOM     21  C   UNL     1       2.295   6.643  17.801  0.00  0.00    +0.000 C 
BRANCH  21  22
ATOM     22  C   UNL     1       2.887   8.048  17.958  0.00  0.00    +0.000 C 
BRANCH  22  26
ATOM     23  N   UNL     1       0.083  10.401  17.976  0.00  0.00    +0.000 N 
ATOM     24  C   UNL     1       1.061   9.618  18.534  0.00  0.00    +0.000 C 
ATOM     25  O   UNL     1       1.120   9.385  19.734  0.00  0.00    +0.000 OA
ATOM     26  N   UNL     1       1.929   9.094  17.609  0.00  0.00    +0.000 N 
ATOM     27  H   UNL     1      -0.011  10.338  16.976  0.00  0.00    +0.000 HD
ATOM     28  H   UNL     1       2.171   9.718  16.851  0.00  0.00    +0.000 HD
BRANCH  23  30
ATOM     29  C   UNL     1      -2.372  10.648  17.834  0.00  0.00    +0.000 C 
ATOM     30  C   UNL     1      -1.133  10.690  18.739  0.00  0.00    +0.000 C 
BRANCH  30  31
ATOM     31  C   UNL     1      -1.094  12.026  19.463  0.00  0.00    +0.000 A 
ATOM     32  C   UNL     1      -1.625  12.106  20.764  0.00  0.00    +0.000 A 
ATOM     33  C   UNL     1      -1.711  13.328  21.431  0.00  0.00    +0.000 A 
ATOM     34  C   UNL     1      -1.262  14.490  20.808  0.00  0.00    +0.000 A 
ATOM     35  C   UNL     1      -0.723  14.427  19.525  0.00  0.00    +0.000 A 
ATOM     36  C   UNL     1      -0.642  13.204  18.853  0.00  0.00    +0.000 A 
ENDBRANCH  30  31
ENDBRANCH  23  30
ENDBRANCH  22  26
ENDBRANCH  21  22
ENDBRANCH  20  21
ENDBRANCH   1  20
TORSDOF 11
ENDMDL
MODEL 9
REMARK VINA RESULT:      -7.7      2.103      3.543
REMARK  Name = 
REMARK  12 active torsions:
REMARK  status: ('A' for Active; 'I' for Inactive)
REMARK    1  A    between atoms: C_1  and  C_2
REMARK    2  A    between atoms: C_2  and  N_3
REMARK    3  A    between atoms: C_2  and  C_26
REMARK    4  A    between atoms: N_6  and  C_7
REMARK    5  A    between atoms: C_7  and  C_8
REMARK    6  A    between atoms: C_8  and  C_9
REMARK    7  A    between atoms: C_9  and  C_10
REMARK    8  A    between atoms: C_10  and  N_11
REMARK    9  A    between atoms: C_10  and  C_22
REMARK   10  A    between atoms: N_11  and  S_12
REMARK   11  A    between atoms: S_12  and  C_15
REMARK   12  A    between atoms: N_24  and  O_25
REMARK                            x       y       z     vdW  Elec       q    Type
REMARK                         _______ _______ _______ _____ _____    ______ ____
ROOT
ATOM      1  C   UNL     1       7.275   6.864  17.823  0.00  0.00    +0.000 C 
ENDROOT
BRANCH   1   2
ATOM      2  C   UNL     1       7.697   5.704  18.783  0.00  0.00    +0.000 C 
ATOM      3  O   UNL     1       7.789   4.534  18.412  0.00  0.00    +0.000 OA
ATOM      4  N   UNL     1       7.976   6.075  20.082  0.00  0.00    +0.000 N 
ATOM      5  H   UNL     1       8.285   7.018  20.308  0.00  0.00    +0.000 HD
BRANCH   4   6
ATOM      6  O   UNL     1       8.421   5.043  20.944  0.00  0.00    +0.000 OA
ATOM      7  H   UNL     1       7.782   5.086  21.688  0.00  0.00    +0.000 HD
ENDBRANCH   4   6
ENDBRANCH   1   2
BRANCH   1   8
ATOM      8  N   UNL     1       7.177   6.183  16.516  0.00  0.00    +0.000 NA
ATOM      9  H   UNL     1       7.872   5.426  16.364  0.00  0.00    +0.000 HD
BRANCH   8  10
ATOM     10  S   UNL     1       5.790   5.785  15.626  0.00  0.00    +0.000 S 
ATOM     11  O   UNL     1       5.201   7.002  15.115  0.00  0.00    +0.000 OA
ATOM     12  O   UNL     1       6.343   4.782  14.745  0.00  0.00    +0.000 OA
BRANCH  10  13
ATOM     13  C   UNL     1       4.668   4.944  16.734  0.00  0.00    +0.000 A 
ATOM     14  C   UNL     1       4.679   3.546  16.874  0.00  0.00    +0.000 A 
ATOM     15  C   UNL     1       3.869   2.897  17.810  0.00  0.00    +0.000 A 
ATOM     16  C   UNL     1       2.991   3.633  18.592  0.00  0.00    +0.000 A 
ATOM     17  C   UNL     1       2.939   5.014  18.448  0.00  0.00    +0.000 A 
ATOM     18  C   UNL     1       3.789   5.683  17.545  0.00  0.00    +0.000 A 
ATOM     19 CL   UNL     1       3.685   7.404  17.570  0.00  0.00    +0.000 Cl
ENDBRANCH  10  13
ENDBRANCH   8  10
ENDBRANCH   1   8
BRANCH   1  20
ATOM     20  C   UNL     1       8.329   7.972  17.981  0.00  0.00    +0.000 C 
BRANCH  20  21
ATOM     21  C   UNL     1       7.950   9.465  18.035  0.00  0.00    +0.000 C 
BRANCH  21  22
ATOM     22  C   UNL     1       9.080  10.493  17.919  0.00  0.00    +0.000 C 
BRANCH  22  26
ATOM     23  N   UNL     1       9.625  13.113  20.416  0.00  0.00    +0.000 N 
ATOM     24  C   UNL     1       9.147  12.582  19.245  0.00  0.00    +0.000 C 
ATOM     25  O   UNL     1       8.671  13.269  18.351  0.00  0.00    +0.000 OA
ATOM     26  N   UNL     1       9.297  11.220  19.167  0.00  0.00    +0.000 N 
ATOM     27  H   UNL     1      10.198  12.501  20.973  0.00  0.00    +0.000 HD
ATOM     28  H   UNL     1       9.140  10.724  20.033  0.00  0.00    +0.000 HD
BRANCH  23  30
ATOM     29  C   UNL     1      11.337  14.843  19.985  0.00  0.00    +0.000 C 
ATOM     30  C   UNL     1       9.920  14.546  20.492  0.00  0.00    +0.000 C 
BRANCH  30  31
ATOM     31  C   UNL     1       9.761  15.126  21.888  0.00  0.00    +0.000 A 
ATOM     32  C   UNL     1      10.770  15.971  22.387  0.00  0.00    +0.000 A 
ATOM     33  C   UNL     1      10.727  16.444  23.699  0.00  0.00    +0.000 A 
ATOM     34  C   UNL     1       9.672  16.082  24.532  0.00  0.00    +0.000 A 
ATOM     35  C   UNL     1       8.660  15.254  24.050  0.00  0.00    +0.000 A 
ATOM     36  C   UNL     1       8.704  14.775  22.738  0.00  0.00    +0.000 A 
ENDBRANCH  30  31
ENDBRANCH  23  30
ENDBRANCH  22  26
ENDBRANCH  21  22
ENDBRANCH  20  21
ENDBRANCH   1  20
TORSDOF 11
ENDMDL
