MODEL 1
REMARK VINA RESULT:      -8.0      0.000      0.000
REMARK  Name = 
REMARK  10 active torsions:
REMARK  status: ('A' for Active; 'I' for Inactive)
REMARK    1  A    between atoms: C_1  and  C_2
REMARK    2  A    between atoms: C_2  and  C_3
REMARK    3  A    between atoms: C_2  and  C_4
REMARK    4  A    between atoms: C_2  and  O_5
REMARK    5  A    between atoms: O_5  and  C_6
REMARK    6  A    between atoms: C_11  and  C_12
REMARK    7  A    between atoms: C_11  and  C_13
REMARK    8  A    between atoms: C_17  and  C_18
REMARK    9  A    between atoms: C_21  and  S_22
REMARK   10  A    between atoms: S_22  and  C_23
REMARK                            x       y       z     vdW  Elec       q    Type
REMARK                         _______ _______ _______ _____ _____    ______ ____
ROOT
ATOM      1  C   UNL     1      -0.636  12.275  21.030  0.00  0.00    +0.000 A 
ATOM      2  C   UNL     1      -0.129  11.631  19.920  0.00  0.00    +0.000 A 
ATOM      3  C   UNL     1       0.464  10.436  20.379  0.00  0.00    +0.000 A 
ATOM      4  C   UNL     1       1.091   9.355  19.761  0.00  0.00    +0.000 A 
ATOM      5  C   UNL     1       1.505   8.297  20.573  0.00  0.00    +0.000 A 
ATOM      6  N   UNL     1       1.342   8.304  21.925  0.00  0.00    +0.000 NA
ATOM      7  C   UNL     1       0.746   9.368  22.539  0.00  0.00    +0.000 A 
ATOM      8  C   UNL     1       0.299  10.417  21.754  0.00  0.00    +0.000 A 
ATOM      9  O   UNL     1      -0.365  11.540  22.158  0.00  0.00    +0.000 OA
ENDROOT
BRANCH   1  15
ATOM     10  C   UNL     1      -5.618  12.577  21.463  0.00  0.00    +0.000 C 
ATOM     11  O   UNL     1      -6.310  12.469  20.460  0.00  0.00    +0.000 OA
ATOM     12  N   UNL     1      -4.240  12.712  21.405  0.00  0.00    +0.000 N 
ATOM     13  C   UNL     1      -3.369  12.531  22.554  0.00  0.00    +0.000 C 
ATOM     14  C   UNL     1      -2.221  13.538  22.529  0.00  0.00    +0.000 C 
ATOM     15  C   UNL     1      -1.450  13.537  21.180  0.00  0.00    +0.000 C 
ATOM     16  C   UNL     1      -0.469  14.727  21.173  0.00  0.00    +0.000 C 
ATOM     17  C   UNL     1      -2.465  13.716  20.031  0.00  0.00    +0.000 C 
ATOM     18  C   UNL     1      -3.597  12.695  20.097  0.00  0.00    +0.000 C 
BRANCH  10  19
ATOM     19  O   UNL     1      -6.113  12.603  22.732  0.00  0.00    +0.000 OA
BRANCH  19  21
ATOM     20  C   UNL     1      -7.727  13.471  24.372  0.00  0.00    +0.000 C 
ATOM     21  C   UNL     1      -6.794  13.801  23.200  0.00  0.00    +0.000 C 
ATOM     22  C   UNL     1      -7.518  14.525  22.054  0.00  0.00    +0.000 C 
ATOM     23  C   UNL     1      -5.695  14.745  23.724  0.00  0.00    +0.000 C 
ENDBRANCH  19  21
ENDBRANCH  10  19
ENDBRANCH   1  15
BRANCH   5  24
ATOM     24  C   UNL     1       2.060   7.068  19.965  0.00  0.00    +0.000 A 
ATOM     25  C   UNL     1       2.667   7.093  18.691  0.00  0.00    +0.000 A 
ATOM     26  C   UNL     1       3.055   5.921  18.043  0.00  0.00    +0.000 A 
ATOM     27  C   UNL     1       2.872   4.698  18.682  0.00  0.00    +0.000 A 
ATOM     28  C   UNL     1       2.308   4.636  19.957  0.00  0.00    +0.000 A 
ATOM     29  C   UNL     1       1.916   5.819  20.594  0.00  0.00    +0.000 A 
BRANCH  27  30
ATOM     30  S   UNL     1       3.328   3.203  17.842  0.00  0.00    +0.000 S 
ATOM     31  C   UNL     1       4.661   3.736  16.800  0.00  0.00    +0.000 C 
ATOM     32  O   UNL     1       3.858   2.287  18.832  0.00  0.00    +0.000 OA
ATOM     33  O   UNL     1       2.216   2.817  16.992  0.00  0.00    +0.000 OA
ENDBRANCH  27  30
ENDBRANCH   5  24
TORSDOF 5
ENDMDL
MODEL 2
REMARK VINA RESULT:      -8.0      0.711      1.252
REMARK  Name = 
REMARK  10 active torsions:
REMARK  status: ('A' for Active; 'I' for Inactive)
REMARK    1  A    between atoms: C_1  and  C_2
REMARK    2  A    between atoms: C_2  and  C_3
REMARK    3  A    between atoms: C_2  and  C_4
REMARK    4  A    between atoms: C_2  and  O_5
REMARK    5  A    between atoms: O_5  and  C_6
REMARK    6  A    between atoms: C_11  and  C_12
REMARK    7  A    between atoms: C_11  and  C_13
REMARK    8  A    between atoms: C_17  and  C_18
REMARK    9  A    between atoms: C_21  and  S_22
REMARK   10  A    between atoms: S_22  and  C_23
REMARK                            x       y       z     vdW  Elec       q    Type
REMARK                         _______ _______ _______ _____ _____    ______ ____
ROOT
ATOM      1  C   UNL     1      -0.512  12.263  20.995  0.00  0.00    +0.000 A 
ATOM      2  C   UNL     1      -0.092  11.576  19.875  0.00  0.00    +0.000 A 
ATOM      3  C   UNL     1       0.518  10.389  20.331  0.00  0.00    +0.000 A 
ATOM      4  C   UNL     1       1.087   9.280  19.708  0.00  0.00    +0.000 A 
ATOM      5  C   UNL     1       1.544   8.243  20.523  0.00  0.00    +0.000 A 
ATOM      6  N   UNL     1       1.477   8.296  21.883  0.00  0.00    +0.000 NA
ATOM      7  C   UNL     1       0.938   9.387  22.500  0.00  0.00    +0.000 A 
ATOM      8  C   UNL     1       0.450  10.417  21.714  0.00  0.00    +0.000 A 
ATOM      9  O   UNL     1      -0.172  11.562  22.125  0.00  0.00    +0.000 OA
ENDROOT
BRANCH   1  15
ATOM     10  C   UNL     1      -5.482  12.663  21.488  0.00  0.00    +0.000 C 
ATOM     11  O   UNL     1      -6.188  12.572  20.493  0.00  0.00    +0.000 OA
ATOM     12  N   UNL     1      -4.102  12.770  21.415  0.00  0.00    +0.000 N 
ATOM     13  C   UNL     1      -3.222  12.567  22.553  0.00  0.00    +0.000 C 
ATOM     14  C   UNL     1      -2.055  13.552  22.517  0.00  0.00    +0.000 C 
ATOM     15  C   UNL     1      -1.299  13.540  21.159  0.00  0.00    +0.000 C 
ATOM     16  C   UNL     1      -0.295  14.710  21.145  0.00  0.00    +0.000 C 
ATOM     17  C   UNL     1      -2.325  13.743  20.023  0.00  0.00    +0.000 C 
ATOM     18  C   UNL     1      -3.476  12.745  20.099  0.00  0.00    +0.000 C 
BRANCH  10  19
ATOM     19  O   UNL     1      -5.962  12.694  22.764  0.00  0.00    +0.000 OA
BRANCH  19  21
ATOM     20  C   UNL     1      -7.731  13.548  24.242  0.00  0.00    +0.000 C 
ATOM     21  C   UNL     1      -6.625  13.899  23.239  0.00  0.00    +0.000 C 
ATOM     22  C   UNL     1      -7.136  14.761  22.074  0.00  0.00    +0.000 C 
ATOM     23  C   UNL     1      -5.554  14.716  23.986  0.00  0.00    +0.000 C 
ENDBRANCH  19  21
ENDBRANCH  10  19
ENDBRANCH   1  15
BRANCH   5  24
ATOM     24  C   UNL     1       2.042   6.987  19.920  0.00  0.00    +0.000 A 
ATOM     25  C   UNL     1       1.935   5.756  20.603  0.00  0.00    +0.000 A 
ATOM     26  C   UNL     1       2.535   4.596  20.116  0.00  0.00    +0.000 A 
ATOM     27  C   UNL     1       3.227   4.643  18.909  0.00  0.00    +0.000 A 
ATOM     28  C   UNL     1       3.324   5.834  18.188  0.00  0.00    +0.000 A 
ATOM     29  C   UNL     1       2.724   6.993  18.690  0.00  0.00    +0.000 A 
BRANCH  27  30
ATOM     30  S   UNL     1       4.025   3.176  18.308  0.00  0.00    +0.000 S 
ATOM     31  C   UNL     1       2.667   2.056  18.096  0.00  0.00    +0.000 C 
ATOM     32  O   UNL     1       4.577   3.479  17.003  0.00  0.00    +0.000 OA
ATOM     33  O   UNL     1       4.870   2.666  19.373  0.00  0.00    +0.000 OA
ENDBRANCH  27  30
ENDBRANCH   5  24
TORSDOF 5
ENDMDL
MODEL 3
REMARK VINA RESULT:      -8.0      0.709      1.426
REMARK  Name = 
REMARK  10 active torsions:
REMARK  status: ('A' for Active; 'I' for Inactive)
REMARK    1  A    between atoms: C_1  and  C_2
REMARK    2  A    between atoms: C_2  and  C_3
REMARK    3  A    between atoms: C_2  and  C_4
REMARK    4  A    between atoms: C_2  and  O_5
REMARK    5  A    between atoms: O_5  and  C_6
REMARK    6  A    between atoms: C_11  and  C_12
REMARK    7  A    between atoms: C_11  and  C_13
REMARK    8  A    between atoms: C_17  and  C_18
REMARK    9  A    between atoms: C_21  and  S_22
REMARK   10  A    between atoms: S_22  and  C_23
REMARK                            x       y       z     vdW  Elec       q    Type
REMARK                         _______ _______ _______ _____ _____    ______ ____
ROOT
ATOM      1  C   UNL     1      -0.575  12.273  21.276  0.00  0.00    +0.000 A 
ATOM      2  C   UNL     1      -0.228  11.615  20.114  0.00  0.00    +0.000 A 
ATOM      3  C   UNL     1       0.411  10.418  20.500  0.00  0.00    +0.000 A 
ATOM      4  C   UNL     1       0.939   9.327  19.813  0.00  0.00    +0.000 A 
ATOM      5  C   UNL     1       1.450   8.271  20.570  0.00  0.00    +0.000 A 
ATOM      6  N   UNL     1       1.472   8.290  21.933  0.00  0.00    +0.000 NA
ATOM      7  C   UNL     1       0.973   9.364  22.611  0.00  0.00    +0.000 A 
ATOM      8  C   UNL     1       0.433  10.412  21.884  0.00  0.00    +0.000 A 
ATOM      9  O   UNL     1      -0.161  11.544  22.364  0.00  0.00    +0.000 OA
ENDROOT
BRANCH   1  15
ATOM     10  C   UNL     1      -5.561  12.755  21.366  0.00  0.00    +0.000 C 
ATOM     11  O   UNL     1      -6.173  12.805  20.308  0.00  0.00    +0.000 OA
ATOM     12  N   UNL     1      -4.178  12.831  21.431  0.00  0.00    +0.000 N 
ATOM     13  C   UNL     1      -3.411  12.467  22.610  0.00  0.00    +0.000 C 
ATOM     14  C   UNL     1      -2.228  13.415  22.799  0.00  0.00    +0.000 C 
ATOM     15  C   UNL     1      -1.350  13.544  21.524  0.00  0.00    +0.000 C 
ATOM     16  C   UNL     1      -0.328  14.677  21.743  0.00  0.00    +0.000 C 
ATOM     17  C   UNL     1      -2.262  13.911  20.333  0.00  0.00    +0.000 C 
ATOM     18  C   UNL     1      -3.433  12.945  20.184  0.00  0.00    +0.000 C 
BRANCH  10  19
ATOM     19  O   UNL     1      -6.156  12.648  22.588  0.00  0.00    +0.000 OA
BRANCH  19  21
ATOM     20  C   UNL     1      -5.916  14.985  23.314  0.00  0.00    +0.000 C 
ATOM     21  C   UNL     1      -6.868  13.796  23.129  0.00  0.00    +0.000 C 
ATOM     22  C   UNL     1      -7.622  13.437  24.420  0.00  0.00    +0.000 C 
ATOM     23  C   UNL     1      -7.917  14.191  22.074  0.00  0.00    +0.000 C 
ENDBRANCH  19  21
ENDBRANCH  10  19
ENDBRANCH   1  15
BRANCH   5  24
ATOM     24  C   UNL     1       1.908   7.032  19.905  0.00  0.00    +0.000 A 
ATOM     25  C   UNL     1       1.775   5.774  20.531  0.00  0.00    +0.000 A 
ATOM     26  C   UNL     1       2.339   4.622  19.985  0.00  0.00    +0.000 A 
ATOM     27  C   UNL     1       3.020   4.707  18.774  0.00  0.00    +0.000 A 
ATOM     28  C   UNL     1       3.142   5.927  18.107  0.00  0.00    +0.000 A 
ATOM     29  C   UNL     1       2.578   7.077  18.669  0.00  0.00    +0.000 A 
BRANCH  27  30
ATOM     30  S   UNL     1       3.773   3.249  18.097  0.00  0.00    +0.000 S 
ATOM     31  C   UNL     1       4.375   2.418  19.543  0.00  0.00    +0.000 C 
ATOM     32  O   UNL     1       2.721   2.444  17.510  0.00  0.00    +0.000 OA
ATOM     33  O   UNL     1       4.917   3.669  17.306  0.00  0.00    +0.000 OA
ENDBRANCH  27  30
ENDBRANCH   5  24
TORSDOF 5
ENDMDL
MODEL 4
REMARK VINA RESULT:      -7.8      1.281      1.859
REMARK  Name = 
REMARK  10 active torsions:
REMARK  status: ('A' for Active; 'I' for Inactive)
REMARK    1  A    between atoms: C_1  and  C_2
REMARK    2  A    between atoms: C_2  and  C_3
REMARK    3  A    between atoms: C_2  and  C_4
REMARK    4  A    between atoms: C_2  and  O_5
REMARK    5  A    between atoms: O_5  and  C_6
REMARK    6  A    between atoms: C_11  and  C_12
REMARK    7  A    between atoms: C_11  and  C_13
REMARK    8  A    between atoms: C_17  and  C_18
REMARK    9  A    between atoms: C_21  and  S_22
REMARK   10  A    between atoms: S_22  and  C_23
REMARK                            x       y       z     vdW  Elec       q    Type
REMARK                         _______ _______ _______ _____ _____    ______ ____
ROOT
ATOM      1  C   UNL     1      -0.556  12.338  21.273  0.00  0.00    +0.000 A 
ATOM      2  C   UNL     1      -0.365  11.062  21.763  0.00  0.00    +0.000 A 
ATOM      3  C   UNL     1       0.311  10.338  20.759  0.00  0.00    +0.000 A 
ATOM      4  C   UNL     1       0.820   9.044  20.661  0.00  0.00    +0.000 A 
ATOM      5  C   UNL     1       1.502   8.704  19.492  0.00  0.00    +0.000 A 
ATOM      6  N   UNL     1       1.655   9.573  18.454  0.00  0.00    +0.000 NA
ATOM      7  C   UNL     1       1.143  10.835  18.535  0.00  0.00    +0.000 A 
ATOM      8  C   UNL     1       0.488  11.209  19.697  0.00  0.00    +0.000 A 
ATOM      9  O   UNL     1      -0.045  12.428  20.002  0.00  0.00    +0.000 OA
ENDROOT
BRANCH   1  15
ATOM     10  C   UNL     1      -5.393  13.633  21.428  0.00  0.00    +0.000 C 
ATOM     11  O   UNL     1      -5.912  14.116  20.431  0.00  0.00    +0.000 OA
ATOM     12  N   UNL     1      -4.025  13.442  21.537  0.00  0.00    +0.000 N 
ATOM     13  C   UNL     1      -3.413  12.601  22.551  0.00  0.00    +0.000 C 
ATOM     14  C   UNL     1      -2.109  13.220  23.053  0.00  0.00    +0.000 C 
ATOM     15  C   UNL     1      -1.133  13.584  21.899  0.00  0.00    +0.000 C 
ATOM     16  C   UNL     1       0.040  14.395  22.485  0.00  0.00    +0.000 C 
ATOM     17  C   UNL     1      -1.886  14.457  20.873  0.00  0.00    +0.000 C 
ATOM     18  C   UNL     1      -3.184  13.805  20.404  0.00  0.00    +0.000 C 
BRANCH  10  19
ATOM     19  O   UNL     1      -6.084  13.257  22.542  0.00  0.00    +0.000 OA
BRANCH  19  21
ATOM     20  C   UNL     1      -5.851  15.372  23.774  0.00  0.00    +0.000 C 
ATOM     21  C   UNL     1      -6.806  14.268  23.299  0.00  0.00    +0.000 C 
ATOM     22  C   UNL     1      -7.609  13.646  24.452  0.00  0.00    +0.000 C 
ATOM     23  C   UNL     1      -7.812  14.904  22.323  0.00  0.00    +0.000 C 
ENDBRANCH  19  21
ENDBRANCH  10  19
ENDBRANCH   1  15
BRANCH   5  24
ATOM     24  C   UNL     1       2.173   7.391  19.378  0.00  0.00    +0.000 A 
ATOM     25  C   UNL     1       2.987   7.080  18.268  0.00  0.00    +0.000 A 
ATOM     26  C   UNL     1       3.499   5.798  18.073  0.00  0.00    +0.000 A 
ATOM     27  C   UNL     1       3.231   4.808  19.014  0.00  0.00    +0.000 A 
ATOM     28  C   UNL     1       2.460   5.087  20.143  0.00  0.00    +0.000 A 
ATOM     29  C   UNL     1       1.945   6.375  20.324  0.00  0.00    +0.000 A 
BRANCH  27  30
ATOM     30  S   UNL     1       3.849   3.166  18.747  0.00  0.00    +0.000 S 
ATOM     31  C   UNL     1       2.427   2.159  19.074  0.00  0.00    +0.000 C 
ATOM     32  O   UNL     1       4.182   3.046  17.342  0.00  0.00    +0.000 OA
ATOM     33  O   UNL     1       4.841   2.895  19.773  0.00  0.00    +0.000 OA
ENDBRANCH  27  30
ENDBRANCH   5  24
TORSDOF 5
ENDMDL
MODEL 5
REMARK VINA RESULT:      -7.7      0.713      1.198
REMARK  Name = 
REMARK  10 active torsions:
REMARK  status: ('A' for Active; 'I' for Inactive)
REMARK    1  A    between atoms: C_1  and  C_2
REMARK    2  A    between atoms: C_2  and  C_3
REMARK    3  A    between atoms: C_2  and  C_4
REMARK    4  A    between atoms: C_2  and  O_5
REMARK    5  A    between atoms: O_5  and  C_6
REMARK    6  A    between atoms: C_11  and  C_12
REMARK    7  A    between atoms: C_11  and  C_13
REMARK    8  A    between atoms: C_17  and  C_18
REMARK    9  A    between atoms: C_21  and  S_22
REMARK   10  A    between atoms: S_22  and  C_23
REMARK                            x       y       z     vdW  Elec       q    Type
REMARK                         _______ _______ _______ _____ _____    ______ ____
ROOT
ATOM      1  C   UNL     1      -0.864  12.229  20.663  0.00  0.00    +0.000 A 
ATOM      2  C   UNL     1      -0.252  11.556  19.626  0.00  0.00    +0.000 A 
ATOM      3  C   UNL     1       0.342  10.404  20.184  0.00  0.00    +0.000 A 
ATOM      4  C   UNL     1       1.048   9.320  19.666  0.00  0.00    +0.000 A 
ATOM      5  C   UNL     1       1.432   8.314  20.555  0.00  0.00    +0.000 A 
ATOM      6  N   UNL     1       1.166   8.375  21.890  0.00  0.00    +0.000 NA
ATOM      7  C   UNL     1       0.491   9.442  22.406  0.00  0.00    +0.000 A 
ATOM      8  C   UNL     1       0.072  10.440  21.541  0.00  0.00    +0.000 A 
ATOM      9  O   UNL     1      -0.657  11.555  21.841  0.00  0.00    +0.000 OA
ENDROOT
BRANCH   1  15
ATOM     10  C   UNL     1      -5.790  12.410  21.558  0.00  0.00    +0.000 C 
ATOM     11  O   UNL     1      -6.568  12.111  20.663  0.00  0.00    +0.000 OA
ATOM     12  N   UNL     1      -4.433  12.586  21.336  0.00  0.00    +0.000 N 
ATOM     13  C   UNL     1      -3.447  12.630  22.403  0.00  0.00    +0.000 C 
ATOM     14  C   UNL     1      -2.364  13.662  22.096  0.00  0.00    +0.000 C 
ATOM     15  C   UNL     1      -1.727  13.467  20.692  0.00  0.00    +0.000 C 
ATOM     16  C   UNL     1      -0.817  14.676  20.393  0.00  0.00    +0.000 C 
ATOM     17  C   UNL     1      -2.857  13.415  19.642  0.00  0.00    +0.000 C 
ATOM     18  C   UNL     1      -3.919  12.376  19.989  0.00  0.00    +0.000 C 
BRANCH  10  19
ATOM     19  O   UNL     1      -6.161  12.627  22.851  0.00  0.00    +0.000 OA
BRANCH  19  21
ATOM     20  C   UNL     1      -7.491  14.522  22.025  0.00  0.00    +0.000 C 
ATOM     21  C   UNL     1      -6.737  13.913  23.214  0.00  0.00    +0.000 C 
ATOM     22  C   UNL     1      -5.678  14.865  23.792  0.00  0.00    +0.000 C 
ATOM     23  C   UNL     1      -7.763  13.629  24.326  0.00  0.00    +0.000 C 
ENDBRANCH  19  21
ENDBRANCH  10  19
ENDBRANCH   1  15
BRANCH   5  24
ATOM     24  C   UNL     1       2.072   7.080  20.049  0.00  0.00    +0.000 A 
ATOM     25  C   UNL     1       2.732   7.058  18.801  0.00  0.00    +0.000 A 
ATOM     26  C   UNL     1       3.203   5.870  18.245  0.00  0.00    +0.000 A 
ATOM     27  C   UNL     1       3.052   4.681  18.952  0.00  0.00    +0.000 A 
ATOM     28  C   UNL     1       2.437   4.668  20.205  0.00  0.00    +0.000 A 
ATOM     29  C   UNL     1       1.961   5.866  20.750  0.00  0.00    +0.000 A 
BRANCH  27  30
ATOM     30  S   UNL     1       3.616   3.162  18.227  0.00  0.00    +0.000 S 
ATOM     31  C   UNL     1       2.100   2.304  17.896  0.00  0.00    +0.000 C 
ATOM     32  O   UNL     1       4.245   3.486  16.963  0.00  0.00    +0.000 OA
ATOM     33  O   UNL     1       4.338   2.426  19.250  0.00  0.00    +0.000 OA
ENDBRANCH  27  30
ENDBRANCH   5  24
TORSDOF 5
ENDMDL
MODEL 6
REMARK VINA RESULT:      -7.6      1.712      2.220
REMARK  Name = 
REMARK  10 active torsions:
REMARK  status: ('A' for Active; 'I' for Inactive)
REMARK    1  A    between atoms: C_1  and  C_2
REMARK    2  A    between atoms: C_2  and  C_3
REMARK    3  A    between atoms: C_2  and  C_4
REMARK    4  A    between atoms: C_2  and  O_5
REMARK    5  A    between atoms: O_5  and  C_6
REMARK    6  A    between atoms: C_11  and  C_12
REMARK    7  A    between atoms: C_11  and  C_13
REMARK    8  A    between atoms: C_17  and  C_18
REMARK    9  A    between atoms: C_21  and  S_22
REMARK   10  A    between atoms: S_22  and  C_23
REMARK                            x       y       z     vdW  Elec       q    Type
REMARK                         _______ _______ _______ _____ _____    ______ ____
ROOT
ATOM      1  C   UNL     1       0.216  12.724  21.100  0.00  0.00    +0.000 A 
ATOM      2  C   UNL     1       0.225  11.474  21.682  0.00  0.00    +0.000 A 
ATOM      3  C   UNL     1       0.719  10.577  20.712  0.00  0.00    +0.000 A 
ATOM      4  C   UNL     1       1.006   9.214  20.697  0.00  0.00    +0.000 A 
ATOM      5  C   UNL     1       1.558   8.681  19.531  0.00  0.00    +0.000 A 
ATOM      6  N   UNL     1       1.792   9.435  18.421  0.00  0.00    +0.000 NA
ATOM      7  C   UNL     1       1.496  10.767  18.422  0.00  0.00    +0.000 A 
ATOM      8  C   UNL     1       0.975  11.327  19.577  0.00  0.00    +0.000 A 
ATOM      9  O   UNL     1       0.664  12.637  19.805  0.00  0.00    +0.000 OA
ENDROOT
BRANCH   1  15
ATOM     10  C   UNL     1      -4.367  14.565  21.945  0.00  0.00    +0.000 C 
ATOM     11  O   UNL     1      -5.022  14.986  21.002  0.00  0.00    +0.000 OA
ATOM     12  N   UNL     1      -3.026  14.235  21.831  0.00  0.00    +0.000 N 
ATOM     13  C   UNL     1      -2.307  13.452  22.822  0.00  0.00    +0.000 C 
ATOM     14  C   UNL     1      -0.882  13.973  22.995  0.00  0.00    +0.000 C 
ATOM     15  C   UNL     1      -0.117  14.091  21.648  0.00  0.00    +0.000 C 
ATOM     16  C   UNL     1       1.215  14.827  21.901  0.00  0.00    +0.000 C 
ATOM     17  C   UNL     1      -0.972  14.920  20.666  0.00  0.00    +0.000 C 
ATOM     18  C   UNL     1      -2.388  14.370  20.527  0.00  0.00    +0.000 C 
BRANCH  10  19
ATOM     19  O   UNL     1      -4.862  14.399  23.204  0.00  0.00    +0.000 OA
BRANCH  19  21
ATOM     20  C   UNL     1      -5.403  12.418  24.557  0.00  0.00    +0.000 C 
ATOM     21  C   UNL     1      -5.859  13.366  23.439  0.00  0.00    +0.000 C 
ATOM     22  C   UNL     1      -6.220  12.621  22.145  0.00  0.00    +0.000 C 
ATOM     23  C   UNL     1      -7.127  14.092  23.927  0.00  0.00    +0.000 C 
ENDBRANCH  19  21
ENDBRANCH  10  19
ENDBRANCH   1  15
BRANCH   5  24
ATOM     24  C   UNL     1       2.001   7.271  19.495  0.00  0.00    +0.000 A 
ATOM     25  C   UNL     1       1.746   6.397  20.575  0.00  0.00    +0.000 A 
ATOM     26  C   UNL     1       2.290   5.114  20.620  0.00  0.00    +0.000 A 
ATOM     27  C   UNL     1       3.075   4.670  19.560  0.00  0.00    +0.000 A 
ATOM     28  C   UNL     1       3.320   5.491  18.460  0.00  0.00    +0.000 A 
ATOM     29  C   UNL     1       2.775   6.780  18.428  0.00  0.00    +0.000 A 
BRANCH  27  30
ATOM     30  S   UNL     1       3.800   3.051  19.636  0.00  0.00    +0.000 S 
ATOM     31  C   UNL     1       3.233   2.301  18.133  0.00  0.00    +0.000 C 
ATOM     32  O   UNL     1       5.238   3.210  19.556  0.00  0.00    +0.000 OA
ATOM     33  O   UNL     1       3.191   2.347  20.751  0.00  0.00    +0.000 OA
ENDBRANCH  27  30
ENDBRANCH   5  24
TORSDOF 5
ENDMDL
MODEL 7
REMARK VINA RESULT:      -7.6      1.419      1.999
REMARK  Name = 
REMARK  10 active torsions:
REMARK  status: ('A' for Active; 'I' for Inactive)
REMARK    1  A    between atoms: C_1  and  C_2
REMARK    2  A    between atoms: C_2  and  C_3
REMARK    3  A    between atoms: C_2  and  C_4
REMARK    4  A    between atoms: C_2  and  O_5
REMARK    5  A    between atoms: O_5  and  C_6
REMARK    6  A    between atoms: C_11  and  C_12
REMARK    7  A    between atoms: C_11  and  C_13
REMARK    8  A    between atoms: C_17  and  C_18
REMARK    9  A    between atoms: C_21  and  S_22
REMARK   10  A    between atoms: S_22  and  C_23
REMARK                            x       y       z     vdW  Elec       q    Type
REMARK                         _______ _______ _______ _____ _____    ______ ____
ROOT
ATOM      1  C   UNL     1      -0.486  12.263  21.172  0.00  0.00    +0.000 A 
ATOM      2  C   UNL     1      -0.436  10.955  21.607  0.00  0.00    +0.000 A 
ATOM      3  C   UNL     1       0.313  10.237  20.652  0.00  0.00    +0.000 A 
ATOM      4  C   UNL     1       0.749   8.917  20.542  0.00  0.00    +0.000 A 
ATOM      5  C   UNL     1       1.548   8.589  19.445  0.00  0.00    +0.000 A 
ATOM      6  N   UNL     1       1.882   9.496  18.485  0.00  0.00    +0.000 NA
ATOM      7  C   UNL     1       1.443  10.785  18.577  0.00  0.00    +0.000 A 
ATOM      8  C   UNL     1       0.674  11.144  19.671  0.00  0.00    +0.000 A 
ATOM      9  O   UNL     1       0.184  12.381  19.979  0.00  0.00    +0.000 OA
ENDROOT
BRANCH   1  15
ATOM     10  C   UNL     1      -5.302  13.642  21.211  0.00  0.00    +0.000 C 
ATOM     11  O   UNL     1      -5.785  14.144  20.206  0.00  0.00    +0.000 OA
ATOM     12  N   UNL     1      -3.940  13.426  21.354  0.00  0.00    +0.000 N 
ATOM     13  C   UNL     1      -3.370  12.565  22.377  0.00  0.00    +0.000 C 
ATOM     14  C   UNL     1      -2.070  13.156  22.919  0.00  0.00    +0.000 C 
ATOM     15  C   UNL     1      -1.057  13.513  21.796  0.00  0.00    +0.000 C 
ATOM     16  C   UNL     1       0.114  14.298  22.421  0.00  0.00    +0.000 C 
ATOM     17  C   UNL     1      -1.767  14.409  20.759  0.00  0.00    +0.000 C 
ATOM     18  C   UNL     1      -3.063  13.785  20.248  0.00  0.00    +0.000 C 
BRANCH  10  19
ATOM     19  O   UNL     1      -6.028  13.268  22.302  0.00  0.00    +0.000 OA
BRANCH  19  21
ATOM     20  C   UNL     1      -7.705  15.061  22.165  0.00  0.00    +0.000 C 
ATOM     21  C   UNL     1      -6.733  14.287  23.065  0.00  0.00    +0.000 C 
ATOM     22  C   UNL     1      -5.758  15.211  23.812  0.00  0.00    +0.000 C 
ATOM     23  C   UNL     1      -7.565  13.538  24.122  0.00  0.00    +0.000 C 
ENDBRANCH  19  21
ENDBRANCH  10  19
ENDBRANCH   1  15
BRANCH   5  24
ATOM     24  C   UNL     1       2.145   7.241  19.338  0.00  0.00    +0.000 A 
ATOM     25  C   UNL     1       1.850   6.234  20.282  0.00  0.00    +0.000 A 
ATOM     26  C   UNL     1       2.522   5.012  20.282  0.00  0.00    +0.000 A 
ATOM     27  C   UNL     1       3.482   4.764  19.305  0.00  0.00    +0.000 A 
ATOM     28  C   UNL     1       3.776   5.721  18.333  0.00  0.00    +0.000 A 
ATOM     29  C   UNL     1       3.100   6.947  18.348  0.00  0.00    +0.000 A 
BRANCH  27  30
ATOM     30  S   UNL     1       4.366   3.225  19.328  0.00  0.00    +0.000 S 
ATOM     31  C   UNL     1       3.758   2.408  17.877  0.00  0.00    +0.000 C 
ATOM     32  O   UNL     1       5.771   3.523  19.132  0.00  0.00    +0.000 OA
ATOM     33  O   UNL     1       3.920   2.477  20.490  0.00  0.00    +0.000 OA
ENDBRANCH  27  30
ENDBRANCH   5  24
TORSDOF 5
ENDMDL
MODEL 8
REMARK VINA RESULT:      -7.5      3.129      4.806
REMARK  Name = 
REMARK  10 active torsions:
REMARK  status: ('A' for Active; 'I' for Inactive)
REMARK    1  A    between atoms: C_1  and  C_2
REMARK    2  A    between atoms: C_2  and  C_3
REMARK    3  A    between atoms: C_2  and  C_4
REMARK    4  A    between atoms: C_2  and  O_5
REMARK    5  A    between atoms: O_5  and  C_6
REMARK    6  A    between atoms: C_11  and  C_12
REMARK    7  A    between atoms: C_11  and  C_13
REMARK    8  A    between atoms: C_17  and  C_18
REMARK    9  A    between atoms: C_21  and  S_22
REMARK   10  A    between atoms: S_22  and  C_23
REMARK                            x       y       z     vdW  Elec       q    Type
REMARK                         _______ _______ _______ _____ _____    ______ ____
ROOT
ATOM      1  C   UNL     1      -0.610  11.325  19.819  0.00  0.00    +0.000 A 
ATOM      2  C   UNL     1       0.137  11.077  18.686  0.00  0.00    +0.000 A 
ATOM      3  C   UNL     1       0.907   9.926  18.951  0.00  0.00    +0.000 A 
ATOM      4  C   UNL     1       1.805   9.159  18.211  0.00  0.00    +0.000 A 
ATOM      5  C   UNL     1       2.335   8.018  18.818  0.00  0.00    +0.000 A 
ATOM      6  N   UNL     1       2.027   7.657  20.095  0.00  0.00    +0.000 NA
ATOM      7  C   UNL     1       1.162   8.414  20.831  0.00  0.00    +0.000 A 
ATOM      8  C   UNL     1       0.599   9.534  20.243  0.00  0.00    +0.000 A 
ATOM      9  O   UNL     1      -0.321  10.388  20.781  0.00  0.00    +0.000 OA
ENDROOT
BRANCH   1  15
ATOM     10  C   UNL     1      -0.099  15.409  22.674  0.00  0.00    +0.000 C 
ATOM     11  O   UNL     1      -0.126  15.292  23.891  0.00  0.00    +0.000 OA
ATOM     12  N   UNL     1      -0.437  14.373  21.819  0.00  0.00    +0.000 N 
ATOM     13  C   UNL     1      -0.122  14.372  20.400  0.00  0.00    +0.000 C 
ATOM     14  C   UNL     1      -1.260  13.750  19.593  0.00  0.00    +0.000 C 
ATOM     15  C   UNL     1      -1.677  12.349  20.121  0.00  0.00    +0.000 C 
ATOM     16  C   UNL     1      -2.962  11.911  19.391  0.00  0.00    +0.000 C 
ATOM     17  C   UNL     1      -1.968  12.459  21.633  0.00  0.00    +0.000 C 
ATOM     18  C   UNL     1      -0.810  13.090  22.400  0.00  0.00    +0.000 C 
BRANCH  10  19
ATOM     19  O   UNL     1       0.236  16.561  22.027  0.00  0.00    +0.000 OA
BRANCH  19  21
ATOM     20  C   UNL     1       1.956  17.895  20.883  0.00  0.00    +0.000 C 
ATOM     21  C   UNL     1       1.605  17.046  22.112  0.00  0.00    +0.000 C 
ATOM     22  C   UNL     1       2.600  15.898  22.339  0.00  0.00    +0.000 C 
ATOM     23  C   UNL     1       1.663  17.962  23.349  0.00  0.00    +0.000 C 
ENDBRANCH  19  21
ENDBRANCH  10  19
ENDBRANCH   1  15
BRANCH   5  24
ATOM     24  C   UNL     1       3.194   7.096  18.043  0.00  0.00    +0.000 A 
ATOM     25  C   UNL     1       3.156   5.702  18.266  0.00  0.00    +0.000 A 
ATOM     26  C   UNL     1       4.065   4.840  17.656  0.00  0.00    +0.000 A 
ATOM     27  C   UNL     1       5.012   5.360  16.778  0.00  0.00    +0.000 A 
ATOM     28  C   UNL     1       5.058   6.727  16.505  0.00  0.00    +0.000 A 
ATOM     29  C   UNL     1       4.145   7.584  17.130  0.00  0.00    +0.000 A 
BRANCH  27  30
ATOM     30  S   UNL     1       6.196   4.268  16.031  0.00  0.00    +0.000 S 
ATOM     31  C   UNL     1       6.314   4.897  14.378  0.00  0.00    +0.000 C 
ATOM     32  O   UNL     1       7.467   4.478  16.695  0.00  0.00    +0.000 OA
ATOM     33  O   UNL     1       5.599   2.945  15.970  0.00  0.00    +0.000 OA
ENDBRANCH  27  30
ENDBRANCH   5  24
TORSDOF 5
ENDMDL
MODEL 9
REMARK VINA RESULT:      -7.5      1.466      1.856
REMARK  Name = 
REMARK  10 active torsions:
REMARK  status: ('A' for Active; 'I' for Inactive)
REMARK    1  A    between atoms: C_1  and  C_2
REMARK    2  A    between atoms: C_2  and  C_3
REMARK    3  A    between atoms: C_2  and  C_4
REMARK    4  A    between atoms: C_2  and  O_5
REMARK    5  A    between atoms: O_5  and  C_6
REMARK    6  A    between atoms: C_11  and  C_12
REMARK    7  A    between atoms: C_11  and  C_13
REMARK    8  A    between atoms: C_17  and  C_18
REMARK    9  A    between atoms: C_21  and  S_22
REMARK   10  A    between atoms: S_22  and  C_23
REMARK                            x       y       z     vdW  Elec       q    Type
REMARK                         _______ _______ _______ _____ _____    ______ ____
ROOT
ATOM      1  C   UNL     1       0.086  12.279  21.006  0.00  0.00    +0.000 A 
ATOM      2  C   UNL     1       0.091  11.001  21.525  0.00  0.00    +0.000 A 
ATOM      3  C   UNL     1       0.698  10.172  20.559  0.00  0.00    +0.000 A 
ATOM      4  C   UNL     1       1.035   8.821  20.502  0.00  0.00    +0.000 A 
ATOM      5  C   UNL     1       1.704   8.368  19.363  0.00  0.00    +0.000 A 
ATOM      6  N   UNL     1       2.005   9.187  18.316  0.00  0.00    +0.000 NA
ATOM      7  C   UNL     1       1.661  10.507  18.357  0.00  0.00    +0.000 A 
ATOM      8  C   UNL     1       1.024  10.988  19.488  0.00  0.00    +0.000 A 
ATOM      9  O   UNL     1       0.647  12.274  19.752  0.00  0.00    +0.000 OA
ENDROOT
BRANCH   1  15
ATOM     10  C   UNL     1      -4.612  13.951  21.484  0.00  0.00    +0.000 C 
ATOM     11  O   UNL     1      -5.184  14.407  20.503  0.00  0.00    +0.000 OA
ATOM     12  N   UNL     1      -3.257  13.662  21.488  0.00  0.00    +0.000 N 
ATOM     13  C   UNL     1      -2.616  12.844  22.503  0.00  0.00    +0.000 C 
ATOM     14  C   UNL     1      -1.232  13.391  22.846  0.00  0.00    +0.000 C 
ATOM     15  C   UNL     1      -0.341  13.604  21.590  0.00  0.00    +0.000 C 
ATOM     16  C   UNL     1       0.935  14.359  22.014  0.00  0.00    +0.000 C 
ATOM     17  C   UNL     1      -1.121  14.464  20.573  0.00  0.00    +0.000 C 
ATOM     18  C   UNL     1      -2.498  13.886  20.264  0.00  0.00    +0.000 C 
BRANCH  10  19
ATOM     19  O   UNL     1      -5.224  13.702  22.676  0.00  0.00    +0.000 OA
BRANCH  19  21
ATOM     20  C   UNL     1      -6.991  12.712  24.070  0.00  0.00    +0.000 C 
ATOM     21  C   UNL     1      -6.599  13.225  22.679  0.00  0.00    +0.000 C 
ATOM     22  C   UNL     1      -6.839  12.183  21.575  0.00  0.00    +0.000 C 
ATOM     23  C   UNL     1      -7.480  14.448  22.363  0.00  0.00    +0.000 C 
ENDBRANCH  19  21
ENDBRANCH  10  19
ENDBRANCH   1  15
BRANCH   5  24
ATOM     24  C   UNL     1       2.199   6.976  19.296  0.00  0.00    +0.000 A 
ATOM     25  C   UNL     1       2.866   6.492  18.150  0.00  0.00    +0.000 A 
ATOM     26  C   UNL     1       3.201   5.146  18.014  0.00  0.00    +0.000 A 
ATOM     27  C   UNL     1       2.901   4.262  19.047  0.00  0.00    +0.000 A 
ATOM     28  C   UNL     1       2.275   4.710  20.210  0.00  0.00    +0.000 A 
ATOM     29  C   UNL     1       1.937   6.063  20.333  0.00  0.00    +0.000 A 
BRANCH  27  30
ATOM     30  S   UNL     1       3.291   2.541  18.857  0.00  0.00    +0.000 S 
ATOM     31  C   UNL     1       4.478   2.268  20.145  0.00  0.00    +0.000 C 
ATOM     32  O   UNL     1       2.095   1.784  19.167  0.00  0.00    +0.000 OA
ATOM     33  O   UNL     1       3.963   2.379  17.580  0.00  0.00    +0.000 OA
ENDBRANCH  27  30
ENDBRANCH   5  24
TORSDOF 5
ENDMDL
