MODEL 1
REMARK VINA RESULT:      -8.9      0.000      0.000
REMARK  Name = 
REMARK  1 active torsions:
REMARK  status: ('A' for Active; 'I' for Inactive)
REMARK    1  A    between atoms: C_13  and  C_14
REMARK                            x       y       z     vdW  Elec       q    Type
REMARK                         _______ _______ _______ _____ _____    ______ ____
ROOT
ATOM      1  C   UNL     1       7.025   4.106  11.831  0.00  0.00    +0.000 A 
ATOM      2  C   UNL     1       5.955   3.344  12.303  0.00  0.00    +0.000 A 
ATOM      3  C   UNL     1       5.516   3.418  13.650  0.00  0.00    +0.000 A 
ATOM      4  C   UNL     1       6.184   4.279  14.550  0.00  0.00    +0.000 A 
ATOM      5  C   UNL     1       7.252   5.010  14.007  0.00  0.00    +0.000 A 
ATOM      6  C   UNL     1       7.698   4.968  12.685  0.00  0.00    +0.000 A 
ATOM      7  O   UNL     1       7.852   5.789  14.930  0.00  0.00    +0.000 OA
ATOM      8  C   UNL     1       7.207   5.581  16.097  0.00  0.00    +0.000 A 
ATOM      9  C   UNL     1       7.587   6.204  17.278  0.00  0.00    +0.000 A 
ATOM     10  C   UNL     1       6.874   5.887  18.418  0.00  0.00    +0.000 A 
ATOM     11  C   UNL     1       5.811   5.014  18.262  0.00  0.00    +0.000 A 
ATOM     12  O   UNL     1       5.011   4.665  19.275  0.00  0.00    +0.000 OA
ATOM     13  C   UNL     1       3.993   3.902  18.782  0.00  0.00    +0.000 A 
ATOM     14  C   UNL     1       4.215   3.663  17.418  0.00  0.00    +0.000 A 
ATOM     15  C   UNL     1       5.385   4.405  17.096  0.00  0.00    +0.000 A 
ATOM     16  C   UNL     1       6.167   4.681  15.918  0.00  0.00    +0.000 A 
ENDROOT
BRANCH  13  17
ATOM     17  C   UNL     1       2.886   3.556  19.731  0.00  0.00    +0.000 A 
ATOM     18  C   UNL     1       1.522   3.938  19.447  0.00  0.00    +0.000 A 
ATOM     19  C   UNL     1       0.624   3.439  20.367  0.00  0.00    +0.000 A 
ATOM     20  S   UNL     1       1.417   2.552  21.593  0.00  0.00    +0.000 S 
ATOM     21  C   UNL     1       2.963   2.824  20.886  0.00  0.00    +0.000 A 
ENDBRANCH  13  17
TORSDOF 1
ENDMDL
MODEL 2
REMARK VINA RESULT:      -8.1      4.039      5.497
REMARK  Name = 
REMARK  1 active torsions:
REMARK  status: ('A' for Active; 'I' for Inactive)
REMARK    1  A    between atoms: C_13  and  C_14
REMARK                            x       y       z     vdW  Elec       q    Type
REMARK                         _______ _______ _______ _____ _____    ______ ____
ROOT
ATOM      1  C   UNL     1       6.011   4.926  15.433  0.00  0.00    +0.000 A 
ATOM      2  C   UNL     1       5.453   6.205  15.453  0.00  0.00    +0.000 A 
ATOM      3  C   UNL     1       4.567   6.623  16.479  0.00  0.00    +0.000 A 
ATOM      4  C   UNL     1       4.225   5.718  17.510  0.00  0.00    +0.000 A 
ATOM      5  C   UNL     1       4.820   4.450  17.422  0.00  0.00    +0.000 A 
ATOM      6  C   UNL     1       5.704   4.016  16.434  0.00  0.00    +0.000 A 
ATOM      7  O   UNL     1       4.429   3.638  18.426  0.00  0.00    +0.000 OA
ATOM      8  C   UNL     1       3.563   4.343  19.185  0.00  0.00    +0.000 A 
ATOM      9  C   UNL     1       2.934   3.798  20.296  0.00  0.00    +0.000 A 
ATOM     10  C   UNL     1       2.040   4.604  20.975  0.00  0.00    +0.000 A 
ATOM     11  C   UNL     1       1.897   5.900  20.511  0.00  0.00    +0.000 A 
ATOM     12  O   UNL     1       1.104   6.795  21.108  0.00  0.00    +0.000 OA
ATOM     13  C   UNL     1       1.274   8.004  20.497  0.00  0.00    +0.000 A 
ATOM     14  C   UNL     1       2.128   7.846  19.396  0.00  0.00    +0.000 A 
ATOM     15  C   UNL     1       2.534   6.483  19.432  0.00  0.00    +0.000 A 
ATOM     16  C   UNL     1       3.417   5.627  18.681  0.00  0.00    +0.000 A 
ENDROOT
BRANCH  13  17
ATOM     17  C   UNL     1       0.605   9.184  21.133  0.00  0.00    +0.000 A 
ATOM     18  C   UNL     1      -0.044   9.064  22.418  0.00  0.00    +0.000 A 
ATOM     19  C   UNL     1      -0.503  10.270  22.901  0.00  0.00    +0.000 A 
ATOM     20  S   UNL     1      -0.198  11.538  21.798  0.00  0.00    +0.000 S 
ATOM     21  C   UNL     1       0.562  10.475  20.678  0.00  0.00    +0.000 A 
ENDBRANCH  13  17
TORSDOF 1
ENDMDL
MODEL 3
REMARK VINA RESULT:      -7.7      5.127      7.349
REMARK  Name = 
REMARK  1 active torsions:
REMARK  status: ('A' for Active; 'I' for Inactive)
REMARK    1  A    between atoms: C_13  and  C_14
REMARK                            x       y       z     vdW  Elec       q    Type
REMARK                         _______ _______ _______ _____ _____    ______ ____
ROOT
ATOM      1  C   UNL     1       3.194   2.308  20.366  0.00  0.00    +0.000 A 
ATOM      2  C   UNL     1       2.496   2.911  21.414  0.00  0.00    +0.000 A 
ATOM      3  C   UNL     1       2.079   4.266  21.358  0.00  0.00    +0.000 A 
ATOM      4  C   UNL     1       2.386   5.039  20.216  0.00  0.00    +0.000 A 
ATOM      5  C   UNL     1       3.093   4.369  19.206  0.00  0.00    +0.000 A 
ATOM      6  C   UNL     1       3.504   3.036  19.226  0.00  0.00    +0.000 A 
ATOM      7  O   UNL     1       3.367   5.176  18.160  0.00  0.00    +0.000 OA
ATOM      8  C   UNL     1       2.864   6.392  18.462  0.00  0.00    +0.000 A 
ATOM      9  C   UNL     1       2.997   7.483  17.614  0.00  0.00    +0.000 A 
ATOM     10  C   UNL     1       2.471   8.686  18.045  0.00  0.00    +0.000 A 
ATOM     11  C   UNL     1       1.813   8.675  19.263  0.00  0.00    +0.000 A 
ATOM     12  O   UNL     1       1.217   9.759  19.769  0.00  0.00    +0.000 OA
ATOM     13  C   UNL     1       0.554   9.400  20.907  0.00  0.00    +0.000 A 
ATOM     14  C   UNL     1       0.832   8.057  21.196  0.00  0.00    +0.000 A 
ATOM     15  C   UNL     1       1.633   7.600  20.113  0.00  0.00    +0.000 A 
ATOM     16  C   UNL     1       2.237   6.359  19.699  0.00  0.00    +0.000 A 
ENDROOT
BRANCH  13  17
ATOM     17  C   UNL     1      -0.328  10.437  21.532  0.00  0.00    +0.000 A 
ATOM     18  C   UNL     1      -0.947  11.465  20.728  0.00  0.00    +0.000 A 
ATOM     19  C   UNL     1      -1.813  12.260  21.449  0.00  0.00    +0.000 A 
ATOM     20  S   UNL     1      -1.851  11.805  23.095  0.00  0.00    +0.000 S 
ATOM     21  C   UNL     1      -0.718  10.534  22.842  0.00  0.00    +0.000 A 
ENDBRANCH  13  17
TORSDOF 1
ENDMDL
MODEL 4
REMARK VINA RESULT:      -7.6      4.922      5.986
REMARK  Name = 
REMARK  1 active torsions:
REMARK  status: ('A' for Active; 'I' for Inactive)
REMARK    1  A    between atoms: C_13  and  C_14
REMARK                            x       y       z     vdW  Elec       q    Type
REMARK                         _______ _______ _______ _____ _____    ______ ____
ROOT
ATOM      1  C   UNL     1       6.405   4.412  15.441  0.00  0.00    +0.000 A 
ATOM      2  C   UNL     1       5.935   5.624  14.932  0.00  0.00    +0.000 A 
ATOM      3  C   UNL     1       5.021   6.437  15.650  0.00  0.00    +0.000 A 
ATOM      4  C   UNL     1       4.558   6.009  16.915  0.00  0.00    +0.000 A 
ATOM      5  C   UNL     1       5.069   4.780  17.360  0.00  0.00    +0.000 A 
ATOM      6  C   UNL     1       5.978   3.966  16.683  0.00  0.00    +0.000 A 
ATOM      7  O   UNL     1       4.565   4.429  18.561  0.00  0.00    +0.000 OA
ATOM      8  C   UNL     1       3.706   5.405  18.925  0.00  0.00    +0.000 A 
ATOM      9  C   UNL     1       2.977   5.351  20.105  0.00  0.00    +0.000 A 
ATOM     10  C   UNL     1       2.102   6.390  20.356  0.00  0.00    +0.000 A 
ATOM     11  C   UNL     1       2.075   7.416  19.427  0.00  0.00    +0.000 A 
ATOM     12  O   UNL     1       1.311   8.503  19.576  0.00  0.00    +0.000 OA
ATOM     13  C   UNL     1       1.599   9.379  18.570  0.00  0.00    +0.000 A 
ATOM     14  C   UNL     1       2.503   8.778  17.682  0.00  0.00    +0.000 A 
ATOM     15  C   UNL     1       2.813   7.517  18.262  0.00  0.00    +0.000 A 
ATOM     16  C   UNL     1       3.678   6.404  17.964  0.00  0.00    +0.000 A 
ENDROOT
BRANCH  13  17
ATOM     17  C   UNL     1       0.976  10.739  18.658  0.00  0.00    +0.000 A 
ATOM     18  C   UNL     1       1.794  11.929  18.655  0.00  0.00    +0.000 A 
ATOM     19  C   UNL     1       1.051  13.090  18.625  0.00  0.00    +0.000 A 
ATOM     20  S   UNL     1      -0.624  12.756  18.646  0.00  0.00    +0.000 S 
ATOM     21  C   UNL     1      -0.356  11.056  18.681  0.00  0.00    +0.000 A 
ENDBRANCH  13  17
TORSDOF 1
ENDMDL
MODEL 5
REMARK VINA RESULT:      -7.6      3.791      7.098
REMARK  Name = 
REMARK  1 active torsions:
REMARK  status: ('A' for Active; 'I' for Inactive)
REMARK    1  A    between atoms: C_13  and  C_14
REMARK                            x       y       z     vdW  Elec       q    Type
REMARK                         _______ _______ _______ _____ _____    ______ ____
ROOT
ATOM      1  C   UNL     1       1.006   9.420  19.789  0.00  0.00    +0.000 A 
ATOM      2  C   UNL     1       1.565   9.652  18.530  0.00  0.00    +0.000 A 
ATOM      3  C   UNL     1       2.394   8.697  17.888  0.00  0.00    +0.000 A 
ATOM      4  C   UNL     1       2.678   7.476  18.541  0.00  0.00    +0.000 A 
ATOM      5  C   UNL     1       2.087   7.314  19.803  0.00  0.00    +0.000 A 
ATOM      6  C   UNL     1       1.256   8.228  20.453  0.00  0.00    +0.000 A 
ATOM      7  O   UNL     1       2.421   6.137  20.370  0.00  0.00    +0.000 OA
ATOM      8  C   UNL     1       3.246   5.507  19.507  0.00  0.00    +0.000 A 
ATOM      9  C   UNL     1       3.813   4.271  19.788  0.00  0.00    +0.000 A 
ATOM     10  C   UNL     1       4.670   3.739  18.844  0.00  0.00    +0.000 A 
ATOM     11  C   UNL     1       4.840   4.469  17.680  0.00  0.00    +0.000 A 
ATOM     12  O   UNL     1       5.602   4.042  16.667  0.00  0.00    +0.000 OA
ATOM     13  C   UNL     1       5.467   4.912  15.625  0.00  0.00    +0.000 A 
ATOM     14  C   UNL     1       4.675   5.996  16.029  0.00  0.00    +0.000 A 
ATOM     15  C   UNL     1       4.264   5.682  17.355  0.00  0.00    +0.000 A 
ATOM     16  C   UNL     1       3.422   6.272  18.364  0.00  0.00    +0.000 A 
ENDROOT
BRANCH  13  17
ATOM     17  C   UNL     1       6.103   4.517  14.327  0.00  0.00    +0.000 A 
ATOM     18  C   UNL     1       5.456   3.576  13.441  0.00  0.00    +0.000 A 
ATOM     19  C   UNL     1       6.125   3.418  12.247  0.00  0.00    +0.000 A 
ATOM     20  S   UNL     1       7.549   4.360  12.202  0.00  0.00    +0.000 S 
ATOM     21  C   UNL     1       7.265   4.991  13.778  0.00  0.00    +0.000 A 
ENDBRANCH  13  17
TORSDOF 1
ENDMDL
MODEL 6
REMARK VINA RESULT:      -7.5      4.260      5.377
REMARK  Name = 
REMARK  1 active torsions:
REMARK  status: ('A' for Active; 'I' for Inactive)
REMARK    1  A    between atoms: C_13  and  C_14
REMARK                            x       y       z     vdW  Elec       q    Type
REMARK                         _______ _______ _______ _____ _____    ______ ____
ROOT
ATOM      1  C   UNL     1       6.393   4.312  15.033  0.00  0.00    +0.000 A 
ATOM      2  C   UNL     1       5.908   5.600  14.800  0.00  0.00    +0.000 A 
ATOM      3  C   UNL     1       5.022   6.244  15.701  0.00  0.00    +0.000 A 
ATOM      4  C   UNL     1       4.603   5.563  16.867  0.00  0.00    +0.000 A 
ATOM      5  C   UNL     1       5.127   4.272  17.032  0.00  0.00    +0.000 A 
ATOM      6  C   UNL     1       6.010   3.619  16.172  0.00  0.00    +0.000 A 
ATOM      7  O   UNL     1       4.666   3.679  18.153  0.00  0.00    +0.000 OA
ATOM      8  C   UNL     1       3.822   4.555  18.740  0.00  0.00    +0.000 A 
ATOM      9  C   UNL     1       3.135   4.257  19.908  0.00  0.00    +0.000 A 
ATOM     10  C   UNL     1       2.271   5.218  20.398  0.00  0.00    +0.000 A 
ATOM     11  C   UNL     1       2.214   6.412  19.700  0.00  0.00    +0.000 A 
ATOM     12  O   UNL     1       1.458   7.442  20.096  0.00  0.00    +0.000 OA
ATOM     13  C   UNL     1       1.712   8.506  19.281  0.00  0.00    +0.000 A 
ATOM     14  C   UNL     1       2.583   8.106  18.258  0.00  0.00    +0.000 A 
ATOM     15  C   UNL     1       2.911   6.754  18.556  0.00  0.00    +0.000 A 
ATOM     16  C   UNL     1       3.761   5.730  18.005  0.00  0.00    +0.000 A 
ENDROOT
BRANCH  13  17
ATOM     17  C   UNL     1       1.095   9.816  19.668  0.00  0.00    +0.000 A 
ATOM     18  C   UNL     1       0.610  10.039  21.010  0.00  0.00    +0.000 A 
ATOM     19  C   UNL     1       0.182  11.333  21.217  0.00  0.00    +0.000 A 
ATOM     20  S   UNL     1       0.318  12.268  19.794  0.00  0.00    +0.000 S 
ATOM     21  C   UNL     1       0.964  10.944  18.902  0.00  0.00    +0.000 A 
ENDBRANCH  13  17
TORSDOF 1
ENDMDL
MODEL 7
REMARK VINA RESULT:      -7.4      4.822      7.101
REMARK  Name = 
REMARK  1 active torsions:
REMARK  status: ('A' for Active; 'I' for Inactive)
REMARK    1  A    between atoms: C_13  and  C_14
REMARK                            x       y       z     vdW  Elec       q    Type
REMARK                         _______ _______ _______ _____ _____    ______ ____
ROOT
ATOM      1  C   UNL     1       2.752   2.265  21.144  0.00  0.00    +0.000 A 
ATOM      2  C   UNL     1       1.948   3.274  21.677  0.00  0.00    +0.000 A 
ATOM      3  C   UNL     1       1.855   4.557  21.078  0.00  0.00    +0.000 A 
ATOM      4  C   UNL     1       2.606   4.833  19.912  0.00  0.00    +0.000 A 
ATOM      5  C   UNL     1       3.394   3.774  19.437  0.00  0.00    +0.000 A 
ATOM      6  C   UNL     1       3.495   2.500  19.995  0.00  0.00    +0.000 A 
ATOM      7  O   UNL     1       4.095   4.121  18.338  0.00  0.00    +0.000 OA
ATOM      8  C   UNL     1       3.798   5.411  18.074  0.00  0.00    +0.000 A 
ATOM      9  C   UNL     1       4.375   6.107  17.020  0.00  0.00    +0.000 A 
ATOM     10  C   UNL     1       4.021   7.434  16.869  0.00  0.00    +0.000 A 
ATOM     11  C   UNL     1       3.081   7.929  17.756  0.00  0.00    +0.000 A 
ATOM     12  O   UNL     1       2.615   9.181  17.687  0.00  0.00    +0.000 OA
ATOM     13  C   UNL     1       1.618   9.326  18.608  0.00  0.00    +0.000 A 
ATOM     14  C   UNL     1       1.521   8.152  19.370  0.00  0.00    +0.000 A 
ATOM     15  C   UNL     1       2.462   7.254  18.792  0.00  0.00    +0.000 A 
ATOM     16  C   UNL     1       2.878   5.890  18.995  0.00  0.00    +0.000 A 
ENDROOT
BRANCH  13  17
ATOM     17  C   UNL     1       0.842  10.607  18.570  0.00  0.00    +0.000 A 
ATOM     18  C   UNL     1      -0.585  10.601  18.347  0.00  0.00    +0.000 A 
ATOM     19  C   UNL     1      -1.149  11.854  18.458  0.00  0.00    +0.000 A 
ATOM     20  S   UNL     1       0.034  13.042  18.784  0.00  0.00    +0.000 S 
ATOM     21  C   UNL     1       1.302  11.878  18.791  0.00  0.00    +0.000 A 
ENDBRANCH  13  17
TORSDOF 1
ENDMDL
MODEL 8
REMARK VINA RESULT:      -7.4      5.424      8.453
REMARK  Name = 
REMARK  1 active torsions:
REMARK  status: ('A' for Active; 'I' for Inactive)
REMARK    1  A    between atoms: C_13  and  C_14
REMARK                            x       y       z     vdW  Elec       q    Type
REMARK                         _______ _______ _______ _____ _____    ______ ____
ROOT
ATOM      1  C   UNL     1      -1.029  11.611  22.925  0.00  0.00    +0.000 A 
ATOM      2  C   UNL     1      -0.917  10.269  23.294  0.00  0.00    +0.000 A 
ATOM      3  C   UNL     1      -0.237   9.322  22.486  0.00  0.00    +0.000 A 
ATOM      4  C   UNL     1       0.336   9.738  21.263  0.00  0.00    +0.000 A 
ATOM      5  C   UNL     1       0.180  11.099  20.956  0.00  0.00    +0.000 A 
ATOM      6  C   UNL     1      -0.470  12.056  21.736  0.00  0.00    +0.000 A 
ATOM      7  O   UNL     1       0.733  11.415  19.767  0.00  0.00    +0.000 OA
ATOM      8  C   UNL     1       1.249  10.275  19.260  0.00  0.00    +0.000 A 
ATOM      9  C   UNL     1       1.871  10.227  18.020  0.00  0.00    +0.000 A 
ATOM     10  C   UNL     1       2.330   8.997  17.589  0.00  0.00    +0.000 A 
ATOM     11  C   UNL     1       2.172   7.936  18.464  0.00  0.00    +0.000 A 
ATOM     12  O   UNL     1       2.618   6.705  18.191  0.00  0.00    +0.000 OA
ATOM     13  C   UNL     1       2.427   5.919  19.290  0.00  0.00    +0.000 A 
ATOM     14  C   UNL     1       1.731   6.651  20.263  0.00  0.00    +0.000 A 
ATOM     15  C   UNL     1       1.591   7.957  19.718  0.00  0.00    +0.000 A 
ATOM     16  C   UNL     1       1.051   9.224  20.143  0.00  0.00    +0.000 A 
ENDROOT
BRANCH  13  17
ATOM     17  C   UNL     1       3.023   4.545  19.251  0.00  0.00    +0.000 A 
ATOM     18  C   UNL     1       3.398   3.936  17.996  0.00  0.00    +0.000 A 
ATOM     19  C   UNL     1       4.034   2.723  18.158  0.00  0.00    +0.000 A 
ATOM     20  S   UNL     1       4.141   2.293  19.808  0.00  0.00    +0.000 S 
ATOM     21  C   UNL     1       3.349   3.738  20.308  0.00  0.00    +0.000 A 
ENDBRANCH  13  17
TORSDOF 1
ENDMDL
MODEL 9
REMARK VINA RESULT:      -7.1      5.710      8.400
REMARK  Name = 
REMARK  1 active torsions:
REMARK  status: ('A' for Active; 'I' for Inactive)
REMARK    1  A    between atoms: C_13  and  C_14
REMARK                            x       y       z     vdW  Elec       q    Type
REMARK                         _______ _______ _______ _____ _____    ______ ____
ROOT
ATOM      1  C   UNL     1      -0.915  12.708  21.962  0.00  0.00    +0.000 A 
ATOM      2  C   UNL     1      -0.893  11.495  22.653  0.00  0.00    +0.000 A 
ATOM      3  C   UNL     1      -0.258  10.341  22.126  0.00  0.00    +0.000 A 
ATOM      4  C   UNL     1       0.363  10.410  20.858  0.00  0.00    +0.000 A 
ATOM      5  C   UNL     1       0.297  11.658  20.221  0.00  0.00    +0.000 A 
ATOM      6  C   UNL     1      -0.306  12.813  20.720  0.00  0.00    +0.000 A 
ATOM      7  O   UNL     1       0.892  11.639  19.010  0.00  0.00    +0.000 OA
ATOM      8  C   UNL     1       1.346  10.382  18.817  0.00  0.00    +0.000 A 
ATOM      9  C   UNL     1       1.987   9.995  17.648  0.00  0.00    +0.000 A 
ATOM     10  C   UNL     1       2.378   8.673  17.549  0.00  0.00    +0.000 A 
ATOM     11  C   UNL     1       2.137   7.872  18.652  0.00  0.00    +0.000 A 
ATOM     12  O   UNL     1       2.511   6.589  18.705  0.00  0.00    +0.000 OA
ATOM     13  C   UNL     1       2.251   6.111  19.956  0.00  0.00    +0.000 A 
ATOM     14  C   UNL     1       1.582   7.098  20.696  0.00  0.00    +0.000 A 
ATOM     15  C   UNL     1       1.535   8.235  19.842  0.00  0.00    +0.000 A 
ATOM     16  C   UNL     1       1.066   9.595  19.924  0.00  0.00    +0.000 A 
ENDROOT
BRANCH  13  17
ATOM     17  C   UNL     1       2.761   4.740  20.277  0.00  0.00    +0.000 A 
ATOM     18  C   UNL     1       2.138   3.940  21.306  0.00  0.00    +0.000 A 
ATOM     19  C   UNL     1       2.662   2.668  21.386  0.00  0.00    +0.000 A 
ATOM     20  S   UNL     1       3.929   2.445  20.262  0.00  0.00    +0.000 S 
ATOM     21  C   UNL     1       3.767   4.048  19.657  0.00  0.00    +0.000 A 
ENDBRANCH  13  17
TORSDOF 1
ENDMDL
