MODEL 1
REMARK VINA RESULT:     -10.6      0.000      0.000
REMARK  Name = 
REMARK  2 active torsions:
REMARK  status: ('A' for Active; 'I' for Inactive)
REMARK    1  A    between atoms: N_16  and  C_17
REMARK    2  A    between atoms: C_17  and  C_18
REMARK                            x       y       z     vdW  Elec       q    Type
REMARK                         _______ _______ _______ _____ _____    ______ ____
ROOT
ATOM      1  O   UNL     1       4.706   2.607  19.652  0.00  0.00    +0.000 OA
ATOM      2  C   UNL     1       4.697   3.814  19.367  0.00  0.00    +0.000 C 
ATOM      3  N   UNL     1       5.871   4.457  19.565  0.00  0.00    +0.000 N 
ATOM      4  C   UNL     1       6.364   5.614  18.874  0.00  0.00    +0.000 C 
ATOM      5  C   UNL     1       6.305   5.388  17.390  0.00  0.00    +0.000 A 
ATOM      6  C   UNL     1       7.283   4.609  16.761  0.00  0.00    +0.000 A 
ATOM      7  F   UNL     1       8.288   4.096  17.485  0.00  0.00    +0.000 F 
ATOM      8  C   UNL     1       7.223   4.326  15.405  0.00  0.00    +0.000 A 
ATOM      9  C   UNL     1       6.175   4.838  14.634  0.00  0.00    +0.000 A 
ATOM     10  C   UNL     1       5.177   5.598  15.258  0.00  0.00    +0.000 A 
ATOM     11  C   UNL     1       5.217   5.855  16.640  0.00  0.00    +0.000 A 
ATOM     12  C   UNL     1       4.121   6.562  17.312  0.00  0.00    +0.000 C 
ATOM     13  C   UNL     1       3.950   7.891  17.221  0.00  0.00    +0.000 C 
ATOM     14  N   UNL     1       2.927   8.595  17.837  0.00  0.00    +0.000 NA
ATOM     15  C   UNL     1       2.280   7.958  18.793  0.00  0.00    +0.000 C 
ATOM     16  N   UNL     1       1.255   8.544  19.510  0.00  0.00    +0.000 N 
ATOM     17  N   UNL     1       2.553   6.662  19.154  0.00  0.00    +0.000 N 
ATOM     18  C   UNL     1       2.253   5.890  20.225  0.00  0.00    +0.000 C 
ATOM     19  N   UNL     1       2.582   4.638  20.229  0.00  0.00    +0.000 NA
ATOM     20  C   UNL     1       3.372   4.476  18.945  0.00  0.00    +0.000 C 
ATOM     21  C   UNL     1       3.148   5.789  18.146  0.00  0.00    +0.000 C 
ATOM     22  H   UNL     1       6.582   3.797  19.863  0.00  0.00    +0.000 HD
ATOM     23  H   UNL     1       0.615   7.883  19.921  0.00  0.00    +0.000 HD
ENDROOT
BRANCH  16  24
ATOM     24  C   UNL     1       0.596   9.734  19.000  0.00  0.00    +0.000 C 
BRANCH  24  25
ATOM     25  C   UNL     1      -0.195  10.561  20.004  0.00  0.00    +0.000 A 
ATOM     26  C   UNL     1      -0.376  11.920  19.661  0.00  0.00    +0.000 A 
ATOM     27  F   UNL     1      -0.004  12.344  18.446  0.00  0.00    +0.000 F 
ATOM     28  C   UNL     1      -0.836  12.890  20.569  0.00  0.00    +0.000 A 
ATOM     29  C   UNL     1      -1.026  12.557  21.902  0.00  0.00    +0.000 A 
ATOM     30  C   UNL     1      -0.802  11.240  22.235  0.00  0.00    +0.000 A 
ATOM     31  C   UNL     1      -0.532  10.222  21.304  0.00  0.00    +0.000 A 
ATOM     32  C   UNL     1      -0.530   8.963  22.098  0.00  0.00    +0.000 C 
ATOM     33  C   UNL     1       0.116   9.580  23.323  0.00  0.00    +0.000 C 
ATOM     34  O   UNL     1      -0.619  10.814  23.539  0.00  0.00    +0.000 OA
ENDBRANCH  24  25
ENDBRANCH  16  24
TORSDOF 2
ENDMDL
MODEL 2
REMARK VINA RESULT:     -10.2      1.321      2.001
REMARK  Name = 
REMARK  2 active torsions:
REMARK  status: ('A' for Active; 'I' for Inactive)
REMARK    1  A    between atoms: N_16  and  C_17
REMARK    2  A    between atoms: C_17  and  C_18
REMARK                            x       y       z     vdW  Elec       q    Type
REMARK                         _______ _______ _______ _____ _____    ______ ____
ROOT
ATOM      1  O   UNL     1       4.754   2.413  19.635  0.00  0.00    +0.000 OA
ATOM      2  C   UNL     1       4.713   3.632  19.410  0.00  0.00    +0.000 C 
ATOM      3  N   UNL     1       5.885   4.285  19.586  0.00  0.00    +0.000 N 
ATOM      4  C   UNL     1       6.327   5.483  18.931  0.00  0.00    +0.000 C 
ATOM      5  C   UNL     1       6.203   5.329  17.442  0.00  0.00    +0.000 A 
ATOM      6  C   UNL     1       7.163   4.599  16.732  0.00  0.00    +0.000 A 
ATOM      7  F   UNL     1       8.208   4.069  17.384  0.00  0.00    +0.000 F 
ATOM      8  C   UNL     1       7.045   4.381  15.368  0.00  0.00    +0.000 A 
ATOM      9  C   UNL     1       5.955   4.911  14.672  0.00  0.00    +0.000 A 
ATOM     10  C   UNL     1       4.975   5.622  15.376  0.00  0.00    +0.000 A 
ATOM     11  C   UNL     1       5.075   5.812  16.767  0.00  0.00    +0.000 A 
ATOM     12  C   UNL     1       4.001   6.466  17.522  0.00  0.00    +0.000 C 
ATOM     13  C   UNL     1       3.805   7.795  17.504  0.00  0.00    +0.000 C 
ATOM     14  N   UNL     1       2.800   8.450  18.200  0.00  0.00    +0.000 NA
ATOM     15  C   UNL     1       2.208   7.756  19.151  0.00  0.00    +0.000 C 
ATOM     16  N   UNL     1       1.209   8.288  19.942  0.00  0.00    +0.000 N 
ATOM     17  N   UNL     1       2.518   6.449  19.435  0.00  0.00    +0.000 N 
ATOM     18  C   UNL     1       2.279   5.621  20.479  0.00  0.00    +0.000 C 
ATOM     19  N   UNL     1       2.627   4.376  20.406  0.00  0.00    +0.000 NA
ATOM     20  C   UNL     1       3.359   4.290  19.082  0.00  0.00    +0.000 C 
ATOM     21  C   UNL     1       3.078   5.636  18.359  0.00  0.00    +0.000 C 
ATOM     22  H   UNL     1       6.618   3.624  19.819  0.00  0.00    +0.000 HD
ATOM     23  H   UNL     1       0.598   7.597  20.348  0.00  0.00    +0.000 HD
ENDROOT
BRANCH  16  24
ATOM     24  C   UNL     1       0.508   9.490  19.522  0.00  0.00    +0.000 C 
BRANCH  24  25
ATOM     25  C   UNL     1       0.324  10.577  20.571  0.00  0.00    +0.000 A 
ATOM     26  C   UNL     1      -0.418  10.198  21.713  0.00  0.00    +0.000 A 
ATOM     27  F   UNL     1      -0.756   8.912  21.876  0.00  0.00    +0.000 F 
ATOM     28  C   UNL     1      -0.917  11.120  22.649  0.00  0.00    +0.000 A 
ATOM     29  C   UNL     1      -0.790  12.481  22.417  0.00  0.00    +0.000 A 
ATOM     30  C   UNL     1      -0.106  12.841  21.278  0.00  0.00    +0.000 A 
ATOM     31  C   UNL     1       0.565  11.934  20.438  0.00  0.00    +0.000 A 
ATOM     32  C   UNL     1       1.284  12.784  19.450  0.00  0.00    +0.000 C 
ATOM     33  C   UNL     1       0.189  13.827  19.349  0.00  0.00    +0.000 C 
ATOM     34  O   UNL     1      -0.174  14.108  20.727  0.00  0.00    +0.000 OA
ENDBRANCH  24  25
ENDBRANCH  16  24
TORSDOF 2
ENDMDL
MODEL 3
REMARK VINA RESULT:     -10.1      1.311      1.946
REMARK  Name = 
REMARK  2 active torsions:
REMARK  status: ('A' for Active; 'I' for Inactive)
REMARK    1  A    between atoms: N_16  and  C_17
REMARK    2  A    between atoms: C_17  and  C_18
REMARK                            x       y       z     vdW  Elec       q    Type
REMARK                         _______ _______ _______ _____ _____    ______ ____
ROOT
ATOM      1  O   UNL     1       4.788   2.404  19.666  0.00  0.00    +0.000 OA
ATOM      2  C   UNL     1       4.733   3.624  19.448  0.00  0.00    +0.000 C 
ATOM      3  N   UNL     1       5.896   4.290  19.631  0.00  0.00    +0.000 N 
ATOM      4  C   UNL     1       6.325   5.497  18.984  0.00  0.00    +0.000 C 
ATOM      5  C   UNL     1       6.206   5.350  17.493  0.00  0.00    +0.000 A 
ATOM      6  C   UNL     1       7.176   4.636  16.781  0.00  0.00    +0.000 A 
ATOM      7  F   UNL     1       8.227   4.116  17.431  0.00  0.00    +0.000 F 
ATOM      8  C   UNL     1       7.064   4.425  15.415  0.00  0.00    +0.000 A 
ATOM      9  C   UNL     1       5.968   4.946  14.720  0.00  0.00    +0.000 A 
ATOM     10  C   UNL     1       4.978   5.641  15.427  0.00  0.00    +0.000 A 
ATOM     11  C   UNL     1       5.073   5.824  16.819  0.00  0.00    +0.000 A 
ATOM     12  C   UNL     1       3.990   6.460  17.575  0.00  0.00    +0.000 C 
ATOM     13  C   UNL     1       3.778   7.786  17.565  0.00  0.00    +0.000 C 
ATOM     14  N   UNL     1       2.764   8.425  18.263  0.00  0.00    +0.000 NA
ATOM     15  C   UNL     1       2.178   7.718  19.209  0.00  0.00    +0.000 C 
ATOM     16  N   UNL     1       1.171   8.233  20.001  0.00  0.00    +0.000 N 
ATOM     17  N   UNL     1       2.503   6.414  19.486  0.00  0.00    +0.000 N 
ATOM     18  C   UNL     1       2.272   5.576  20.525  0.00  0.00    +0.000 C 
ATOM     19  N   UNL     1       2.637   4.336  20.445  0.00  0.00    +0.000 NA
ATOM     20  C   UNL     1       3.372   4.267  19.121  0.00  0.00    +0.000 C 
ATOM     21  C   UNL     1       3.076   5.614  18.406  0.00  0.00    +0.000 C 
ATOM     22  H   UNL     1       6.638   3.637  19.861  0.00  0.00    +0.000 HD
ATOM     23  H   UNL     1       0.568   7.532  20.402  0.00  0.00    +0.000 HD
ENDROOT
BRANCH  16  24
ATOM     24  C   UNL     1       0.456   9.429  19.587  0.00  0.00    +0.000 C 
BRANCH  24  25
ATOM     25  C   UNL     1      -0.065  10.333  20.695  0.00  0.00    +0.000 A 
ATOM     26  C   UNL     1       0.035   9.808  22.003  0.00  0.00    +0.000 A 
ATOM     27  F   UNL     1       0.708   8.666  22.201  0.00  0.00    +0.000 F 
ATOM     28  C   UNL     1      -0.627  10.365  23.111  0.00  0.00    +0.000 A 
ATOM     29  C   UNL     1      -1.515  11.415  22.931  0.00  0.00    +0.000 A 
ATOM     30  C   UNL     1      -1.641  11.890  21.645  0.00  0.00    +0.000 A 
ATOM     31  C   UNL     1      -0.843  11.471  20.565  0.00  0.00    +0.000 A 
ATOM     32  C   UNL     1      -1.222  12.364  19.436  0.00  0.00    +0.000 C 
ATOM     33  C   UNL     1      -2.692  12.426  19.804  0.00  0.00    +0.000 C 
ATOM     34  O   UNL     1      -2.699  12.681  21.234  0.00  0.00    +0.000 OA
ENDBRANCH  24  25
ENDBRANCH  16  24
TORSDOF 2
ENDMDL
MODEL 4
REMARK VINA RESULT:      -9.9      1.135      1.390
REMARK  Name = 
REMARK  2 active torsions:
REMARK  status: ('A' for Active; 'I' for Inactive)
REMARK    1  A    between atoms: N_16  and  C_17
REMARK    2  A    between atoms: C_17  and  C_18
REMARK                            x       y       z     vdW  Elec       q    Type
REMARK                         _______ _______ _______ _____ _____    ______ ____
ROOT
ATOM      1  O   UNL     1       4.651   2.882  19.885  0.00  0.00    +0.000 OA
ATOM      2  C   UNL     1       4.651   4.052  19.473  0.00  0.00    +0.000 C 
ATOM      3  N   UNL     1       5.828   4.706  19.608  0.00  0.00    +0.000 N 
ATOM      4  C   UNL     1       6.330   5.781  18.800  0.00  0.00    +0.000 C 
ATOM      5  C   UNL     1       6.276   5.400  17.348  0.00  0.00    +0.000 A 
ATOM      6  C   UNL     1       7.251   4.553  16.809  0.00  0.00    +0.000 A 
ATOM      7  F   UNL     1       8.251   4.114  17.588  0.00  0.00    +0.000 F 
ATOM      8  C   UNL     1       7.195   4.129  15.491  0.00  0.00    +0.000 A 
ATOM      9  C   UNL     1       6.153   4.563  14.666  0.00  0.00    +0.000 A 
ATOM     10  C   UNL     1       5.157   5.390  15.201  0.00  0.00    +0.000 A 
ATOM     11  C   UNL     1       5.193   5.791  16.549  0.00  0.00    +0.000 A 
ATOM     12  C   UNL     1       4.100   6.571  17.138  0.00  0.00    +0.000 C 
ATOM     13  C   UNL     1       3.937   7.884  16.906  0.00  0.00    +0.000 C 
ATOM     14  N   UNL     1       2.916   8.656  17.440  0.00  0.00    +0.000 NA
ATOM     15  C   UNL     1       2.262   8.127  18.455  0.00  0.00    +0.000 C 
ATOM     16  N   UNL     1       1.238   8.790  19.102  0.00  0.00    +0.000 N 
ATOM     17  N   UNL     1       2.525   6.875  18.952  0.00  0.00    +0.000 N 
ATOM     18  C   UNL     1       2.216   6.221  20.097  0.00  0.00    +0.000 C 
ATOM     19  N   UNL     1       2.538   4.974  20.234  0.00  0.00    +0.000 NA
ATOM     20  C   UNL     1       3.331   4.673  18.978  0.00  0.00    +0.000 C 
ATOM     21  C   UNL     1       3.118   5.896  18.044  0.00  0.00    +0.000 C 
ATOM     22  H   UNL     1       6.534   4.077  19.977  0.00  0.00    +0.000 HD
ATOM     23  H   UNL     1       0.592   8.180  19.577  0.00  0.00    +0.000 HD
ENDROOT
BRANCH  16  24
ATOM     24  C   UNL     1       0.587   9.924  18.466  0.00  0.00    +0.000 C 
BRANCH  24  25
ATOM     25  C   UNL     1       0.698  11.264  19.179  0.00  0.00    +0.000 A 
ATOM     26  C   UNL     1       1.821  12.048  18.828  0.00  0.00    +0.000 A 
ATOM     27  F   UNL     1       2.597  11.658  17.808  0.00  0.00    +0.000 F 
ATOM     28  C   UNL     1       2.236  13.172  19.560  0.00  0.00    +0.000 A 
ATOM     29  C   UNL     1       1.605  13.495  20.752  0.00  0.00    +0.000 A 
ATOM     30  C   UNL     1       0.541  12.699  21.110  0.00  0.00    +0.000 A 
ATOM     31  C   UNL     1      -0.006  11.694  20.292  0.00  0.00    +0.000 A 
ATOM     32  C   UNL     1      -1.219  11.226  21.015  0.00  0.00    +0.000 C 
ATOM     33  C   UNL     1      -0.610  11.358  22.397  0.00  0.00    +0.000 C 
ATOM     34  O   UNL     1       0.023  12.664  22.393  0.00  0.00    +0.000 OA
ENDBRANCH  24  25
ENDBRANCH  16  24
TORSDOF 2
ENDMDL
MODEL 5
REMARK VINA RESULT:      -9.8      1.562      2.080
REMARK  Name = 
REMARK  2 active torsions:
REMARK  status: ('A' for Active; 'I' for Inactive)
REMARK    1  A    between atoms: N_16  and  C_17
REMARK    2  A    between atoms: C_17  and  C_18
REMARK                            x       y       z     vdW  Elec       q    Type
REMARK                         _______ _______ _______ _____ _____    ______ ____
ROOT
ATOM      1  O   UNL     1       4.218   2.839  19.659  0.00  0.00    +0.000 OA
ATOM      2  C   UNL     1       4.322   4.036  19.352  0.00  0.00    +0.000 C 
ATOM      3  N   UNL     1       5.526   4.593  19.622  0.00  0.00    +0.000 N 
ATOM      4  C   UNL     1       6.153   5.693  18.947  0.00  0.00    +0.000 C 
ATOM      5  C   UNL     1       6.180   5.438  17.467  0.00  0.00    +0.000 A 
ATOM      6  C   UNL     1       7.136   4.572  16.923  0.00  0.00    +0.000 A 
ATOM      7  F   UNL     1       8.046   4.002  17.726  0.00  0.00    +0.000 F 
ATOM      8  C   UNL     1       7.150   4.263  15.572  0.00  0.00    +0.000 A 
ATOM      9  C   UNL     1       6.201   4.835  14.720  0.00  0.00    +0.000 A 
ATOM     10  C   UNL     1       5.223   5.682  15.256  0.00  0.00    +0.000 A 
ATOM     11  C   UNL     1       5.186   5.968  16.633  0.00  0.00    +0.000 A 
ATOM     12  C   UNL     1       4.105   6.771  17.213  0.00  0.00    +0.000 C 
ATOM     13  C   UNL     1       4.043   8.107  17.086  0.00  0.00    +0.000 C 
ATOM     14  N   UNL     1       3.037   8.901  17.615  0.00  0.00    +0.000 NA
ATOM     15  C   UNL     1       2.278   8.337  18.534  0.00  0.00    +0.000 C 
ATOM     16  N   UNL     1       1.254   9.015  19.166  0.00  0.00    +0.000 N 
ATOM     17  N   UNL     1       2.424   7.033  18.936  0.00  0.00    +0.000 N 
ATOM     18  C   UNL     1       1.991   6.311  19.997  0.00  0.00    +0.000 C 
ATOM     19  N   UNL     1       2.222   5.037  20.046  0.00  0.00    +0.000 NA
ATOM     20  C   UNL     1       3.084   4.786  18.825  0.00  0.00    +0.000 C 
ATOM     21  C   UNL     1       3.018   6.093  17.989  0.00  0.00    +0.000 C 
ATOM     22  H   UNL     1       6.161   3.888  19.982  0.00  0.00    +0.000 HD
ATOM     23  H   UNL     1       0.538   8.414  19.541  0.00  0.00    +0.000 HD
ENDROOT
BRANCH  16  24
ATOM     24  C   UNL     1       0.725  10.240  18.588  0.00  0.00    +0.000 C 
BRANCH  24  25
ATOM     25  C   UNL     1      -0.754  10.519  18.814  0.00  0.00    +0.000 A 
ATOM     26  C   UNL     1      -1.622  10.037  17.808  0.00  0.00    +0.000 A 
ATOM     27  F   UNL     1      -1.131   9.248  16.843  0.00  0.00    +0.000 F 
ATOM     28  C   UNL     1      -2.969  10.423  17.701  0.00  0.00    +0.000 A 
ATOM     29  C   UNL     1      -3.476  11.407  18.537  0.00  0.00    +0.000 A 
ATOM     30  C   UNL     1      -2.609  11.905  19.484  0.00  0.00    +0.000 A 
ATOM     31  C   UNL     1      -1.323  11.390  19.728  0.00  0.00    +0.000 A 
ATOM     32  C   UNL     1      -0.836  12.122  20.928  0.00  0.00    +0.000 C 
ATOM     33  C   UNL     1      -1.476  13.443  20.547  0.00  0.00    +0.000 C 
ATOM     34  O   UNL     1      -2.830  13.093  20.158  0.00  0.00    +0.000 OA
ENDBRANCH  24  25
ENDBRANCH  16  24
TORSDOF 2
ENDMDL
MODEL 6
REMARK VINA RESULT:      -9.6      2.736      9.366
REMARK  Name = 
REMARK  2 active torsions:
REMARK  status: ('A' for Active; 'I' for Inactive)
REMARK    1  A    between atoms: N_16  and  C_17
REMARK    2  A    between atoms: C_17  and  C_18
REMARK                            x       y       z     vdW  Elec       q    Type
REMARK                         _______ _______ _______ _____ _____    ______ ____
ROOT
ATOM      1  O   UNL     1      -0.788  13.453  18.181  0.00  0.00    +0.000 OA
ATOM      2  C   UNL     1      -0.198  12.722  18.992  0.00  0.00    +0.000 C 
ATOM      3  N   UNL     1       0.695  13.355  19.787  0.00  0.00    +0.000 N 
ATOM      4  C   UNL     1       1.110  12.980  21.108  0.00  0.00    +0.000 C 
ATOM      5  C   UNL     1      -0.092  12.774  21.984  0.00  0.00    +0.000 A 
ATOM      6  C   UNL     1      -0.766  13.877  22.520  0.00  0.00    +0.000 A 
ATOM      7  F   UNL     1      -0.310  15.114  22.275  0.00  0.00    +0.000 F 
ATOM      8  C   UNL     1      -1.917  13.726  23.278  0.00  0.00    +0.000 A 
ATOM      9  C   UNL     1      -2.417  12.446  23.533  0.00  0.00    +0.000 A 
ATOM     10  C   UNL     1      -1.766  11.335  22.981  0.00  0.00    +0.000 A 
ATOM     11  C   UNL     1      -0.619  11.490  22.181  0.00  0.00    +0.000 A 
ATOM     12  C   UNL     1       0.005  10.339  21.519  0.00  0.00    +0.000 C 
ATOM     13  C   UNL     1       0.764   9.447  22.174  0.00  0.00    +0.000 C 
ATOM     14  N   UNL     1       1.367   8.345  21.586  0.00  0.00    +0.000 NA
ATOM     15  C   UNL     1       1.434   8.357  20.269  0.00  0.00    +0.000 C 
ATOM     16  N   UNL     1       2.029   7.340  19.549  0.00  0.00    +0.000 N 
ATOM     17  N   UNL     1       0.913   9.366  19.497  0.00  0.00    +0.000 N 
ATOM     18  C   UNL     1       1.070   9.755  18.209  0.00  0.00    +0.000 C 
ATOM     19  N   UNL     1       0.345  10.717  17.735  0.00  0.00    +0.000 NA
ATOM     20  C   UNL     1      -0.435  11.201  18.941  0.00  0.00    +0.000 C 
ATOM     21  C   UNL     1      -0.196  10.139  20.049  0.00  0.00    +0.000 C 
ATOM     22  H   UNL     1       0.672  14.353  19.608  0.00  0.00    +0.000 HD
ATOM     23  H   UNL     1       1.700   7.266  18.600  0.00  0.00    +0.000 HD
ENDROOT
BRANCH  16  24
ATOM     24  C   UNL     1       2.266   6.048  20.172  0.00  0.00    +0.000 C 
BRANCH  24  25
ATOM     25  C   UNL     1       2.218   4.831  19.260  0.00  0.00    +0.000 A 
ATOM     26  C   UNL     1       1.426   3.756  19.723  0.00  0.00    +0.000 A 
ATOM     27  F   UNL     1       0.659   3.929  20.808  0.00  0.00    +0.000 F 
ATOM     28  C   UNL     1       1.472   2.467  19.166  0.00  0.00    +0.000 A 
ATOM     29  C   UNL     1       2.407   2.169  18.186  0.00  0.00    +0.000 A 
ATOM     30  C   UNL     1       3.207   3.211  17.774  0.00  0.00    +0.000 A 
ATOM     31  C   UNL     1       3.040   4.546  18.182  0.00  0.00    +0.000 A 
ATOM     32  C   UNL     1       4.009   5.323  17.363  0.00  0.00    +0.000 C 
ATOM     33  C   UNL     1       5.087   4.256  17.384  0.00  0.00    +0.000 C 
ATOM     34  O   UNL     1       4.385   3.024  17.072  0.00  0.00    +0.000 OA
ENDBRANCH  24  25
ENDBRANCH  16  24
TORSDOF 2
ENDMDL
MODEL 7
REMARK VINA RESULT:      -9.4      1.511      1.774
REMARK  Name = 
REMARK  2 active torsions:
REMARK  status: ('A' for Active; 'I' for Inactive)
REMARK    1  A    between atoms: N_16  and  C_17
REMARK    2  A    between atoms: C_17  and  C_18
REMARK                            x       y       z     vdW  Elec       q    Type
REMARK                         _______ _______ _______ _____ _____    ______ ____
ROOT
ATOM      1  O   UNL     1       4.599   2.897  19.869  0.00  0.00    +0.000 OA
ATOM      2  C   UNL     1       4.610   4.068  19.461  0.00  0.00    +0.000 C 
ATOM      3  N   UNL     1       5.787   4.717  19.617  0.00  0.00    +0.000 N 
ATOM      4  C   UNL     1       6.306   5.792  18.821  0.00  0.00    +0.000 C 
ATOM      5  C   UNL     1       6.275   5.415  17.367  0.00  0.00    +0.000 A 
ATOM      6  C   UNL     1       7.257   4.566  16.843  0.00  0.00    +0.000 A 
ATOM      7  F   UNL     1       8.241   4.121  17.637  0.00  0.00    +0.000 F 
ATOM      8  C   UNL     1       7.222   4.144  15.522  0.00  0.00    +0.000 A 
ATOM      9  C   UNL     1       6.196   4.584  14.681  0.00  0.00    +0.000 A 
ATOM     10  C   UNL     1       5.193   5.413  15.201  0.00  0.00    +0.000 A 
ATOM     11  C   UNL     1       5.208   5.812  16.550  0.00  0.00    +0.000 A 
ATOM     12  C   UNL     1       4.108   6.595  17.122  0.00  0.00    +0.000 C 
ATOM     13  C   UNL     1       3.954   7.909  16.890  0.00  0.00    +0.000 C 
ATOM     14  N   UNL     1       2.926   8.682  17.409  0.00  0.00    +0.000 NA
ATOM     15  C   UNL     1       2.253   8.154  18.411  0.00  0.00    +0.000 C 
ATOM     16  N   UNL     1       1.221   8.820  19.042  0.00  0.00    +0.000 N 
ATOM     17  N   UNL     1       2.504   6.899  18.909  0.00  0.00    +0.000 N 
ATOM     18  C   UNL     1       2.172   6.245  20.048  0.00  0.00    +0.000 C 
ATOM     19  N   UNL     1       2.487   4.996  20.187  0.00  0.00    +0.000 NA
ATOM     20  C   UNL     1       3.301   4.695  18.945  0.00  0.00    +0.000 C 
ATOM     21  C   UNL     1       3.108   5.921  18.010  0.00  0.00    +0.000 C 
ATOM     22  H   UNL     1       6.483   4.085  19.997  0.00  0.00    +0.000 HD
ATOM     23  H   UNL     1       0.565   8.211  19.504  0.00  0.00    +0.000 HD
ENDROOT
BRANCH  16  24
ATOM     24  C   UNL     1       0.585   9.957  18.397  0.00  0.00    +0.000 C 
BRANCH  24  25
ATOM     25  C   UNL     1      -0.233  10.879  19.290  0.00  0.00    +0.000 A 
ATOM     26  C   UNL     1      -1.628  10.862  19.063  0.00  0.00    +0.000 A 
ATOM     27  F   UNL     1      -2.144   9.950  18.228  0.00  0.00    +0.000 F 
ATOM     28  C   UNL     1      -2.507  11.824  19.589  0.00  0.00    +0.000 A 
ATOM     29  C   UNL     1      -2.005  12.919  20.276  0.00  0.00    +0.000 A 
ATOM     30  C   UNL     1      -0.641  12.951  20.453  0.00  0.00    +0.000 A 
ATOM     31  C   UNL     1       0.228  11.902  20.103  0.00  0.00    +0.000 A 
ATOM     32  C   UNL     1       1.559  12.313  20.624  0.00  0.00    +0.000 C 
ATOM     33  C   UNL     1       1.375  13.785  20.312  0.00  0.00    +0.000 C 
ATOM     34  O   UNL     1       0.047  14.099  20.806  0.00  0.00    +0.000 OA
ENDBRANCH  24  25
ENDBRANCH  16  24
TORSDOF 2
ENDMDL
MODEL 8
REMARK VINA RESULT:      -9.3      2.704      9.182
REMARK  Name = 
REMARK  2 active torsions:
REMARK  status: ('A' for Active; 'I' for Inactive)
REMARK    1  A    between atoms: N_16  and  C_17
REMARK    2  A    between atoms: C_17  and  C_18
REMARK                            x       y       z     vdW  Elec       q    Type
REMARK                         _______ _______ _______ _____ _____    ______ ____
ROOT
ATOM      1  O   UNL     1      -0.804  12.879  17.961  0.00  0.00    +0.000 OA
ATOM      2  C   UNL     1      -0.194  12.270  18.853  0.00  0.00    +0.000 C 
ATOM      3  N   UNL     1       0.691  13.018  19.552  0.00  0.00    +0.000 N 
ATOM      4  C   UNL     1       1.124  12.823  20.907  0.00  0.00    +0.000 C 
ATOM      5  C   UNL     1      -0.068  12.706  21.813  0.00  0.00    +0.000 A 
ATOM      6  C   UNL     1      -0.762  13.854  22.210  0.00  0.00    +0.000 A 
ATOM      7  F   UNL     1      -0.335  15.059  21.805  0.00  0.00    +0.000 F 
ATOM      8  C   UNL     1      -1.904  13.778  22.993  0.00  0.00    +0.000 A 
ATOM      9  C   UNL     1      -2.374  12.531  23.414  0.00  0.00    +0.000 A 
ATOM     10  C   UNL     1      -1.703  11.372  23.001  0.00  0.00    +0.000 A 
ATOM     11  C   UNL     1      -0.565  11.447  22.178  0.00  0.00    +0.000 A 
ATOM     12  C   UNL     1       0.079  10.234  21.661  0.00  0.00    +0.000 C 
ATOM     13  C   UNL     1       0.862   9.449  22.418  0.00  0.00    +0.000 C 
ATOM     14  N   UNL     1       1.484   8.294  21.969  0.00  0.00    +0.000 NA
ATOM     15  C   UNL     1       1.542   8.139  20.661  0.00  0.00    +0.000 C 
ATOM     16  N   UNL     1       2.154   7.051  20.071  0.00  0.00    +0.000 N 
ATOM     17  N   UNL     1       0.995   9.030  19.772  0.00  0.00    +0.000 N 
ATOM     18  C   UNL     1       1.134   9.255  18.443  0.00  0.00    +0.000 C 
ATOM     19  N   UNL     1       0.385  10.133  17.857  0.00  0.00    +0.000 NA
ATOM     20  C   UNL     1      -0.397  10.750  18.999  0.00  0.00    +0.000 C 
ATOM     21  C   UNL     1      -0.128   9.843  20.231  0.00  0.00    +0.000 C 
ATOM     22  H   UNL     1       0.645  13.984  19.248  0.00  0.00    +0.000 HD
ATOM     23  H   UNL     1       1.821   6.849  19.142  0.00  0.00    +0.000 HD
ENDROOT
BRANCH  16  24
ATOM     24  C   UNL     1       2.424   5.854  20.851  0.00  0.00    +0.000 C 
BRANCH  24  25
ATOM     25  C   UNL     1       2.970   4.653  20.094  0.00  0.00    +0.000 A 
ATOM     26  C   UNL     1       4.207   4.858  19.442  0.00  0.00    +0.000 A 
ATOM     27  F   UNL     1       4.881   5.995  19.659  0.00  0.00    +0.000 F 
ATOM     28  C   UNL     1       4.731   3.972  18.485  0.00  0.00    +0.000 A 
ATOM     29  C   UNL     1       3.976   2.891  18.055  0.00  0.00    +0.000 A 
ATOM     30  C   UNL     1       2.752   2.725  18.663  0.00  0.00    +0.000 A 
ATOM     31  C   UNL     1       2.301   3.488  19.754  0.00  0.00    +0.000 A 
ATOM     32  C   UNL     1       1.022   2.850  20.168  0.00  0.00    +0.000 C 
ATOM     33  C   UNL     1       0.579   2.514  18.758  0.00  0.00    +0.000 C 
ATOM     34  O   UNL     1       1.752   1.926  18.137  0.00  0.00    +0.000 OA
ENDBRANCH  24  25
ENDBRANCH  16  24
TORSDOF 2
ENDMDL
MODEL 9
REMARK VINA RESULT:      -9.1      3.228      9.173
REMARK  Name = 
REMARK  2 active torsions:
REMARK  status: ('A' for Active; 'I' for Inactive)
REMARK    1  A    between atoms: N_16  and  C_17
REMARK    2  A    between atoms: C_17  and  C_18
REMARK                            x       y       z     vdW  Elec       q    Type
REMARK                         _______ _______ _______ _____ _____    ______ ____
ROOT
ATOM      1  O   UNL     1      -1.183  12.721  18.008  0.00  0.00    +0.000 OA
ATOM      2  C   UNL     1      -0.469  12.153  18.849  0.00  0.00    +0.000 C 
ATOM      3  N   UNL     1       0.372  12.968  19.526  0.00  0.00    +0.000 N 
ATOM      4  C   UNL     1       0.893  12.783  20.851  0.00  0.00    +0.000 C 
ATOM      5  C   UNL     1      -0.232  12.521  21.812  0.00  0.00    +0.000 A 
ATOM      6  C   UNL     1      -1.015  13.582  22.279  0.00  0.00    +0.000 A 
ATOM      7  F   UNL     1      -0.734  14.835  21.891  0.00  0.00    +0.000 F 
ATOM      8  C   UNL     1      -2.101  13.369  23.114  0.00  0.00    +0.000 A 
ATOM      9  C   UNL     1      -2.422  12.070  23.518  0.00  0.00    +0.000 A 
ATOM     10  C   UNL     1      -1.661  10.997  23.036  0.00  0.00    +0.000 A 
ATOM     11  C   UNL     1      -0.581  11.209  22.160  0.00  0.00    +0.000 A 
ATOM     12  C   UNL     1       0.153  10.082  21.574  0.00  0.00    +0.000 C 
ATOM     13  C   UNL     1       1.049   9.361  22.266  0.00  0.00    +0.000 C 
ATOM     14  N   UNL     1       1.760   8.287  21.750  0.00  0.00    +0.000 NA
ATOM     15  C   UNL     1       1.764   8.174  20.437  0.00  0.00    +0.000 C 
ATOM     16  N   UNL     1       2.450   7.169  19.783  0.00  0.00    +0.000 N 
ATOM     17  N   UNL     1       1.084   9.027  19.604  0.00  0.00    +0.000 N 
ATOM     18  C   UNL     1       1.131   9.300  18.278  0.00  0.00    +0.000 C 
ATOM     19  N   UNL     1       0.267  10.113  17.758  0.00  0.00    +0.000 NA
ATOM     20  C   UNL     1      -0.512  10.617  18.956  0.00  0.00    +0.000 C 
ATOM     21  C   UNL     1      -0.088   9.710  20.144  0.00  0.00    +0.000 C 
ATOM     22  H   UNL     1       0.214  13.933  19.255  0.00  0.00    +0.000 HD
ATOM     23  H   UNL     1       2.091   6.960  18.866  0.00  0.00    +0.000 HD
ENDROOT
BRANCH  16  24
ATOM     24  C   UNL     1       2.879   5.986  20.511  0.00  0.00    +0.000 C 
BRANCH  24  25
ATOM     25  C   UNL     1       2.154   4.687  20.191  0.00  0.00    +0.000 A 
ATOM     26  C   UNL     1       2.000   3.794  21.276  0.00  0.00    +0.000 A 
ATOM     27  F   UNL     1       2.336   4.199  22.508  0.00  0.00    +0.000 F 
ATOM     28  C   UNL     1       1.607   2.454  21.123  0.00  0.00    +0.000 A 
ATOM     29  C   UNL     1       1.460   1.916  19.853  0.00  0.00    +0.000 A 
ATOM     30  C   UNL     1       1.657   2.781  18.801  0.00  0.00    +0.000 A 
ATOM     31  C   UNL     1       1.859   4.165  18.942  0.00  0.00    +0.000 A 
ATOM     32  C   UNL     1       1.855   4.699  17.553  0.00  0.00    +0.000 C 
ATOM     33  C   UNL     1       2.567   3.504  16.949  0.00  0.00    +0.000 C 
ATOM     34  O   UNL     1       1.879   2.352  17.504  0.00  0.00    +0.000 OA
ENDBRANCH  24  25
ENDBRANCH  16  24
TORSDOF 2
ENDMDL
