MODEL 1
REMARK VINA RESULT:      -7.9      0.000      0.000
REMARK  Name = 
REMARK  4 active torsions:
REMARK  status: ('A' for Active; 'I' for Inactive)
REMARK    1  A    between atoms: N_3  and  C_4
REMARK    2  A    between atoms: C_4  and  C_5
REMARK    3  A    between atoms: C_7  and  C_8
REMARK    4  A    between atoms: C_17  and  C_18
REMARK                            x       y       z     vdW  Elec       q    Type
REMARK                         _______ _______ _______ _____ _____    ______ ____
ROOT
ATOM      1  O   UNL     1       6.222   6.650  17.570  0.00  0.00    +0.000 OA
ATOM      2  C   UNL     1       5.543   5.676  17.257  0.00  0.00    +0.000 C 
ATOM      3  N   UNL     1       5.854   4.927  16.159  0.00  0.00    +0.000 N 
ATOM      4  N   UNL     1       4.431   5.259  17.964  0.00  0.00    +0.000 N 
ATOM      5  C   UNL     1       3.746   3.975  17.790  0.00  0.00    +0.000 C 
ATOM      6  C   UNL     1       2.232   4.171  17.848  0.00  0.00    +0.000 C 
ATOM      7  C   UNL     1       1.779   4.906  19.117  0.00  0.00    +0.000 C 
ATOM      8  C   UNL     1       2.600   6.187  19.332  0.00  0.00    +0.000 C 
ATOM      9  C   UNL     1       4.105   5.959  19.206  0.00  0.00    +0.000 C 
ATOM     10  H   UNL     1       5.078   4.513  15.664  0.00  0.00    +0.000 HD
ENDROOT
BRANCH   7  11
ATOM     11  C   UNL     1       1.749   4.013  20.329  0.00  0.00    +0.000 A 
ATOM     12  C   UNL     1       1.109   2.758  20.467  0.00  0.00    +0.000 A 
ATOM     13  C   UNL     1       1.406   2.363  21.743  0.00  0.00    +0.000 A 
ATOM     14  O   UNL     1       2.167   3.311  22.341  0.00  0.00    +0.000 OA
ATOM     15  N   UNL     1       2.382   4.348  21.460  0.00  0.00    +0.000 NA
ENDBRANCH   7  11
BRANCH   3  16
ATOM     16  C   UNL     1       6.969   5.318  15.323  0.00  0.00    +0.000 C 
BRANCH  16  17
ATOM     17  C   UNL     1       6.860   4.633  14.011  0.00  0.00    +0.000 A 
ATOM     18  N   UNL     1       6.204   3.541  13.677  0.00  0.00    +0.000 NA
ATOM     19  C   UNL     1       6.511   3.412  12.328  0.00  0.00    +0.000 A 
ATOM     20  N   UNL     1       7.301   4.394  11.857  0.00  0.00    +0.000 NA
ATOM     21  O   UNL     1       7.530   5.198  12.969  0.00  0.00    +0.000 OA
BRANCH  19  22
ATOM     22  C   UNL     1       6.023   2.287  11.463  0.00  0.00    +0.000 C 
ATOM     23  F   UNL     1       5.748   1.159  12.177  0.00  0.00    +0.000 F 
ATOM     24  F   UNL     1       4.878   2.603  10.798  0.00  0.00    +0.000 F 
ATOM     25  F   UNL     1       6.935   1.925  10.519  0.00  0.00    +0.000 F 
ENDBRANCH  19  22
ENDBRANCH  16  17
ENDBRANCH   3  16
TORSDOF 4
ENDMDL
MODEL 2
REMARK VINA RESULT:      -7.7      1.101      1.318
REMARK  Name = 
REMARK  4 active torsions:
REMARK  status: ('A' for Active; 'I' for Inactive)
REMARK    1  A    between atoms: N_3  and  C_4
REMARK    2  A    between atoms: C_4  and  C_5
REMARK    3  A    between atoms: C_7  and  C_8
REMARK    4  A    between atoms: C_17  and  C_18
REMARK                            x       y       z     vdW  Elec       q    Type
REMARK                         _______ _______ _______ _____ _____    ______ ____
ROOT
ATOM      1  O   UNL     1       4.629   6.163  16.060  0.00  0.00    +0.000 OA
ATOM      2  C   UNL     1       4.910   5.037  16.460  0.00  0.00    +0.000 C 
ATOM      3  N   UNL     1       6.068   4.424  16.077  0.00  0.00    +0.000 N 
ATOM      4  N   UNL     1       4.103   4.304  17.310  0.00  0.00    +0.000 N 
ATOM      5  C   UNL     1       4.500   3.081  18.014  0.00  0.00    +0.000 C 
ATOM      6  C   UNL     1       3.363   2.062  17.988  0.00  0.00    +0.000 C 
ATOM      7  C   UNL     1       2.042   2.636  18.516  0.00  0.00    +0.000 C 
ATOM      8  C   UNL     1       1.717   3.977  17.840  0.00  0.00    +0.000 C 
ATOM      9  C   UNL     1       2.898   4.944  17.835  0.00  0.00    +0.000 C 
ATOM     10  H   UNL     1       6.034   3.420  15.985  0.00  0.00    +0.000 HD
ENDROOT
BRANCH   7  11
ATOM     11  C   UNL     1       1.995   2.705  20.019  0.00  0.00    +0.000 A 
ATOM     12  C   UNL     1       0.868   2.932  20.844  0.00  0.00    +0.000 A 
ATOM     13  C   UNL     1       1.361   2.874  22.119  0.00  0.00    +0.000 A 
ATOM     14  O   UNL     1       2.693   2.636  22.075  0.00  0.00    +0.000 OA
ATOM     15  N   UNL     1       3.096   2.530  20.761  0.00  0.00    +0.000 NA
ENDBRANCH   7  11
BRANCH   3  16
ATOM     16  C   UNL     1       6.952   5.090  15.145  0.00  0.00    +0.000 C 
BRANCH  16  17
ATOM     17  C   UNL     1       6.859   4.425  13.822  0.00  0.00    +0.000 A 
ATOM     18  N   UNL     1       6.181   3.357  13.456  0.00  0.00    +0.000 NA
ATOM     19  C   UNL     1       6.520   3.235  12.115  0.00  0.00    +0.000 A 
ATOM     20  N   UNL     1       7.351   4.199  11.678  0.00  0.00    +0.000 NA
ATOM     21  O   UNL     1       7.572   4.982  12.806  0.00  0.00    +0.000 OA
BRANCH  19  22
ATOM     22  C   UNL     1       6.023   2.135  11.223  0.00  0.00    +0.000 C 
ATOM     23  F   UNL     1       5.736   0.993  11.910  0.00  0.00    +0.000 F 
ATOM     24  F   UNL     1       4.882   2.477  10.563  0.00  0.00    +0.000 F 
ATOM     25  F   UNL     1       6.934   1.787  10.273  0.00  0.00    +0.000 F 
ENDBRANCH  19  22
ENDBRANCH  16  17
ENDBRANCH   3  16
TORSDOF 4
ENDMDL
MODEL 3
REMARK VINA RESULT:      -7.5      1.097      1.421
REMARK  Name = 
REMARK  4 active torsions:
REMARK  status: ('A' for Active; 'I' for Inactive)
REMARK    1  A    between atoms: N_3  and  C_4
REMARK    2  A    between atoms: C_4  and  C_5
REMARK    3  A    between atoms: C_7  and  C_8
REMARK    4  A    between atoms: C_17  and  C_18
REMARK                            x       y       z     vdW  Elec       q    Type
REMARK                         _______ _______ _______ _____ _____    ______ ____
ROOT
ATOM      1  O   UNL     1       6.256   6.096  16.959  0.00  0.00    +0.000 OA
ATOM      2  C   UNL     1       5.301   5.370  16.700  0.00  0.00    +0.000 C 
ATOM      3  N   UNL     1       5.207   4.736  15.495  0.00  0.00    +0.000 N 
ATOM      4  N   UNL     1       4.260   5.133  17.578  0.00  0.00    +0.000 N 
ATOM      5  C   UNL     1       3.240   4.091  17.426  0.00  0.00    +0.000 C 
ATOM      6  C   UNL     1       1.866   4.634  17.814  0.00  0.00    +0.000 C 
ATOM      7  C   UNL     1       1.852   5.264  19.213  0.00  0.00    +0.000 C 
ATOM      8  C   UNL     1       3.006   6.265  19.376  0.00  0.00    +0.000 C 
ATOM      9  C   UNL     1       4.352   5.703  18.922  0.00  0.00    +0.000 C 
ATOM     10  H   UNL     1       4.275   4.597  15.133  0.00  0.00    +0.000 HD
ENDROOT
BRANCH   7  11
ATOM     11  C   UNL     1       1.799   4.238  20.314  0.00  0.00    +0.000 A 
ATOM     12  C   UNL     1       1.149   2.981  20.299  0.00  0.00    +0.000 A 
ATOM     13  C   UNL     1       1.426   2.439  21.524  0.00  0.00    +0.000 A 
ATOM     14  O   UNL     1       2.185   3.305  22.237  0.00  0.00    +0.000 OA
ATOM     15  N   UNL     1       2.420   4.435  21.483  0.00  0.00    +0.000 NA
ENDBRANCH   7  11
BRANCH   3  16
ATOM     16  C   UNL     1       6.221   4.965  14.489  0.00  0.00    +0.000 C 
BRANCH  16  17
ATOM     17  C   UNL     1       6.063   3.970  13.399  0.00  0.00    +0.000 A 
ATOM     18  N   UNL     1       6.953   3.178  12.840  0.00  0.00    +0.000 NA
ATOM     19  C   UNL     1       6.198   2.512  11.883  0.00  0.00    +0.000 A 
ATOM     20  N   UNL     1       4.900   2.868  11.875  0.00  0.00    +0.000 NA
ATOM     21  O   UNL     1       4.814   3.830  12.877  0.00  0.00    +0.000 OA
BRANCH  19  22
ATOM     22  C   UNL     1       6.759   1.494  10.934  0.00  0.00    +0.000 C 
ATOM     23  F   UNL     1       6.065   1.431   9.763  0.00  0.00    +0.000 F 
ATOM     24  F   UNL     1       8.052   1.757  10.596  0.00  0.00    +0.000 F 
ATOM     25  F   UNL     1       6.741   0.236  11.454  0.00  0.00    +0.000 F 
ENDBRANCH  19  22
ENDBRANCH  16  17
ENDBRANCH   3  16
TORSDOF 4
ENDMDL
MODEL 4
REMARK VINA RESULT:      -7.4      5.905      7.720
REMARK  Name = 
REMARK  4 active torsions:
REMARK  status: ('A' for Active; 'I' for Inactive)
REMARK    1  A    between atoms: N_3  and  C_4
REMARK    2  A    between atoms: C_4  and  C_5
REMARK    3  A    between atoms: C_7  and  C_8
REMARK    4  A    between atoms: C_17  and  C_18
REMARK                            x       y       z     vdW  Elec       q    Type
REMARK                         _______ _______ _______ _____ _____    ______ ____
ROOT
ATOM      1  O   UNL     1       2.066   9.158  17.147  0.00  0.00    +0.000 OA
ATOM      2  C   UNL     1       1.898   8.843  18.322  0.00  0.00    +0.000 C 
ATOM      3  N   UNL     1       2.504   7.739  18.847  0.00  0.00    +0.000 N 
ATOM      4  N   UNL     1       1.100   9.556  19.198  0.00  0.00    +0.000 N 
ATOM      5  C   UNL     1       1.067   9.378  20.652  0.00  0.00    +0.000 C 
ATOM      6  C   UNL     1      -0.372   9.448  21.161  0.00  0.00    +0.000 C 
ATOM      7  C   UNL     1      -1.097  10.724  20.713  0.00  0.00    +0.000 C 
ATOM      8  C   UNL     1      -0.941  10.941  19.199  0.00  0.00    +0.000 C 
ATOM      9  C   UNL     1       0.504  10.804  18.723  0.00  0.00    +0.000 C 
ATOM     10  H   UNL     1       1.994   7.246  19.565  0.00  0.00    +0.000 HD
ENDROOT
BRANCH   7  11
ATOM     11  C   UNL     1      -0.711  11.931  21.526  0.00  0.00    +0.000 A 
ATOM     12  C   UNL     1      -0.367  13.221  21.056  0.00  0.00    +0.000 A 
ATOM     13  C   UNL     1      -0.127  13.945  22.192  0.00  0.00    +0.000 A 
ATOM     14  O   UNL     1      -0.306  13.152  23.275  0.00  0.00    +0.000 OA
ATOM     15  N   UNL     1      -0.670  11.889  22.863  0.00  0.00    +0.000 NA
ENDBRANCH   7  11
BRANCH   3  16
ATOM     16  C   UNL     1       3.315   6.898  17.993  0.00  0.00    +0.000 C 
BRANCH  16  17
ATOM     17  C   UNL     1       2.876   5.488  18.136  0.00  0.00    +0.000 A 
ATOM     18  N   UNL     1       1.976   4.957  18.938  0.00  0.00    +0.000 NA
ATOM     19  C   UNL     1       2.043   3.610  18.609  0.00  0.00    +0.000 A 
ATOM     20  N   UNL     1       2.929   3.334  17.635  0.00  0.00    +0.000 NA
ATOM     21  O   UNL     1       3.477   4.575  17.325  0.00  0.00    +0.000 OA
BRANCH  19  22
ATOM     22  C   UNL     1       1.218   2.545  19.272  0.00  0.00    +0.000 C 
ATOM     23  F   UNL     1       1.912   1.387  19.462  0.00  0.00    +0.000 F 
ATOM     24  F   UNL     1       0.770   2.925  20.500  0.00  0.00    +0.000 F 
ATOM     25  F   UNL     1       0.118   2.212  18.542  0.00  0.00    +0.000 F 
ENDBRANCH  19  22
ENDBRANCH  16  17
ENDBRANCH   3  16
TORSDOF 4
ENDMDL
MODEL 5
REMARK VINA RESULT:      -7.4      6.415      8.207
REMARK  Name = 
REMARK  4 active torsions:
REMARK  status: ('A' for Active; 'I' for Inactive)
REMARK    1  A    between atoms: N_3  and  C_4
REMARK    2  A    between atoms: C_4  and  C_5
REMARK    3  A    between atoms: C_7  and  C_8
REMARK    4  A    between atoms: C_17  and  C_18
REMARK                            x       y       z     vdW  Elec       q    Type
REMARK                         _______ _______ _______ _____ _____    ______ ____
ROOT
ATOM      1  O   UNL     1       1.766   8.216  20.576  0.00  0.00    +0.000 OA
ATOM      2  C   UNL     1       1.923   7.641  19.502  0.00  0.00    +0.000 C 
ATOM      3  N   UNL     1       1.981   8.340  18.332  0.00  0.00    +0.000 N 
ATOM      4  N   UNL     1       2.051   6.270  19.382  0.00  0.00    +0.000 N 
ATOM      5  C   UNL     1       2.492   5.560  18.177  0.00  0.00    +0.000 C 
ATOM      6  C   UNL     1       1.652   4.303  17.966  0.00  0.00    +0.000 C 
ATOM      7  C   UNL     1       1.627   3.393  19.202  0.00  0.00    +0.000 C 
ATOM      8  C   UNL     1       1.276   4.194  20.465  0.00  0.00    +0.000 C 
ATOM      9  C   UNL     1       2.097   5.474  20.608  0.00  0.00    +0.000 C 
ATOM     10  H   UNL     1       1.612   7.878  17.514  0.00  0.00    +0.000 HD
ENDROOT
BRANCH   7  11
ATOM     11  C   UNL     1       2.882   2.575  19.349  0.00  0.00    +0.000 A 
ATOM     12  C   UNL     1       3.393   1.600  18.459  0.00  0.00    +0.000 A 
ATOM     13  C   UNL     1       4.556   1.180  19.045  0.00  0.00    +0.000 A 
ATOM     14  O   UNL     1       4.739   1.847  20.210  0.00  0.00    +0.000 OA
ATOM     15  N   UNL     1       3.691   2.721  20.405  0.00  0.00    +0.000 NA
ENDBRANCH   7  11
BRANCH   3  16
ATOM     16  C   UNL     1       1.802   9.776  18.351  0.00  0.00    +0.000 C 
BRANCH  16  17
ATOM     17  C   UNL     1       0.353  10.089  18.298  0.00  0.00    +0.000 A 
ATOM     18  N   UNL     1      -0.571   9.685  17.451  0.00  0.00    +0.000 NA
ATOM     19  C   UNL     1      -1.707  10.334  17.920  0.00  0.00    +0.000 A 
ATOM     20  N   UNL     1      -1.488  11.082  19.017  0.00  0.00    +0.000 NA
ATOM     21  O   UNL     1      -0.128  10.918  19.264  0.00  0.00    +0.000 OA
BRANCH  19  22
ATOM     22  C   UNL     1      -3.057  10.228  17.273  0.00  0.00    +0.000 C 
ATOM     23  F   UNL     1      -3.939   9.503  18.018  0.00  0.00    +0.000 F 
ATOM     24  F   UNL     1      -3.635  11.445  17.078  0.00  0.00    +0.000 F 
ATOM     25  F   UNL     1      -3.002   9.622  16.055  0.00  0.00    +0.000 F 
ENDBRANCH  19  22
ENDBRANCH  16  17
ENDBRANCH   3  16
TORSDOF 4
ENDMDL
MODEL 6
REMARK VINA RESULT:      -7.4      6.313      8.236
REMARK  Name = 
REMARK  4 active torsions:
REMARK  status: ('A' for Active; 'I' for Inactive)
REMARK    1  A    between atoms: N_3  and  C_4
REMARK    2  A    between atoms: C_4  and  C_5
REMARK    3  A    between atoms: C_7  and  C_8
REMARK    4  A    between atoms: C_17  and  C_18
REMARK                            x       y       z     vdW  Elec       q    Type
REMARK                         _______ _______ _______ _____ _____    ______ ____
ROOT
ATOM      1  O   UNL     1       1.695   8.226  20.606  0.00  0.00    +0.000 OA
ATOM      2  C   UNL     1       1.880   7.685  19.519  0.00  0.00    +0.000 C 
ATOM      3  N   UNL     1       1.996   8.424  18.377  0.00  0.00    +0.000 N 
ATOM      4  N   UNL     1       1.985   6.317  19.354  0.00  0.00    +0.000 N 
ATOM      5  C   UNL     1       2.456   5.641  18.142  0.00  0.00    +0.000 C 
ATOM      6  C   UNL     1       1.598   4.409  17.855  0.00  0.00    +0.000 C 
ATOM      7  C   UNL     1       1.509   3.458  19.056  0.00  0.00    +0.000 C 
ATOM      8  C   UNL     1       1.128   4.221  20.334  0.00  0.00    +0.000 C 
ATOM      9  C   UNL     1       1.969   5.477  20.552  0.00  0.00    +0.000 C 
ATOM     10  H   UNL     1       1.648   7.999  17.531  0.00  0.00    +0.000 HD
ENDROOT
BRANCH   7  11
ATOM     11  C   UNL     1       2.741   2.609  19.220  0.00  0.00    +0.000 A 
ATOM     12  C   UNL     1       3.660   2.610  20.297  0.00  0.00    +0.000 A 
ATOM     13  C   UNL     1       4.573   1.646  19.967  0.00  0.00    +0.000 A 
ATOM     14  O   UNL     1       4.238   1.100  18.773  0.00  0.00    +0.000 OA
ATOM     15  N   UNL     1       3.092   1.701  18.301  0.00  0.00    +0.000 NA
ENDBRANCH   7  11
BRANCH   3  16
ATOM     16  C   UNL     1       1.846   9.861  18.441  0.00  0.00    +0.000 C 
BRANCH  16  17
ATOM     17  C   UNL     1       0.412  10.211  18.283  0.00  0.00    +0.000 A 
ATOM     18  N   UNL     1      -0.521   9.645  17.546  0.00  0.00    +0.000 NA
ATOM     19  C   UNL     1      -1.631  10.437  17.814  0.00  0.00    +0.000 A 
ATOM     20  N   UNL     1      -1.388  11.428  18.692  0.00  0.00    +0.000 NA
ATOM     21  O   UNL     1      -0.039  11.276  18.999  0.00  0.00    +0.000 OA
BRANCH  19  22
ATOM     22  C   UNL     1      -2.979  10.228  17.189  0.00  0.00    +0.000 C 
ATOM     23  F   UNL     1      -2.902   9.617  15.972  0.00  0.00    +0.000 F 
ATOM     24  F   UNL     1      -3.791   9.449  17.955  0.00  0.00    +0.000 F 
ATOM     25  F   UNL     1      -3.642  11.399  16.984  0.00  0.00    +0.000 F 
ENDBRANCH  19  22
ENDBRANCH  16  17
ENDBRANCH   3  16
TORSDOF 4
ENDMDL
MODEL 7
REMARK VINA RESULT:      -7.2      0.688      1.058
REMARK  Name = 
REMARK  4 active torsions:
REMARK  status: ('A' for Active; 'I' for Inactive)
REMARK    1  A    between atoms: N_3  and  C_4
REMARK    2  A    between atoms: C_4  and  C_5
REMARK    3  A    between atoms: C_7  and  C_8
REMARK    4  A    between atoms: C_17  and  C_18
REMARK                            x       y       z     vdW  Elec       q    Type
REMARK                         _______ _______ _______ _____ _____    ______ ____
ROOT
ATOM      1  O   UNL     1       6.117   6.555  17.250  0.00  0.00    +0.000 OA
ATOM      2  C   UNL     1       5.490   5.538  16.969  0.00  0.00    +0.000 C 
ATOM      3  N   UNL     1       5.806   4.800  15.865  0.00  0.00    +0.000 N 
ATOM      4  N   UNL     1       4.434   5.058  17.721  0.00  0.00    +0.000 N 
ATOM      5  C   UNL     1       3.824   3.732  17.581  0.00  0.00    +0.000 C 
ATOM      6  C   UNL     1       2.305   3.834  17.696  0.00  0.00    +0.000 C 
ATOM      7  C   UNL     1       1.855   4.550  18.977  0.00  0.00    +0.000 C 
ATOM      8  C   UNL     1       2.601   5.882  19.151  0.00  0.00    +0.000 C 
ATOM      9  C   UNL     1       4.111   5.748  18.970  0.00  0.00    +0.000 C 
ATOM     10  H   UNL     1       5.039   4.334  15.402  0.00  0.00    +0.000 HD
ENDROOT
BRANCH   7  11
ATOM     11  C   UNL     1       1.926   3.668  20.194  0.00  0.00    +0.000 A 
ATOM     12  C   UNL     1       3.044   2.950  20.682  0.00  0.00    +0.000 A 
ATOM     13  C   UNL     1       2.586   2.336  21.816  0.00  0.00    +0.000 A 
ATOM     14  O   UNL     1       1.282   2.652  22.003  0.00  0.00    +0.000 OA
ATOM     15  N   UNL     1       0.864   3.485  20.988  0.00  0.00    +0.000 NA
ENDBRANCH   7  11
BRANCH   3  16
ATOM     16  C   UNL     1       6.861   5.253  14.984  0.00  0.00    +0.000 C 
BRANCH  16  17
ATOM     17  C   UNL     1       6.796   4.492  13.712  0.00  0.00    +0.000 A 
ATOM     18  N   UNL     1       6.141   3.389  13.416  0.00  0.00    +0.000 NA
ATOM     19  C   UNL     1       6.500   3.177  12.091  0.00  0.00    +0.000 A 
ATOM     20  N   UNL     1       7.321   4.121  11.596  0.00  0.00    +0.000 NA
ATOM     21  O   UNL     1       7.515   4.987  12.667  0.00  0.00    +0.000 OA
BRANCH  19  22
ATOM     22  C   UNL     1       6.032   2.007  11.275  0.00  0.00    +0.000 C 
ATOM     23  F   UNL     1       6.922   1.658  10.303  0.00  0.00    +0.000 F 
ATOM     24  F   UNL     1       5.839   0.891  12.031  0.00  0.00    +0.000 F 
ATOM     25  F   UNL     1       4.854   2.256  10.640  0.00  0.00    +0.000 F 
ENDBRANCH  19  22
ENDBRANCH  16  17
ENDBRANCH   3  16
TORSDOF 4
ENDMDL
MODEL 8
REMARK VINA RESULT:      -7.2      5.044      7.025
REMARK  Name = 
REMARK  4 active torsions:
REMARK  status: ('A' for Active; 'I' for Inactive)
REMARK    1  A    between atoms: N_3  and  C_4
REMARK    2  A    between atoms: C_4  and  C_5
REMARK    3  A    between atoms: C_7  and  C_8
REMARK    4  A    between atoms: C_17  and  C_18
REMARK                            x       y       z     vdW  Elec       q    Type
REMARK                         _______ _______ _______ _____ _____    ______ ____
ROOT
ATOM      1  O   UNL     1       2.517   6.479  18.034  0.00  0.00    +0.000 OA
ATOM      2  C   UNL     1       2.255   6.835  19.179  0.00  0.00    +0.000 C 
ATOM      3  N   UNL     1       2.417   5.984  20.234  0.00  0.00    +0.000 N 
ATOM      4  N   UNL     1       1.785   8.095  19.500  0.00  0.00    +0.000 N 
ATOM      5  C   UNL     1       1.702   8.652  20.853  0.00  0.00    +0.000 C 
ATOM      6  C   UNL     1       0.395   9.423  21.029  0.00  0.00    +0.000 C 
ATOM      7  C   UNL     1       0.187  10.490  19.945  0.00  0.00    +0.000 C 
ATOM      8  C   UNL     1       0.397   9.896  18.544  0.00  0.00    +0.000 C 
ATOM      9  C   UNL     1       1.685   9.084  18.427  0.00  0.00    +0.000 C 
ATOM     10  H   UNL     1       1.768   6.091  21.000  0.00  0.00    +0.000 HD
ENDROOT
BRANCH   7  11
ATOM     11  C   UNL     1       0.998  11.734  20.189  0.00  0.00    +0.000 A 
ATOM     12  C   UNL     1       1.610  12.574  19.227  0.00  0.00    +0.000 A 
ATOM     13  C   UNL     1       2.196  13.566  19.965  0.00  0.00    +0.000 A 
ATOM     14  O   UNL     1       1.963  13.344  21.281  0.00  0.00    +0.000 OA
ATOM     15  N   UNL     1       1.214  12.197  21.426  0.00  0.00    +0.000 NA
ENDBRANCH   7  11
BRANCH   3  16
ATOM     16  C   UNL     1       2.852   4.626  19.993  0.00  0.00    +0.000 C 
BRANCH  16  17
ATOM     17  C   UNL     1       4.159   4.649  19.289  0.00  0.00    +0.000 A 
ATOM     18  N   UNL     1       5.297   5.213  19.635  0.00  0.00    +0.000 NA
ATOM     19  C   UNL     1       6.122   4.896  18.563  0.00  0.00    +0.000 A 
ATOM     20  N   UNL     1       5.518   4.155  17.616  0.00  0.00    +0.000 NA
ATOM     21  O   UNL     1       4.223   3.993  18.098  0.00  0.00    +0.000 OA
BRANCH  19  22
ATOM     22  C   UNL     1       7.552   5.337  18.450  0.00  0.00    +0.000 C 
ATOM     23  F   UNL     1       8.361   4.366  17.939  0.00  0.00    +0.000 F 
ATOM     24  F   UNL     1       7.699   6.420  17.636  0.00  0.00    +0.000 F 
ATOM     25  F   UNL     1       8.086   5.680  19.654  0.00  0.00    +0.000 F 
ENDBRANCH  19  22
ENDBRANCH  16  17
ENDBRANCH   3  16
TORSDOF 4
ENDMDL
MODEL 9
REMARK VINA RESULT:      -7.1      5.717      7.544
REMARK  Name = 
REMARK  4 active torsions:
REMARK  status: ('A' for Active; 'I' for Inactive)
REMARK    1  A    between atoms: N_3  and  C_4
REMARK    2  A    between atoms: C_4  and  C_5
REMARK    3  A    between atoms: C_7  and  C_8
REMARK    4  A    between atoms: C_17  and  C_18
REMARK                            x       y       z     vdW  Elec       q    Type
REMARK                         _______ _______ _______ _____ _____    ______ ____
ROOT
ATOM      1  O   UNL     1       2.121   9.192  17.179  0.00  0.00    +0.000 OA
ATOM      2  C   UNL     1       1.924   8.861  18.344  0.00  0.00    +0.000 C 
ATOM      3  N   UNL     1       2.513   7.745  18.867  0.00  0.00    +0.000 N 
ATOM      4  N   UNL     1       1.111   9.565  19.212  0.00  0.00    +0.000 N 
ATOM      5  C   UNL     1       1.043   9.366  20.663  0.00  0.00    +0.000 C 
ATOM      6  C   UNL     1      -0.406   9.436  21.140  0.00  0.00    +0.000 C 
ATOM      7  C   UNL     1      -1.114  10.722  20.694  0.00  0.00    +0.000 C 
ATOM      8  C   UNL     1      -0.923  10.961  19.189  0.00  0.00    +0.000 C 
ATOM      9  C   UNL     1       0.531  10.823  18.743  0.00  0.00    +0.000 C 
ATOM     10  H   UNL     1       1.984   7.245  19.566  0.00  0.00    +0.000 HD
ENDROOT
BRANCH   7  11
ATOM     11  C   UNL     1      -0.741  11.915  21.534  0.00  0.00    +0.000 A 
ATOM     12  C   UNL     1      -0.434  13.225  21.094  0.00  0.00    +0.000 A 
ATOM     13  C   UNL     1      -0.190  13.922  22.245  0.00  0.00    +0.000 A 
ATOM     14  O   UNL     1      -0.332  13.097  23.309  0.00  0.00    +0.000 OA
ATOM     15  N   UNL     1      -0.675  11.837  22.868  0.00  0.00    +0.000 NA
ENDBRANCH   7  11
BRANCH   3  16
ATOM     16  C   UNL     1       3.338   6.913  18.019  0.00  0.00    +0.000 C 
BRANCH  16  17
ATOM     17  C   UNL     1       2.911   5.499  18.157  0.00  0.00    +0.000 A 
ATOM     18  N   UNL     1       3.527   4.478  18.717  0.00  0.00    +0.000 NA
ATOM     19  C   UNL     1       2.630   3.438  18.505  0.00  0.00    +0.000 A 
ATOM     20  N   UNL     1       1.508   3.814  17.863  0.00  0.00    +0.000 NA
ATOM     21  O   UNL     1       1.697   5.174  17.635  0.00  0.00    +0.000 OA
BRANCH  19  22
ATOM     22  C   UNL     1       2.875   2.022  18.937  0.00  0.00    +0.000 C 
ATOM     23  F   UNL     1       3.376   1.248  17.933  0.00  0.00    +0.000 F 
ATOM     24  F   UNL     1       3.767   1.939  19.962  0.00  0.00    +0.000 F 
ATOM     25  F   UNL     1       1.737   1.406  19.359  0.00  0.00    +0.000 F 
ENDBRANCH  19  22
ENDBRANCH  16  17
ENDBRANCH   3  16
TORSDOF 4
ENDMDL
