MODEL 1
REMARK VINA RESULT:      -6.9      0.000      0.000
REMARK  Name = 
REMARK  4 active torsions:
REMARK  status: ('A' for Active; 'I' for Inactive)
REMARK    1  A    between atoms: C_2  and  C_3
REMARK    2  A    between atoms: C_13  and  C_14
REMARK    3  A    between atoms: C_14  and  S_15
REMARK    4  A    between atoms: S_15  and  C_18
REMARK                            x       y       z     vdW  Elec       q    Type
REMARK                         _______ _______ _______ _____ _____    ______ ____
ROOT
ATOM      1  O   UNL     1       3.795   1.526  17.787  0.00  0.00    +0.000 OA
ATOM      2  C   UNL     1       3.758   2.685  18.199  0.00  0.00    +0.000 C 
ATOM      3  N   UNL     1       2.718   3.147  19.007  0.00  0.00    +0.000 N 
ATOM      4  C   UNL     1       1.802   2.181  19.588  0.00  0.00    +0.000 C 
ATOM      5  C   UNL     1       0.593   3.001  19.970  0.00  0.00    +0.000 C 
ATOM      6  C   UNL     1       1.211   4.319  20.414  0.00  0.00    +0.000 C 
ATOM      7  C   UNL     1       2.414   4.530  19.469  0.00  0.00    +0.000 C 
ENDROOT
BRANCH   2   8
ATOM      8  C   UNL     1       4.840   3.606  17.780  0.00  0.00    +0.000 A 
ATOM      9  C   UNL     1       4.871   4.062  16.470  0.00  0.00    +0.000 A 
ATOM     10  N   UNL     1       5.829   4.914  16.020  0.00  0.00    +0.000 NA
ATOM     11  C   UNL     1       6.772   5.256  16.930  0.00  0.00    +0.000 A 
ATOM     12  C   UNL     1       6.747   4.793  18.235  0.00  0.00    +0.000 A 
ATOM     13  N   UNL     1       5.777   3.970  18.695  0.00  0.00    +0.000 NA
ENDBRANCH   2   8
BRANCH   7  14
ATOM     14  C   UNL     1       2.115   5.472  18.299  0.00  0.00    +0.000 C 
BRANCH  14  15
ATOM     15  S   UNL     1       3.122   6.947  18.313  0.00  0.00    +0.000 S 
ATOM     16  O   UNL     1       4.155   6.810  19.318  0.00  0.00    +0.000 OA
ATOM     17  O   UNL     1       3.455   7.310  16.948  0.00  0.00    +0.000 OA
BRANCH  15  18
ATOM     18  C   UNL     1       1.995   8.194  18.911  0.00  0.00    +0.000 A 
ATOM     19  C   UNL     1       1.583   8.172  20.247  0.00  0.00    +0.000 A 
ATOM     20  C   UNL     1       0.677   9.131  20.697  0.00  0.00    +0.000 A 
ATOM     21  C   UNL     1       0.189  10.098  19.819  0.00  0.00    +0.000 A 
ATOM     22  C   UNL     1       0.616  10.124  18.490  0.00  0.00    +0.000 A 
ATOM     23  C   UNL     1       1.530   9.174  18.032  0.00  0.00    +0.000 A 
ENDBRANCH  15  18
ENDBRANCH  14  15
ENDBRANCH   7  14
TORSDOF 4
ENDMDL
MODEL 2
REMARK VINA RESULT:      -6.8      0.044      1.013
REMARK  Name = 
REMARK  4 active torsions:
REMARK  status: ('A' for Active; 'I' for Inactive)
REMARK    1  A    between atoms: C_2  and  C_3
REMARK    2  A    between atoms: C_13  and  C_14
REMARK    3  A    between atoms: C_14  and  S_15
REMARK    4  A    between atoms: S_15  and  C_18
REMARK                            x       y       z     vdW  Elec       q    Type
REMARK                         _______ _______ _______ _____ _____    ______ ____
ROOT
ATOM      1  O   UNL     1       3.790   1.530  17.805  0.00  0.00    +0.000 OA
ATOM      2  C   UNL     1       3.756   2.693  18.208  0.00  0.00    +0.000 C 
ATOM      3  N   UNL     1       2.725   3.161  19.022  0.00  0.00    +0.000 N 
ATOM      4  C   UNL     1       1.815   2.200  19.620  0.00  0.00    +0.000 C 
ATOM      5  C   UNL     1       0.610   3.023  20.007  0.00  0.00    +0.000 C 
ATOM      6  C   UNL     1       1.232   4.345  20.433  0.00  0.00    +0.000 C 
ATOM      7  C   UNL     1       2.425   4.548  19.475  0.00  0.00    +0.000 C 
ENDROOT
BRANCH   2   8
ATOM      8  C   UNL     1       4.835   3.610  17.770  0.00  0.00    +0.000 A 
ATOM      9  C   UNL     1       4.858   4.046  16.453  0.00  0.00    +0.000 A 
ATOM     10  N   UNL     1       5.812   4.894  15.986  0.00  0.00    +0.000 NA
ATOM     11  C   UNL     1       6.758   5.252  16.886  0.00  0.00    +0.000 A 
ATOM     12  C   UNL     1       6.740   4.809  18.199  0.00  0.00    +0.000 A 
ATOM     13  N   UNL     1       5.774   3.991  18.675  0.00  0.00    +0.000 NA
ENDBRANCH   2   8
BRANCH   7  14
ATOM     14  C   UNL     1       2.114   5.479  18.300  0.00  0.00    +0.000 C 
BRANCH  14  15
ATOM     15  S   UNL     1       3.108   6.964  18.301  0.00  0.00    +0.000 S 
ATOM     16  O   UNL     1       4.152   6.838  19.298  0.00  0.00    +0.000 OA
ATOM     17  O   UNL     1       3.426   7.327  16.933  0.00  0.00    +0.000 OA
BRANCH  15  18
ATOM     18  C   UNL     1       1.977   8.202  18.907  0.00  0.00    +0.000 A 
ATOM     19  C   UNL     1       1.521   9.206  18.046  0.00  0.00    +0.000 A 
ATOM     20  C   UNL     1       0.663  10.188  18.538  0.00  0.00    +0.000 A 
ATOM     21  C   UNL     1       0.267  10.165  19.875  0.00  0.00    +0.000 A 
ATOM     22  C   UNL     1       0.713   9.151  20.725  0.00  0.00    +0.000 A 
ATOM     23  C   UNL     1       1.565   8.159  20.241  0.00  0.00    +0.000 A 
ENDBRANCH  15  18
ENDBRANCH  14  15
ENDBRANCH   7  14
TORSDOF 4
ENDMDL
MODEL 3
REMARK VINA RESULT:      -6.6      0.564      1.011
REMARK  Name = 
REMARK  4 active torsions:
REMARK  status: ('A' for Active; 'I' for Inactive)
REMARK    1  A    between atoms: C_2  and  C_3
REMARK    2  A    between atoms: C_13  and  C_14
REMARK    3  A    between atoms: C_14  and  S_15
REMARK    4  A    between atoms: S_15  and  C_18
REMARK                            x       y       z     vdW  Elec       q    Type
REMARK                         _______ _______ _______ _____ _____    ______ ____
ROOT
ATOM      1  O   UNL     1       3.754   1.484  17.830  0.00  0.00    +0.000 OA
ATOM      2  C   UNL     1       3.718   2.644  18.242  0.00  0.00    +0.000 C 
ATOM      3  N   UNL     1       2.662   3.116  19.022  0.00  0.00    +0.000 N 
ATOM      4  C   UNL     1       1.720   2.160  19.576  0.00  0.00    +0.000 C 
ATOM      5  C   UNL     1       0.510   2.993  19.927  0.00  0.00    +0.000 C 
ATOM      6  C   UNL     1       1.131   4.304  20.388  0.00  0.00    +0.000 C 
ATOM      7  C   UNL     1       2.361   4.502  19.477  0.00  0.00    +0.000 C 
ENDROOT
BRANCH   2   8
ATOM      8  C   UNL     1       4.822   3.552  17.853  0.00  0.00    +0.000 A 
ATOM      9  C   UNL     1       5.715   3.984  18.823  0.00  0.00    +0.000 A 
ATOM     10  N   UNL     1       6.755   4.810  18.535  0.00  0.00    +0.000 NA
ATOM     11  C   UNL     1       6.835   5.212  17.245  0.00  0.00    +0.000 A 
ATOM     12  C   UNL     1       5.937   4.789  16.279  0.00  0.00    +0.000 A 
ATOM     13  N   UNL     1       4.920   3.941  16.555  0.00  0.00    +0.000 NA
ENDBRANCH   2   8
BRANCH   7  14
ATOM     14  C   UNL     1       2.104   5.448  18.300  0.00  0.00    +0.000 C 
BRANCH  14  15
ATOM     15  S   UNL     1       3.123   6.915  18.346  0.00  0.00    +0.000 S 
ATOM     16  O   UNL     1       4.107   6.779  19.400  0.00  0.00    +0.000 OA
ATOM     17  O   UNL     1       3.522   7.262  16.995  0.00  0.00    +0.000 OA
BRANCH  15  18
ATOM     18  C   UNL     1       1.981   8.177  18.880  0.00  0.00    +0.000 A 
ATOM     19  C   UNL     1       1.560   8.211  20.214  0.00  0.00    +0.000 A 
ATOM     20  C   UNL     1       0.642   9.181  20.613  0.00  0.00    +0.000 A 
ATOM     21  C   UNL     1       0.152  10.104  19.690  0.00  0.00    +0.000 A 
ATOM     22  C   UNL     1       0.589  10.074  18.363  0.00  0.00    +0.000 A 
ATOM     23  C   UNL     1       1.513   9.113  17.955  0.00  0.00    +0.000 A 
ENDBRANCH  15  18
ENDBRANCH  14  15
ENDBRANCH   7  14
TORSDOF 4
ENDMDL
MODEL 4
REMARK VINA RESULT:      -6.6      0.560      1.428
REMARK  Name = 
REMARK  4 active torsions:
REMARK  status: ('A' for Active; 'I' for Inactive)
REMARK    1  A    between atoms: C_2  and  C_3
REMARK    2  A    between atoms: C_13  and  C_14
REMARK    3  A    between atoms: C_14  and  S_15
REMARK    4  A    between atoms: S_15  and  C_18
REMARK                            x       y       z     vdW  Elec       q    Type
REMARK                         _______ _______ _______ _____ _____    ______ ____
ROOT
ATOM      1  O   UNL     1       3.726   1.483  17.792  0.00  0.00    +0.000 OA
ATOM      2  C   UNL     1       3.700   2.643  18.203  0.00  0.00    +0.000 C 
ATOM      3  N   UNL     1       2.652   3.123  18.990  0.00  0.00    +0.000 N 
ATOM      4  C   UNL     1       1.709   2.173  19.553  0.00  0.00    +0.000 C 
ATOM      5  C   UNL     1       0.506   3.014  19.911  0.00  0.00    +0.000 C 
ATOM      6  C   UNL     1       1.138   4.321  20.366  0.00  0.00    +0.000 C 
ATOM      7  C   UNL     1       2.363   4.511  19.446  0.00  0.00    +0.000 C 
ENDROOT
BRANCH   2   8
ATOM      8  C   UNL     1       4.806   3.544  17.805  0.00  0.00    +0.000 A 
ATOM      9  C   UNL     1       5.741   3.928  18.756  0.00  0.00    +0.000 A 
ATOM     10  N   UNL     1       6.786   4.745  18.458  0.00  0.00    +0.000 NA
ATOM     11  C   UNL     1       6.827   5.188  17.180  0.00  0.00    +0.000 A 
ATOM     12  C   UNL     1       5.888   4.813  16.233  0.00  0.00    +0.000 A 
ATOM     13  N   UNL     1       4.866   3.974  16.518  0.00  0.00    +0.000 NA
ENDBRANCH   2   8
BRANCH   7  14
ATOM     14  C   UNL     1       2.103   5.457  18.269  0.00  0.00    +0.000 C 
BRANCH  14  15
ATOM     15  S   UNL     1       3.124   6.922  18.311  0.00  0.00    +0.000 S 
ATOM     16  O   UNL     1       4.138   6.768  19.334  0.00  0.00    +0.000 OA
ATOM     17  O   UNL     1       3.486   7.291  16.955  0.00  0.00    +0.000 OA
BRANCH  15  18
ATOM     18  C   UNL     1       1.999   8.176  18.897  0.00  0.00    +0.000 A 
ATOM     19  C   UNL     1       1.540   9.162  18.017  0.00  0.00    +0.000 A 
ATOM     20  C   UNL     1       0.687  10.156  18.493  0.00  0.00    +0.000 A 
ATOM     21  C   UNL     1       0.300  10.164  19.833  0.00  0.00    +0.000 A 
ATOM     22  C   UNL     1       0.750   9.168  20.702  0.00  0.00    +0.000 A 
ATOM     23  C   UNL     1       1.597   8.163  20.234  0.00  0.00    +0.000 A 
ENDBRANCH  15  18
ENDBRANCH  14  15
ENDBRANCH   7  14
TORSDOF 4
ENDMDL
MODEL 5
REMARK VINA RESULT:      -6.3      2.933      6.172
REMARK  Name = 
REMARK  4 active torsions:
REMARK  status: ('A' for Active; 'I' for Inactive)
REMARK    1  A    between atoms: C_2  and  C_3
REMARK    2  A    between atoms: C_13  and  C_14
REMARK    3  A    between atoms: C_14  and  S_15
REMARK    4  A    between atoms: S_15  and  C_18
REMARK                            x       y       z     vdW  Elec       q    Type
REMARK                         _______ _______ _______ _____ _____    ______ ____
ROOT
ATOM      1  O   UNL     1       1.166   4.485  18.857  0.00  0.00    +0.000 OA
ATOM      2  C   UNL     1       2.386   4.543  18.704  0.00  0.00    +0.000 C 
ATOM      3  N   UNL     1       3.026   5.725  18.330  0.00  0.00    +0.000 N 
ATOM      4  C   UNL     1       2.279   6.969  18.375  0.00  0.00    +0.000 C 
ATOM      5  C   UNL     1       3.070   7.908  17.494  0.00  0.00    +0.000 C 
ATOM      6  C   UNL     1       4.507   7.490  17.768  0.00  0.00    +0.000 C 
ATOM      7  C   UNL     1       4.447   5.958  17.947  0.00  0.00    +0.000 C 
ENDROOT
BRANCH   2   8
ATOM      8  C   UNL     1       3.169   3.299  18.893  0.00  0.00    +0.000 A 
ATOM      9  C   UNL     1       4.033   3.202  19.974  0.00  0.00    +0.000 A 
ATOM     10  N   UNL     1       4.774   2.088  20.213  0.00  0.00    +0.000 NA
ATOM     11  C   UNL     1       4.638   1.097  19.301  0.00  0.00    +0.000 A 
ATOM     12  C   UNL     1       3.783   1.198  18.216  0.00  0.00    +0.000 A 
ATOM     13  N   UNL     1       3.020   2.292  17.993  0.00  0.00    +0.000 NA
ENDBRANCH   2   8
BRANCH   7  14
ATOM     14  C   UNL     1       4.835   5.179  16.686  0.00  0.00    +0.000 C 
BRANCH  14  15
ATOM     15  S   UNL     1       6.577   5.288  16.305  0.00  0.00    +0.000 S 
ATOM     16  O   UNL     1       6.986   6.677  16.335  0.00  0.00    +0.000 OA
ATOM     17  O   UNL     1       7.296   4.284  17.066  0.00  0.00    +0.000 OA
BRANCH  15  18
ATOM     18  C   UNL     1       6.644   4.777  14.597  0.00  0.00    +0.000 A 
ATOM     19  C   UNL     1       5.714   3.851  14.113  0.00  0.00    +0.000 A 
ATOM     20  C   UNL     1       5.796   3.434  12.786  0.00  0.00    +0.000 A 
ATOM     21  C   UNL     1       6.796   3.937  11.954  0.00  0.00    +0.000 A 
ATOM     22  C   UNL     1       7.712   4.873  12.440  0.00  0.00    +0.000 A 
ATOM     23  C   UNL     1       7.634   5.303  13.764  0.00  0.00    +0.000 A 
ENDBRANCH  15  18
ENDBRANCH  14  15
ENDBRANCH   7  14
TORSDOF 4
ENDMDL
MODEL 6
REMARK VINA RESULT:      -6.3      1.576      3.787
REMARK  Name = 
REMARK  4 active torsions:
REMARK  status: ('A' for Active; 'I' for Inactive)
REMARK    1  A    between atoms: C_2  and  C_3
REMARK    2  A    between atoms: C_13  and  C_14
REMARK    3  A    between atoms: C_14  and  S_15
REMARK    4  A    between atoms: S_15  and  C_18
REMARK                            x       y       z     vdW  Elec       q    Type
REMARK                         _______ _______ _______ _____ _____    ______ ____
ROOT
ATOM      1  O   UNL     1       5.324   2.873  19.839  0.00  0.00    +0.000 OA
ATOM      2  C   UNL     1       4.648   3.683  19.203  0.00  0.00    +0.000 C 
ATOM      3  N   UNL     1       5.233   4.720  18.477  0.00  0.00    +0.000 N 
ATOM      4  C   UNL     1       6.668   4.693  18.251  0.00  0.00    +0.000 C 
ATOM      5  C   UNL     1       7.011   6.118  17.886  0.00  0.00    +0.000 C 
ATOM      6  C   UNL     1       5.791   6.561  17.090  0.00  0.00    +0.000 C 
ATOM      7  C   UNL     1       4.596   5.875  17.784  0.00  0.00    +0.000 C 
ENDROOT
BRANCH   2   8
ATOM      8  C   UNL     1       3.174   3.550  19.258  0.00  0.00    +0.000 A 
ATOM      9  C   UNL     1       2.507   2.971  18.188  0.00  0.00    +0.000 A 
ATOM     10  N   UNL     1       1.157   2.810  18.176  0.00  0.00    +0.000 NA
ATOM     11  C   UNL     1       0.508   3.290  19.262  0.00  0.00    +0.000 A 
ATOM     12  C   UNL     1       1.173   3.877  20.326  0.00  0.00    +0.000 A 
ATOM     13  N   UNL     1       2.518   4.009  20.356  0.00  0.00    +0.000 NA
ENDBRANCH   2   8
BRANCH   7  14
ATOM     14  C   UNL     1       3.849   6.787  18.762  0.00  0.00    +0.000 C 
BRANCH  14  15
ATOM     15  S   UNL     1       2.373   7.507  18.059  0.00  0.00    +0.000 S 
ATOM     16  O   UNL     1       2.749   8.518  17.092  0.00  0.00    +0.000 OA
ATOM     17  O   UNL     1       1.447   6.448  17.706  0.00  0.00    +0.000 OA
BRANCH  15  18
ATOM     18  C   UNL     1       1.654   8.373  19.443  0.00  0.00    +0.000 A 
ATOM     19  C   UNL     1       1.687   7.794  20.716  0.00  0.00    +0.000 A 
ATOM     20  C   UNL     1       1.093   8.464  21.784  0.00  0.00    +0.000 A 
ATOM     21  C   UNL     1       0.472   9.696  21.580  0.00  0.00    +0.000 A 
ATOM     22  C   UNL     1       0.456  10.275  20.309  0.00  0.00    +0.000 A 
ATOM     23  C   UNL     1       1.055   9.618  19.235  0.00  0.00    +0.000 A 
ENDBRANCH  15  18
ENDBRANCH  14  15
ENDBRANCH   7  14
TORSDOF 4
ENDMDL
MODEL 7
REMARK VINA RESULT:      -6.2      2.907      6.194
REMARK  Name = 
REMARK  4 active torsions:
REMARK  status: ('A' for Active; 'I' for Inactive)
REMARK    1  A    between atoms: C_2  and  C_3
REMARK    2  A    between atoms: C_13  and  C_14
REMARK    3  A    between atoms: C_14  and  S_15
REMARK    4  A    between atoms: S_15  and  C_18
REMARK                            x       y       z     vdW  Elec       q    Type
REMARK                         _______ _______ _______ _____ _____    ______ ____
ROOT
ATOM      1  O   UNL     1       1.127   4.560  18.812  0.00  0.00    +0.000 OA
ATOM      2  C   UNL     1       2.349   4.616  18.668  0.00  0.00    +0.000 C 
ATOM      3  N   UNL     1       2.995   5.801  18.314  0.00  0.00    +0.000 N 
ATOM      4  C   UNL     1       2.252   7.047  18.371  0.00  0.00    +0.000 C 
ATOM      5  C   UNL     1       3.051   7.994  17.508  0.00  0.00    +0.000 C 
ATOM      6  C   UNL     1       4.485   7.568  17.786  0.00  0.00    +0.000 C 
ATOM      7  C   UNL     1       4.419   6.034  17.943  0.00  0.00    +0.000 C 
ENDROOT
BRANCH   2   8
ATOM      8  C   UNL     1       3.126   3.367  18.844  0.00  0.00    +0.000 A 
ATOM      9  C   UNL     1       3.995   3.258  19.921  0.00  0.00    +0.000 A 
ATOM     10  N   UNL     1       4.732   2.139  20.148  0.00  0.00    +0.000 NA
ATOM     11  C   UNL     1       4.586   1.155  19.230  0.00  0.00    +0.000 A 
ATOM     12  C   UNL     1       3.726   1.267  18.150  0.00  0.00    +0.000 A 
ATOM     13  N   UNL     1       2.967   2.366  17.939  0.00  0.00    +0.000 NA
ENDBRANCH   2   8
BRANCH   7  14
ATOM     14  C   UNL     1       4.812   5.271  16.674  0.00  0.00    +0.000 C 
BRANCH  14  15
ATOM     15  S   UNL     1       6.568   5.311  16.349  0.00  0.00    +0.000 S 
ATOM     16  O   UNL     1       7.027   6.685  16.372  0.00  0.00    +0.000 OA
ATOM     17  O   UNL     1       7.225   4.295  17.150  0.00  0.00    +0.000 OA
BRANCH  15  18
ATOM     18  C   UNL     1       6.673   4.770  14.653  0.00  0.00    +0.000 A 
ATOM     19  C   UNL     1       7.629   5.336  13.803  0.00  0.00    +0.000 A 
ATOM     20  C   UNL     1       7.681   4.930  12.470  0.00  0.00    +0.000 A 
ATOM     21  C   UNL     1       6.787   3.971  11.995  0.00  0.00    +0.000 A 
ATOM     22  C   UNL     1       5.845   3.399  12.854  0.00  0.00    +0.000 A 
ATOM     23  C   UNL     1       5.790   3.792  14.191  0.00  0.00    +0.000 A 
ENDBRANCH  15  18
ENDBRANCH  14  15
ENDBRANCH   7  14
TORSDOF 4
ENDMDL
MODEL 8
REMARK VINA RESULT:      -6.2      1.562      3.876
REMARK  Name = 
REMARK  4 active torsions:
REMARK  status: ('A' for Active; 'I' for Inactive)
REMARK    1  A    between atoms: C_2  and  C_3
REMARK    2  A    between atoms: C_13  and  C_14
REMARK    3  A    between atoms: C_14  and  S_15
REMARK    4  A    between atoms: S_15  and  C_18
REMARK                            x       y       z     vdW  Elec       q    Type
REMARK                         _______ _______ _______ _____ _____    ______ ____
ROOT
ATOM      1  O   UNL     1       5.215   2.643  20.047  0.00  0.00    +0.000 OA
ATOM      2  C   UNL     1       4.592   3.463  19.373  0.00  0.00    +0.000 C 
ATOM      3  N   UNL     1       5.234   4.500  18.696  0.00  0.00    +0.000 N 
ATOM      4  C   UNL     1       6.680   4.462  18.568  0.00  0.00    +0.000 C 
ATOM      5  C   UNL     1       7.060   5.886  18.238  0.00  0.00    +0.000 C 
ATOM      6  C   UNL     1       5.901   6.346  17.366  0.00  0.00    +0.000 C 
ATOM      7  C   UNL     1       4.655   5.666  17.972  0.00  0.00    +0.000 C 
ENDROOT
BRANCH   2   8
ATOM      8  C   UNL     1       3.115   3.344  19.327  0.00  0.00    +0.000 A 
ATOM      9  C   UNL     1       2.519   2.757  18.221  0.00  0.00    +0.000 A 
ATOM     10  N   UNL     1       1.172   2.608  18.116  0.00  0.00    +0.000 NA
ATOM     11  C   UNL     1       0.453   3.107  19.149  0.00  0.00    +0.000 A 
ATOM     12  C   UNL     1       1.048   3.703  20.249  0.00  0.00    +0.000 A 
ATOM     13  N   UNL     1       2.390   3.823  20.371  0.00  0.00    +0.000 NA
ENDBRANCH   2   8
BRANCH   7  14
ATOM     14  C   UNL     1       3.852   6.578  18.904  0.00  0.00    +0.000 C 
BRANCH  14  15
ATOM     15  S   UNL     1       2.428   7.311  18.111  0.00  0.00    +0.000 S 
ATOM     16  O   UNL     1       2.875   8.251  17.104  0.00  0.00    +0.000 OA
ATOM     17  O   UNL     1       1.475   6.268  17.783  0.00  0.00    +0.000 OA
BRANCH  15  18
ATOM     18  C   UNL     1       1.697   8.278  19.418  0.00  0.00    +0.000 A 
ATOM     19  C   UNL     1       1.176   9.545  19.136  0.00  0.00    +0.000 A 
ATOM     20  C   UNL     1       0.636  10.307  20.171  0.00  0.00    +0.000 A 
ATOM     21  C   UNL     1       0.619   9.806  21.472  0.00  0.00    +0.000 A 
ATOM     22  C   UNL     1       1.127   8.534  21.745  0.00  0.00    +0.000 A 
ATOM     23  C   UNL     1       1.661   7.760  20.715  0.00  0.00    +0.000 A 
ENDBRANCH  15  18
ENDBRANCH  14  15
ENDBRANCH   7  14
TORSDOF 4
ENDMDL
MODEL 9
REMARK VINA RESULT:      -6.1      1.580      4.035
REMARK  Name = 
REMARK  4 active torsions:
REMARK  status: ('A' for Active; 'I' for Inactive)
REMARK    1  A    between atoms: C_2  and  C_3
REMARK    2  A    between atoms: C_13  and  C_14
REMARK    3  A    between atoms: C_14  and  S_15
REMARK    4  A    between atoms: S_15  and  C_18
REMARK                            x       y       z     vdW  Elec       q    Type
REMARK                         _______ _______ _______ _____ _____    ______ ____
ROOT
ATOM      1  O   UNL     1       5.368   2.960  19.880  0.00  0.00    +0.000 OA
ATOM      2  C   UNL     1       4.679   3.753  19.238  0.00  0.00    +0.000 C 
ATOM      3  N   UNL     1       5.248   4.772  18.474  0.00  0.00    +0.000 N 
ATOM      4  C   UNL     1       6.677   4.739  18.218  0.00  0.00    +0.000 C 
ATOM      5  C   UNL     1       7.012   6.155  17.810  0.00  0.00    +0.000 C 
ATOM      6  C   UNL     1       5.776   6.578  17.031  0.00  0.00    +0.000 C 
ATOM      7  C   UNL     1       4.596   5.909  17.767  0.00  0.00    +0.000 C 
ENDROOT
BRANCH   2   8
ATOM      8  C   UNL     1       3.206   3.622  19.327  0.00  0.00    +0.000 A 
ATOM      9  C   UNL     1       2.551   4.107  20.451  0.00  0.00    +0.000 A 
ATOM     10  N   UNL     1       1.202   4.028  20.594  0.00  0.00    +0.000 NA
ATOM     11  C   UNL     1       0.548   3.411  19.582  0.00  0.00    +0.000 A 
ATOM     12  C   UNL     1       1.203   2.919  18.465  0.00  0.00    +0.000 A 
ATOM     13  N   UNL     1       2.541   3.024  18.304  0.00  0.00    +0.000 NA
ENDBRANCH   2   8
BRANCH   7  14
ATOM     14  C   UNL     1       3.870   6.846  18.737  0.00  0.00    +0.000 C 
BRANCH  14  15
ATOM     15  S   UNL     1       2.359   7.520  18.061  0.00  0.00    +0.000 S 
ATOM     16  O   UNL     1       2.687   8.523  17.069  0.00  0.00    +0.000 OA
ATOM     17  O   UNL     1       1.450   6.434  17.748  0.00  0.00    +0.000 OA
BRANCH  15  18
ATOM     18  C   UNL     1       1.655   8.391  19.449  0.00  0.00    +0.000 A 
ATOM     19  C   UNL     1       1.107   9.664  19.263  0.00  0.00    +0.000 A 
ATOM     20  C   UNL     1       0.589  10.350  20.360  0.00  0.00    +0.000 A 
ATOM     21  C   UNL     1       0.619   9.768  21.627  0.00  0.00    +0.000 A 
ATOM     22  C   UNL     1       1.154   8.490  21.803  0.00  0.00    +0.000 A 
ATOM     23  C   UNL     1       1.667   7.792  20.710  0.00  0.00    +0.000 A 
ENDBRANCH  15  18
ENDBRANCH  14  15
ENDBRANCH   7  14
TORSDOF 4
ENDMDL
