MODEL 1
REMARK VINA RESULT:      -7.1      0.000      0.000
REMARK  Name = 
REMARK  8 active torsions:
REMARK  status: ('A' for Active; 'I' for Inactive)
REMARK    1  A    between atoms: C_1  and  O_2
REMARK    2  A    between atoms: O_2  and  C_3
REMARK    3  A    between atoms: C_3  and  C_4
REMARK    4  A    between atoms: C_4  and  N_5
REMARK    5  A    between atoms: C_9  and  C_11
REMARK    6  A    between atoms: N_16  and  C_17
REMARK    7  A    between atoms: C_17  and  C_18
REMARK    8  A    between atoms: C_22  and  C_23
REMARK                            x       y       z     vdW  Elec       q    Type
REMARK                         _______ _______ _______ _____ _____    ______ ____
ROOT
ATOM      1  C   UNL     1       3.866   2.718  18.338  0.00  0.00    +0.000 C 
ATOM      2  C   UNL     1       2.752   1.679  18.543  0.00  0.00    +0.000 C 
ATOM      3  C   UNL     1       1.419   2.309  18.946  0.00  0.00    +0.000 C 
ATOM      4  C   UNL     1       1.488   3.467  19.929  0.00  0.00    +0.000 C 
ATOM      5  O   UNL     1       0.502   3.786  20.592  0.00  0.00    +0.000 OA
ATOM      6  N   UNL     1       2.660   4.206  19.918  0.00  0.00    +0.000 N 
ATOM      7  C   UNL     1       3.914   3.555  19.609  0.00  0.00    +0.000 C 
ENDROOT
BRANCH   1  12
ATOM      8  N   UNL     1       6.982   5.603  15.209  0.00  0.00    +0.000 NA
ATOM      9  C   UNL     1       5.562   5.906  14.931  0.00  0.00    +0.000 C 
ATOM     10  C   UNL     1       4.571   4.731  15.103  0.00  0.00    +0.000 C 
ATOM     11  N   UNL     1       4.780   3.997  16.360  0.00  0.00    +0.000 N 
ATOM     12  C   UNL     1       3.673   3.530  17.049  0.00  0.00    +0.000 C 
ATOM     13  O   UNL     1       2.534   3.737  16.618  0.00  0.00    +0.000 OA
ATOM     14  C   UNL     1       6.181   3.648  16.603  0.00  0.00    +0.000 C 
ATOM     15  C   UNL     1       7.063   4.911  16.523  0.00  0.00    +0.000 C 
BRANCH   8  16
ATOM     16  C   UNL     1       7.647   4.780  14.182  0.00  0.00    +0.000 C 
BRANCH  16  17
ATOM     17  C   UNL     1       7.949   5.436  12.830  0.00  0.00    +0.000 C 
BRANCH  17  19
ATOM     18  C   UNL     1       6.601   3.551  12.354  0.00  0.00    +0.000 C 
ATOM     19  O   UNL     1       7.465   4.542  11.819  0.00  0.00    +0.000 OA
ENDBRANCH  17  19
ENDBRANCH  16  17
ENDBRANCH   8  16
ENDBRANCH   1  12
BRANCH   6  20
ATOM     20  C   UNL     1       2.716   5.482  20.632  0.00  0.00    +0.000 C 
BRANCH  20  21
ATOM     21  C   UNL     1       2.461   6.700  19.759  0.00  0.00    +0.000 A 
ATOM     22  C   UNL     1       2.922   6.822  18.443  0.00  0.00    +0.000 A 
ATOM     23  C   UNL     1       2.610   7.945  17.672  0.00  0.00    +0.000 A 
ATOM     24  C   UNL     1       1.822   8.964  18.201  0.00  0.00    +0.000 A 
ATOM     25  C   UNL     1       1.339   8.871  19.514  0.00  0.00    +0.000 A 
ATOM     26  C   UNL     1       1.683   7.747  20.287  0.00  0.00    +0.000 A 
BRANCH  25  27
ATOM     27  C   UNL     1       0.445   9.940  20.093  0.00  0.00    +0.000 C 
ATOM     28  F   UNL     1       1.114  11.049  20.517  0.00  0.00    +0.000 F 
ATOM     29  F   UNL     1      -0.480  10.385  19.196  0.00  0.00    +0.000 F 
ATOM     30  F   UNL     1      -0.267   9.501  21.169  0.00  0.00    +0.000 F 
ENDBRANCH  25  27
ENDBRANCH  20  21
ENDBRANCH   6  20
TORSDOF 7
ENDMDL
MODEL 2
REMARK VINA RESULT:      -6.3      4.498      8.061
REMARK  Name = 
REMARK  8 active torsions:
REMARK  status: ('A' for Active; 'I' for Inactive)
REMARK    1  A    between atoms: C_1  and  O_2
REMARK    2  A    between atoms: O_2  and  C_3
REMARK    3  A    between atoms: C_3  and  C_4
REMARK    4  A    between atoms: C_4  and  N_5
REMARK    5  A    between atoms: C_9  and  C_11
REMARK    6  A    between atoms: N_16  and  C_17
REMARK    7  A    between atoms: C_17  and  C_18
REMARK    8  A    between atoms: C_22  and  C_23
REMARK                            x       y       z     vdW  Elec       q    Type
REMARK                         _______ _______ _______ _____ _____    ______ ____
ROOT
ATOM      1  C   UNL     1       1.693   5.572  18.766  0.00  0.00    +0.000 C 
ATOM      2  C   UNL     1       1.952   5.325  20.261  0.00  0.00    +0.000 C 
ATOM      3  C   UNL     1       3.347   4.765  20.538  0.00  0.00    +0.000 C 
ATOM      4  C   UNL     1       3.867   3.729  19.554  0.00  0.00    +0.000 C 
ATOM      5  O   UNL     1       4.773   2.960  19.875  0.00  0.00    +0.000 OA
ATOM      6  N   UNL     1       3.365   3.806  18.266  0.00  0.00    +0.000 N 
ATOM      7  C   UNL     1       2.010   4.266  18.052  0.00  0.00    +0.000 C 
ENDROOT
BRANCH   1  12
ATOM      8  N   UNL     1       0.938  10.792  18.766  0.00  0.00    +0.000 NA
ATOM      9  C   UNL     1       1.972  10.429  17.773  0.00  0.00    +0.000 C 
ATOM     10  C   UNL     1       2.858   9.213  18.131  0.00  0.00    +0.000 C 
ATOM     11  N   UNL     1       2.075   8.065  18.611  0.00  0.00    +0.000 N 
ATOM     12  C   UNL     1       2.466   6.790  18.238  0.00  0.00    +0.000 C 
ATOM     13  O   UNL     1       3.450   6.625  17.509  0.00  0.00    +0.000 OA
ATOM     14  C   UNL     1       1.091   8.421  19.636  0.00  0.00    +0.000 C 
ATOM     15  C   UNL     1       0.187   9.563  19.129  0.00  0.00    +0.000 C 
BRANCH   8  16
ATOM     16  C   UNL     1       1.461  11.426  19.991  0.00  0.00    +0.000 C 
BRANCH  16  17
ATOM     17  C   UNL     1       0.447  11.868  21.052  0.00  0.00    +0.000 C 
BRANCH  17  19
ATOM     18  C   UNL     1      -0.694  10.708  22.770  0.00  0.00    +0.000 C 
ATOM     19  O   UNL     1       0.556  10.941  22.140  0.00  0.00    +0.000 OA
ENDBRANCH  17  19
ENDBRANCH  16  17
ENDBRANCH   8  16
ENDBRANCH   1  12
BRANCH   6  20
ATOM     20  C   UNL     1       3.994   3.030  17.198  0.00  0.00    +0.000 C 
BRANCH  20  21
ATOM     21  C   UNL     1       5.066   3.781  16.425  0.00  0.00    +0.000 A 
ATOM     22  C   UNL     1       5.994   4.642  17.022  0.00  0.00    +0.000 A 
ATOM     23  C   UNL     1       6.990   5.263  16.265  0.00  0.00    +0.000 A 
ATOM     24  C   UNL     1       7.082   5.028  14.895  0.00  0.00    +0.000 A 
ATOM     25  C   UNL     1       6.173   4.167  14.266  0.00  0.00    +0.000 A 
ATOM     26  C   UNL     1       5.158   3.568  15.037  0.00  0.00    +0.000 A 
BRANCH  25  27
ATOM     27  C   UNL     1       6.280   3.860  12.793  0.00  0.00    +0.000 C 
ATOM     28  F   UNL     1       5.132   4.090  12.096  0.00  0.00    +0.000 F 
ATOM     29  F   UNL     1       7.243   4.603  12.177  0.00  0.00    +0.000 F 
ATOM     30  F   UNL     1       6.608   2.560  12.551  0.00  0.00    +0.000 F 
ENDBRANCH  25  27
ENDBRANCH  20  21
ENDBRANCH   6  20
TORSDOF 7
ENDMDL
MODEL 3
REMARK VINA RESULT:      -6.2      3.615      7.468
REMARK  Name = 
REMARK  8 active torsions:
REMARK  status: ('A' for Active; 'I' for Inactive)
REMARK    1  A    between atoms: C_1  and  O_2
REMARK    2  A    between atoms: O_2  and  C_3
REMARK    3  A    between atoms: C_3  and  C_4
REMARK    4  A    between atoms: C_4  and  N_5
REMARK    5  A    between atoms: C_9  and  C_11
REMARK    6  A    between atoms: N_16  and  C_17
REMARK    7  A    between atoms: C_17  and  C_18
REMARK    8  A    between atoms: C_22  and  C_23
REMARK                            x       y       z     vdW  Elec       q    Type
REMARK                         _______ _______ _______ _____ _____    ______ ____
ROOT
ATOM      1  C   UNL     1       1.705   5.680  18.710  0.00  0.00    +0.000 C 
ATOM      2  C   UNL     1       1.920   5.365  20.199  0.00  0.00    +0.000 C 
ATOM      3  C   UNL     1       3.315   4.816  20.496  0.00  0.00    +0.000 C 
ATOM      4  C   UNL     1       3.885   3.836  19.482  0.00  0.00    +0.000 C 
ATOM      5  O   UNL     1       4.793   3.067  19.795  0.00  0.00    +0.000 OA
ATOM      6  N   UNL     1       3.423   3.966  18.183  0.00  0.00    +0.000 N 
ATOM      7  C   UNL     1       2.068   4.414  17.946  0.00  0.00    +0.000 C 
ENDROOT
BRANCH   1  12
ATOM      8  N   UNL     1       0.816  10.877  18.848  0.00  0.00    +0.000 NA
ATOM      9  C   UNL     1       1.910  10.573  17.899  0.00  0.00    +0.000 C 
ATOM     10  C   UNL     1       2.807   9.367  18.262  0.00  0.00    +0.000 C 
ATOM     11  N   UNL     1       2.029   8.184  18.660  0.00  0.00    +0.000 N 
ATOM     12  C   UNL     1       2.472   6.933  18.265  0.00  0.00    +0.000 C 
ATOM     13  O   UNL     1       3.496   6.818  17.585  0.00  0.00    +0.000 OA
ATOM     14  C   UNL     1       0.985   8.480  19.643  0.00  0.00    +0.000 C 
ATOM     15  C   UNL     1       0.079   9.617  19.129  0.00  0.00    +0.000 C 
BRANCH   8  16
ATOM     16  C   UNL     1       1.258  11.479  20.120  0.00  0.00    +0.000 C 
BRANCH  16  17
ATOM     17  C   UNL     1       0.181  11.831  21.152  0.00  0.00    +0.000 C 
BRANCH  17  19
ATOM     18  C   UNL     1      -0.809  10.595  22.910  0.00  0.00    +0.000 C 
ATOM     19  O   UNL     1       0.405  10.986  22.288  0.00  0.00    +0.000 OA
ENDBRANCH  17  19
ENDBRANCH  16  17
ENDBRANCH   8  16
ENDBRANCH   1  12
BRANCH   6  20
ATOM     20  C   UNL     1       4.100   3.252  17.100  0.00  0.00    +0.000 C 
BRANCH  20  21
ATOM     21  C   UNL     1       5.253   4.015  16.471  0.00  0.00    +0.000 A 
ATOM     22  C   UNL     1       5.749   3.753  15.188  0.00  0.00    +0.000 A 
ATOM     23  C   UNL     1       6.778   4.525  14.643  0.00  0.00    +0.000 A 
ATOM     24  C   UNL     1       7.325   5.581  15.368  0.00  0.00    +0.000 A 
ATOM     25  C   UNL     1       6.848   5.875  16.652  0.00  0.00    +0.000 A 
ATOM     26  C   UNL     1       5.829   5.072  17.199  0.00  0.00    +0.000 A 
BRANCH  25  27
ATOM     27  C   UNL     1       7.392   7.042  17.438  0.00  0.00    +0.000 C 
ATOM     28  F   UNL     1       6.440   7.935  17.830  0.00  0.00    +0.000 F 
ATOM     29  F   UNL     1       8.024   6.649  18.580  0.00  0.00    +0.000 F 
ATOM     30  F   UNL     1       8.312   7.763  16.737  0.00  0.00    +0.000 F 
ENDBRANCH  25  27
ENDBRANCH  20  21
ENDBRANCH   6  20
TORSDOF 7
ENDMDL
MODEL 4
REMARK VINA RESULT:      -6.2      6.135     11.179
REMARK  Name = 
REMARK  8 active torsions:
REMARK  status: ('A' for Active; 'I' for Inactive)
REMARK    1  A    between atoms: C_1  and  O_2
REMARK    2  A    between atoms: O_2  and  C_3
REMARK    3  A    between atoms: C_3  and  C_4
REMARK    4  A    between atoms: C_4  and  N_5
REMARK    5  A    between atoms: C_9  and  C_11
REMARK    6  A    between atoms: N_16  and  C_17
REMARK    7  A    between atoms: C_17  and  C_18
REMARK    8  A    between atoms: C_22  and  C_23
REMARK                            x       y       z     vdW  Elec       q    Type
REMARK                         _______ _______ _______ _____ _____    ______ ____
ROOT
ATOM      1  C   UNL     1      -0.108  11.208  20.870  0.00  0.00    +0.000 C 
ATOM      2  C   UNL     1       0.923  12.344  20.954  0.00  0.00    +0.000 C 
ATOM      3  C   UNL     1       1.549  12.680  19.600  0.00  0.00    +0.000 C 
ATOM      4  C   UNL     1       1.875  11.502  18.696  0.00  0.00    +0.000 C 
ATOM      5  O   UNL     1       2.698  11.617  17.788  0.00  0.00    +0.000 OA
ATOM      6  N   UNL     1       1.099  10.368  18.869  0.00  0.00    +0.000 N 
ATOM      7  C   UNL     1       0.590  10.043  20.184  0.00  0.00    +0.000 C 
ENDROOT
BRANCH   1  12
ATOM      8  N   UNL     1      -4.729  13.141  22.521  0.00  0.00    +0.000 NA
ATOM      9  C   UNL     1      -4.851  12.651  21.131  0.00  0.00    +0.000 C 
ATOM     10  C   UNL     1      -3.588  12.793  20.249  0.00  0.00    +0.000 C 
ATOM     11  N   UNL     1      -2.370  12.332  20.930  0.00  0.00    +0.000 N 
ATOM     12  C   UNL     1      -1.411  11.656  20.193  0.00  0.00    +0.000 C 
ATOM     13  O   UNL     1      -1.586  11.439  18.989  0.00  0.00    +0.000 OA
ATOM     14  C   UNL     1      -2.224  12.866  22.285  0.00  0.00    +0.000 C 
ATOM     15  C   UNL     1      -3.492  12.567  23.112  0.00  0.00    +0.000 C 
BRANCH   8  16
ATOM     16  C   UNL     1      -4.697  14.610  22.653  0.00  0.00    +0.000 C 
BRANCH  16  17
ATOM     17  C   UNL     1      -5.225  15.219  23.956  0.00  0.00    +0.000 C 
BRANCH  17  19
ATOM     18  C   UNL     1      -3.208  15.658  25.111  0.00  0.00    +0.000 C 
ATOM     19  O   UNL     1      -4.277  16.215  24.361  0.00  0.00    +0.000 OA
ENDBRANCH  17  19
ENDBRANCH  16  17
ENDBRANCH   8  16
ENDBRANCH   1  12
BRANCH   6  20
ATOM     20  C   UNL     1       1.162   9.292  17.880  0.00  0.00    +0.000 C 
BRANCH  20  21
ATOM     21  C   UNL     1       2.121   8.168  18.237  0.00  0.00    +0.000 A 
ATOM     22  C   UNL     1       1.953   7.326  19.344  0.00  0.00    +0.000 A 
ATOM     23  C   UNL     1       2.841   6.276  19.590  0.00  0.00    +0.000 A 
ATOM     24  C   UNL     1       3.910   6.042  18.728  0.00  0.00    +0.000 A 
ATOM     25  C   UNL     1       4.103   6.861  17.607  0.00  0.00    +0.000 A 
ATOM     26  C   UNL     1       3.216   7.932  17.386  0.00  0.00    +0.000 A 
BRANCH  25  27
ATOM     27  C   UNL     1       5.226   6.599  16.634  0.00  0.00    +0.000 C 
ATOM     28  F   UNL     1       5.628   5.297  16.592  0.00  0.00    +0.000 F 
ATOM     29  F   UNL     1       4.888   6.923  15.353  0.00  0.00    +0.000 F 
ATOM     30  F   UNL     1       6.344   7.325  16.914  0.00  0.00    +0.000 F 
ENDBRANCH  25  27
ENDBRANCH  20  21
ENDBRANCH   6  20
TORSDOF 7
ENDMDL
MODEL 5
REMARK VINA RESULT:      -6.2      2.187      2.825
REMARK  Name = 
REMARK  8 active torsions:
REMARK  status: ('A' for Active; 'I' for Inactive)
REMARK    1  A    between atoms: C_1  and  O_2
REMARK    2  A    between atoms: O_2  and  C_3
REMARK    3  A    between atoms: C_3  and  C_4
REMARK    4  A    between atoms: C_4  and  N_5
REMARK    5  A    between atoms: C_9  and  C_11
REMARK    6  A    between atoms: N_16  and  C_17
REMARK    7  A    between atoms: C_17  and  C_18
REMARK    8  A    between atoms: C_22  and  C_23
REMARK                            x       y       z     vdW  Elec       q    Type
REMARK                         _______ _______ _______ _____ _____    ______ ____
ROOT
ATOM      1  C   UNL     1       3.903   2.524  18.624  0.00  0.00    +0.000 C 
ATOM      2  C   UNL     1       2.686   1.593  18.503  0.00  0.00    +0.000 C 
ATOM      3  C   UNL     1       1.356   2.337  18.620  0.00  0.00    +0.000 C 
ATOM      4  C   UNL     1       1.290   3.446  19.658  0.00  0.00    +0.000 C 
ATOM      5  O   UNL     1       0.207   3.837  20.091  0.00  0.00    +0.000 OA
ATOM      6  N   UNL     1       2.491   4.065  19.964  0.00  0.00    +0.000 N 
ATOM      7  C   UNL     1       3.721   3.304  19.918  0.00  0.00    +0.000 C 
ENDROOT
BRANCH   1  12
ATOM      8  N   UNL     1       6.012   7.255  17.631  0.00  0.00    +0.000 NA
ATOM      9  C   UNL     1       5.157   6.832  16.501  0.00  0.00    +0.000 C 
ATOM     10  C   UNL     1       5.107   5.313  16.220  0.00  0.00    +0.000 C 
ATOM     11  N   UNL     1       4.902   4.519  17.440  0.00  0.00    +0.000 N 
ATOM     12  C   UNL     1       4.093   3.397  17.376  0.00  0.00    +0.000 C 
ATOM     13  O   UNL     1       3.549   3.078  16.314  0.00  0.00    +0.000 OA
ATOM     14  C   UNL     1       5.792   4.902  18.538  0.00  0.00    +0.000 C 
ATOM     15  C   UNL     1       5.675   6.416  18.811  0.00  0.00    +0.000 C 
BRANCH   8  16
ATOM     16  C   UNL     1       7.461   7.169  17.369  0.00  0.00    +0.000 C 
BRANCH  16  17
ATOM     17  C   UNL     1       8.407   7.219  18.574  0.00  0.00    +0.000 C 
BRANCH  17  19
ATOM     18  C   UNL     1       8.194   9.435  17.772  0.00  0.00    +0.000 C 
ATOM     19  O   UNL     1       8.747   8.597  18.776  0.00  0.00    +0.000 OA
ENDBRANCH  17  19
ENDBRANCH  16  17
ENDBRANCH   8  16
ENDBRANCH   1  12
BRANCH   6  20
ATOM     20  C   UNL     1       2.488   5.302  20.744  0.00  0.00    +0.000 C 
BRANCH  20  21
ATOM     21  C   UNL     1       2.172   6.551  19.937  0.00  0.00    +0.000 A 
ATOM     22  C   UNL     1       2.389   6.660  18.558  0.00  0.00    +0.000 A 
ATOM     23  C   UNL     1       2.029   7.817  17.862  0.00  0.00    +0.000 A 
ATOM     24  C   UNL     1       1.436   8.884  18.531  0.00  0.00    +0.000 A 
ATOM     25  C   UNL     1       1.199   8.807  19.910  0.00  0.00    +0.000 A 
ATOM     26  C   UNL     1       1.590   7.646  20.604  0.00  0.00    +0.000 A 
BRANCH  25  27
ATOM     27  C   UNL     1       0.515   9.931  20.649  0.00  0.00    +0.000 C 
ATOM     28  F   UNL     1      -0.510   9.523  21.449  0.00  0.00    +0.000 F 
ATOM     29  F   UNL     1       1.371  10.613  21.461  0.00  0.00    +0.000 F 
ATOM     30  F   UNL     1      -0.017  10.862  19.809  0.00  0.00    +0.000 F 
ENDBRANCH  25  27
ENDBRANCH  20  21
ENDBRANCH   6  20
TORSDOF 7
ENDMDL
MODEL 6
REMARK VINA RESULT:      -6.1      5.751      9.049
REMARK  Name = 
REMARK  8 active torsions:
REMARK  status: ('A' for Active; 'I' for Inactive)
REMARK    1  A    between atoms: C_1  and  O_2
REMARK    2  A    between atoms: O_2  and  C_3
REMARK    3  A    between atoms: C_3  and  C_4
REMARK    4  A    between atoms: C_4  and  N_5
REMARK    5  A    between atoms: C_9  and  C_11
REMARK    6  A    between atoms: N_16  and  C_17
REMARK    7  A    between atoms: C_17  and  C_18
REMARK    8  A    between atoms: C_22  and  C_23
REMARK                            x       y       z     vdW  Elec       q    Type
REMARK                         _______ _______ _______ _____ _____    ______ ____
ROOT
ATOM      1  C   UNL     1       0.870  11.163  19.211  0.00  0.00    +0.000 C 
ATOM      2  C   UNL     1      -0.659  11.070  19.342  0.00  0.00    +0.000 C 
ATOM      3  C   UNL     1      -1.103  10.270  20.567  0.00  0.00    +0.000 C 
ATOM      4  C   UNL     1      -0.293   9.024  20.890  0.00  0.00    +0.000 C 
ATOM      5  O   UNL     1      -0.769   8.131  21.590  0.00  0.00    +0.000 OA
ATOM      6  N   UNL     1       1.029   9.032  20.475  0.00  0.00    +0.000 N 
ATOM      7  C   UNL     1       1.395   9.736  19.266  0.00  0.00    +0.000 C 
ENDROOT
BRANCH   1  12
ATOM      8  N   UNL     1       4.394  15.087  19.117  0.00  0.00    +0.000 NA
ATOM      9  C   UNL     1       4.197  14.614  20.504  0.00  0.00    +0.000 C 
ATOM     10  C   UNL     1       2.778  14.109  20.854  0.00  0.00    +0.000 C 
ATOM     11  N   UNL     1       2.239  13.192  19.838  0.00  0.00    +0.000 N 
ATOM     12  C   UNL     1       1.485  12.107  20.255  0.00  0.00    +0.000 C 
ATOM     13  O   UNL     1       1.279  11.913  21.457  0.00  0.00    +0.000 OA
ATOM     14  C   UNL     1       2.384  13.691  18.470  0.00  0.00    +0.000 C 
ATOM     15  C   UNL     1       3.857  14.055  18.191  0.00  0.00    +0.000 C 
BRANCH   8  16
ATOM     16  C   UNL     1       3.764  16.387  18.817  0.00  0.00    +0.000 C 
BRANCH  16  17
ATOM     17  C   UNL     1       3.302  17.243  20.001  0.00  0.00    +0.000 C 
BRANCH  17  19
ATOM     18  C   UNL     1       1.309  17.450  18.742  0.00  0.00    +0.000 C 
ATOM     19  O   UNL     1       2.296  18.133  19.499  0.00  0.00    +0.000 OA
ENDBRANCH  17  19
ENDBRANCH  16  17
ENDBRANCH   8  16
ENDBRANCH   1  12
BRANCH   6  20
ATOM     20  C   UNL     1       1.946   8.004  20.966  0.00  0.00    +0.000 C 
BRANCH  20  21
ATOM     21  C   UNL     1       2.027   6.766  20.089  0.00  0.00    +0.000 A 
ATOM     22  C   UNL     1       2.335   6.801  18.723  0.00  0.00    +0.000 A 
ATOM     23  C   UNL     1       2.446   5.622  17.980  0.00  0.00    +0.000 A 
ATOM     24  C   UNL     1       2.261   4.385  18.592  0.00  0.00    +0.000 A 
ATOM     25  C   UNL     1       1.957   4.313  19.958  0.00  0.00    +0.000 A 
ATOM     26  C   UNL     1       1.822   5.509  20.688  0.00  0.00    +0.000 A 
BRANCH  25  27
ATOM     27  C   UNL     1       1.798   2.984  20.653  0.00  0.00    +0.000 C 
ATOM     28  F   UNL     1       1.617   1.934  19.802  0.00  0.00    +0.000 F 
ATOM     29  F   UNL     1       2.883   2.662  21.413  0.00  0.00    +0.000 F 
ATOM     30  F   UNL     1       0.733   2.961  21.503  0.00  0.00    +0.000 F 
ENDBRANCH  25  27
ENDBRANCH  20  21
ENDBRANCH   6  20
TORSDOF 7
ENDMDL
MODEL 7
REMARK VINA RESULT:      -6.1      6.119     11.198
REMARK  Name = 
REMARK  8 active torsions:
REMARK  status: ('A' for Active; 'I' for Inactive)
REMARK    1  A    between atoms: C_1  and  O_2
REMARK    2  A    between atoms: O_2  and  C_3
REMARK    3  A    between atoms: C_3  and  C_4
REMARK    4  A    between atoms: C_4  and  N_5
REMARK    5  A    between atoms: C_9  and  C_11
REMARK    6  A    between atoms: N_16  and  C_17
REMARK    7  A    between atoms: C_17  and  C_18
REMARK    8  A    between atoms: C_22  and  C_23
REMARK                            x       y       z     vdW  Elec       q    Type
REMARK                         _______ _______ _______ _____ _____    ______ ____
ROOT
ATOM      1  C   UNL     1       0.068  11.241  20.744  0.00  0.00    +0.000 C 
ATOM      2  C   UNL     1       1.138  12.342  20.682  0.00  0.00    +0.000 C 
ATOM      3  C   UNL     1       1.713  12.534  19.279  0.00  0.00    +0.000 C 
ATOM      4  C   UNL     1       1.960  11.269  18.471  0.00  0.00    +0.000 C 
ATOM      5  O   UNL     1       2.744  11.274  17.523  0.00  0.00    +0.000 OA
ATOM      6  N   UNL     1       1.156  10.184  18.778  0.00  0.00    +0.000 N 
ATOM      7  C   UNL     1       0.697   9.995  20.137  0.00  0.00    +0.000 C 
ENDROOT
BRANCH   1  12
ATOM      8  N   UNL     1      -4.567  13.081  22.461  0.00  0.00    +0.000 NA
ATOM      9  C   UNL     1      -4.695  12.603  21.067  0.00  0.00    +0.000 C 
ATOM     10  C   UNL     1      -3.444  12.775  20.174  0.00  0.00    +0.000 C 
ATOM     11  N   UNL     1      -2.211  12.327  20.838  0.00  0.00    +0.000 N 
ATOM     12  C   UNL     1      -1.249  11.674  20.085  0.00  0.00    +0.000 C 
ATOM     13  O   UNL     1      -1.432  11.467  18.881  0.00  0.00    +0.000 OA
ATOM     14  C   UNL     1      -2.061  12.849  22.198  0.00  0.00    +0.000 C 
ATOM     15  C   UNL     1      -3.315  12.521  23.033  0.00  0.00    +0.000 C 
BRANCH   8  16
ATOM     16  C   UNL     1      -4.558  14.549  22.608  0.00  0.00    +0.000 C 
BRANCH  16  17
ATOM     17  C   UNL     1      -5.261  15.146  23.832  0.00  0.00    +0.000 C 
BRANCH  17  19
ATOM     18  C   UNL     1      -7.577  15.057  23.357  0.00  0.00    +0.000 C 
ATOM     19  O   UNL     1      -6.485  14.419  24.001  0.00  0.00    +0.000 OA
ENDBRANCH  17  19
ENDBRANCH  16  17
ENDBRANCH   8  16
ENDBRANCH   1  12
BRANCH   6  20
ATOM     20  C   UNL     1       1.139   9.023  17.888  0.00  0.00    +0.000 C 
BRANCH  20  21
ATOM     21  C   UNL     1       2.166   7.956  18.231  0.00  0.00    +0.000 A 
ATOM     22  C   UNL     1       2.091   7.143  19.369  0.00  0.00    +0.000 A 
ATOM     23  C   UNL     1       3.038   6.143  19.602  0.00  0.00    +0.000 A 
ATOM     24  C   UNL     1       4.074   5.930  18.696  0.00  0.00    +0.000 A 
ATOM     25  C   UNL     1       4.176   6.722  17.544  0.00  0.00    +0.000 A 
ATOM     26  C   UNL     1       3.230   7.743  17.335  0.00  0.00    +0.000 A 
BRANCH  25  27
ATOM     27  C   UNL     1       5.262   6.481  16.525  0.00  0.00    +0.000 C 
ATOM     28  F   UNL     1       6.466   7.022  16.863  0.00  0.00    +0.000 F 
ATOM     29  F   UNL     1       5.496   5.153  16.321  0.00  0.00    +0.000 F 
ATOM     30  F   UNL     1       4.955   6.993  15.300  0.00  0.00    +0.000 F 
ENDBRANCH  25  27
ENDBRANCH  20  21
ENDBRANCH   6  20
TORSDOF 7
ENDMDL
MODEL 8
REMARK VINA RESULT:      -6.0      4.780      8.218
REMARK  Name = 
REMARK  8 active torsions:
REMARK  status: ('A' for Active; 'I' for Inactive)
REMARK    1  A    between atoms: C_1  and  O_2
REMARK    2  A    between atoms: O_2  and  C_3
REMARK    3  A    between atoms: C_3  and  C_4
REMARK    4  A    between atoms: C_4  and  N_5
REMARK    5  A    between atoms: C_9  and  C_11
REMARK    6  A    between atoms: N_16  and  C_17
REMARK    7  A    between atoms: C_17  and  C_18
REMARK    8  A    between atoms: C_22  and  C_23
REMARK                            x       y       z     vdW  Elec       q    Type
REMARK                         _______ _______ _______ _____ _____    ______ ____
ROOT
ATOM      1  C   UNL     1       1.784   5.705  18.831  0.00  0.00    +0.000 C 
ATOM      2  C   UNL     1       2.205   5.437  20.285  0.00  0.00    +0.000 C 
ATOM      3  C   UNL     1       3.623   4.879  20.400  0.00  0.00    +0.000 C 
ATOM      4  C   UNL     1       4.035   3.858  19.351  0.00  0.00    +0.000 C 
ATOM      5  O   UNL     1       4.972   3.088  19.560  0.00  0.00    +0.000 OA
ATOM      6  N   UNL     1       3.395   3.951  18.126  0.00  0.00    +0.000 N 
ATOM      7  C   UNL     1       2.024   4.410  18.068  0.00  0.00    +0.000 C 
ENDROOT
BRANCH   1  12
ATOM      8  N   UNL     1       0.937  10.910  18.860  0.00  0.00    +0.000 NA
ATOM      9  C   UNL     1       1.899  10.558  17.793  0.00  0.00    +0.000 C 
ATOM     10  C   UNL     1       2.831   9.360  18.089  0.00  0.00    +0.000 C 
ATOM     11  N   UNL     1       2.108   8.202  18.633  0.00  0.00    +0.000 N 
ATOM     12  C   UNL     1       2.492   6.932  18.238  0.00  0.00    +0.000 C 
ATOM     13  O   UNL     1       3.420   6.780  17.438  0.00  0.00    +0.000 OA
ATOM     14  C   UNL     1       1.199   8.548  19.729  0.00  0.00    +0.000 C 
ATOM     15  C   UNL     1       0.238   9.670  19.286  0.00  0.00    +0.000 C 
BRANCH   8  16
ATOM     16  C   UNL     1       1.540  11.561  20.039  0.00  0.00    +0.000 C 
BRANCH  16  17
ATOM     17  C   UNL     1       0.825  12.786  20.620  0.00  0.00    +0.000 C 
BRANCH  17  19
ATOM     18  C   UNL     1       1.565  14.797  21.621  0.00  0.00    +0.000 C 
ATOM     19  O   UNL     1       1.731  13.389  21.553  0.00  0.00    +0.000 OA
ENDBRANCH  17  19
ENDBRANCH  16  17
ENDBRANCH   8  16
ENDBRANCH   1  12
BRANCH   6  20
ATOM     20  C   UNL     1       3.905   3.191  16.985  0.00  0.00    +0.000 C 
BRANCH  20  21
ATOM     21  C   UNL     1       5.007   3.893  16.208  0.00  0.00    +0.000 A 
ATOM     22  C   UNL     1       5.932   4.768  16.790  0.00  0.00    +0.000 A 
ATOM     23  C   UNL     1       6.955   5.342  16.032  0.00  0.00    +0.000 A 
ATOM     24  C   UNL     1       7.080   5.043  14.677  0.00  0.00    +0.000 A 
ATOM     25  C   UNL     1       6.175   4.166  14.064  0.00  0.00    +0.000 A 
ATOM     26  C   UNL     1       5.132   3.616  14.833  0.00  0.00    +0.000 A 
BRANCH  25  27
ATOM     27  C   UNL     1       6.316   3.791  12.609  0.00  0.00    +0.000 C 
ATOM     28  F   UNL     1       5.161   3.904  11.895  0.00  0.00    +0.000 F 
ATOM     29  F   UNL     1       7.231   4.566  11.961  0.00  0.00    +0.000 F 
ATOM     30  F   UNL     1       6.736   2.506  12.438  0.00  0.00    +0.000 F 
ENDBRANCH  25  27
ENDBRANCH  20  21
ENDBRANCH   6  20
TORSDOF 7
ENDMDL
MODEL 9
REMARK VINA RESULT:      -6.0      3.918      7.904
REMARK  Name = 
REMARK  8 active torsions:
REMARK  status: ('A' for Active; 'I' for Inactive)
REMARK    1  A    between atoms: C_1  and  O_2
REMARK    2  A    between atoms: O_2  and  C_3
REMARK    3  A    between atoms: C_3  and  C_4
REMARK    4  A    between atoms: C_4  and  N_5
REMARK    5  A    between atoms: C_9  and  C_11
REMARK    6  A    between atoms: N_16  and  C_17
REMARK    7  A    between atoms: C_17  and  C_18
REMARK    8  A    between atoms: C_22  and  C_23
REMARK                            x       y       z     vdW  Elec       q    Type
REMARK                         _______ _______ _______ _____ _____    ______ ____
ROOT
ATOM      1  C   UNL     1       1.307   4.565  19.947  0.00  0.00    +0.000 C 
ATOM      2  C   UNL     1       1.528   3.729  21.218  0.00  0.00    +0.000 C 
ATOM      3  C   UNL     1       2.940   3.150  21.311  0.00  0.00    +0.000 C 
ATOM      4  C   UNL     1       3.544   2.631  20.016  0.00  0.00    +0.000 C 
ATOM      5  O   UNL     1       4.477   1.828  20.036  0.00  0.00    +0.000 OA
ATOM      6  N   UNL     1       3.081   3.219  18.850  0.00  0.00    +0.000 N 
ATOM      7  C   UNL     1       1.713   3.682  18.776  0.00  0.00    +0.000 C 
ENDROOT
BRANCH   1  12
ATOM      8  N   UNL     1      -0.065   9.522  21.114  0.00  0.00    +0.000 NA
ATOM      9  C   UNL     1       1.232   9.507  20.403  0.00  0.00    +0.000 C 
ATOM     10  C   UNL     1       2.136   8.280  20.667  0.00  0.00    +0.000 C 
ATOM     11  N   UNL     1       1.402   7.009  20.576  0.00  0.00    +0.000 N 
ATOM     12  C   UNL     1       2.034   5.916  20.008  0.00  0.00    +0.000 C 
ATOM     13  O   UNL     1       3.188   6.013  19.579  0.00  0.00    +0.000 OA
ATOM     14  C   UNL     1       0.146   7.009  21.329  0.00  0.00    +0.000 C 
ATOM     15  C   UNL     1      -0.727   8.208  20.905  0.00  0.00    +0.000 C 
BRANCH   8  16
ATOM     16  C   UNL     1       0.031   9.795  22.560  0.00  0.00    +0.000 C 
BRANCH  16  17
ATOM     17  C   UNL     1      -1.058  10.667  23.194  0.00  0.00    +0.000 C 
BRANCH  17  19
ATOM     18  C   UNL     1      -0.721  12.830  22.297  0.00  0.00    +0.000 C 
ATOM     19  O   UNL     1      -1.455  11.620  22.199  0.00  0.00    +0.000 OA
ENDBRANCH  17  19
ENDBRANCH  16  17
ENDBRANCH   8  16
ENDBRANCH   1  12
BRANCH   6  20
ATOM     20  C   UNL     1       3.784   2.975  17.590  0.00  0.00    +0.000 C 
BRANCH  20  21
ATOM     21  C   UNL     1       4.785   4.054  17.212  0.00  0.00    +0.000 A 
ATOM     22  C   UNL     1       4.716   4.797  16.027  0.00  0.00    +0.000 A 
ATOM     23  C   UNL     1       5.637   5.814  15.760  0.00  0.00    +0.000 A 
ATOM     24  C   UNL     1       6.640   6.113  16.678  0.00  0.00    +0.000 A 
ATOM     25  C   UNL     1       6.735   5.393  17.877  0.00  0.00    +0.000 A 
ATOM     26  C   UNL     1       5.817   4.354  18.121  0.00  0.00    +0.000 A 
BRANCH  25  27
ATOM     27  C   UNL     1       7.785   5.729  18.908  0.00  0.00    +0.000 C 
ATOM     28  F   UNL     1       7.308   5.784  20.183  0.00  0.00    +0.000 F 
ATOM     29  F   UNL     1       8.799   4.819  18.930  0.00  0.00    +0.000 F 
ATOM     30  F   UNL     1       8.376   6.935  18.679  0.00  0.00    +0.000 F 
ENDBRANCH  25  27
ENDBRANCH  20  21
ENDBRANCH   6  20
TORSDOF 7
ENDMDL
