MODEL 1
REMARK VINA RESULT:      -7.3      0.000      0.000
REMARK  Name = 
REMARK  7 active torsions:
REMARK  status: ('A' for Active; 'I' for Inactive)
REMARK    1  A    between atoms: C_1  and  N_2
REMARK    2  A    between atoms: N_2  and  C_3
REMARK    3  A    between atoms: N_6  and  C_7
REMARK    4  A    between atoms: C_9  and  C_10
REMARK    5  A    between atoms: C_9  and  C_11
REMARK    6  A    between atoms: C_13  and  C_14
REMARK    7  A    between atoms: C_13  and  C_15
REMARK                            x       y       z     vdW  Elec       q    Type
REMARK                         _______ _______ _______ _____ _____    ______ ____
ROOT
ATOM      1  C   UNL     1       2.511   3.301  18.744  0.00  0.00    +0.000 A 
ATOM      2  C   UNL     1       3.376   3.167  17.556  0.00  0.00    +0.000 A 
ATOM      3  N   UNL     1       4.020   4.112  16.964  0.00  0.00    +0.000 NA
ATOM      4  N   UNL     1       3.908   5.391  17.427  0.00  0.00    +0.000 N 
ATOM      5  C   UNL     1       3.165   5.698  18.573  0.00  0.00    +0.000 A 
ATOM      6  O   UNL     1       3.045   6.842  19.010  0.00  0.00    +0.000 OA
ATOM      7  C   UNL     1       2.487   4.548  19.239  0.00  0.00    +0.000 A 
ATOM      8 CL   UNL     1       1.566   4.885  20.666  0.00  0.00    +0.000 Cl
ENDROOT
BRANCH   4   9
ATOM      9  C   UNL     1       4.619   6.442  16.661  0.00  0.00    +0.000 C 
ATOM     10  C   UNL     1       5.703   7.189  17.460  0.00  0.00    +0.000 C 
ATOM     11  C   UNL     1       6.911   6.323  17.870  0.00  0.00    +0.000 C 
ATOM     12  C   UNL     1       6.629   5.652  19.248  0.00  0.00    +0.000 C 
ATOM     13  C   UNL     1       8.123   7.248  18.181  0.00  0.00    +0.000 C 
ATOM     14  C   UNL     1       7.355   5.328  16.721  0.00  0.00    +0.000 C 
ATOM     15  C   UNL     1       6.433   4.993  15.478  0.00  0.00    +0.000 C 
ATOM     16  C   UNL     1       5.953   3.513  15.409  0.00  0.00    +0.000 C 
ATOM     17  C   UNL     1       7.310   5.105  14.195  0.00  0.00    +0.000 C 
ATOM     18  C   UNL     1       5.231   5.950  15.337  0.00  0.00    +0.000 C 
ENDBRANCH   4   9
BRANCH   1  20
ATOM     19  C   UNL     1       0.458   1.980  18.934  0.00  0.00    +0.000 C 
ATOM     20  N   UNL     1       1.884   2.151  19.209  0.00  0.00    +0.000 N 
ATOM     21  H   UNL     1       2.017   2.096  20.222  0.00  0.00    +0.000 HD
ENDBRANCH   1  20
TORSDOF 2
ENDMDL
MODEL 2
REMARK VINA RESULT:      -7.3      2.375      5.374
REMARK  Name = 
REMARK  7 active torsions:
REMARK  status: ('A' for Active; 'I' for Inactive)
REMARK    1  A    between atoms: C_1  and  N_2
REMARK    2  A    between atoms: N_2  and  C_3
REMARK    3  A    between atoms: N_6  and  C_7
REMARK    4  A    between atoms: C_9  and  C_10
REMARK    5  A    between atoms: C_9  and  C_11
REMARK    6  A    between atoms: C_13  and  C_14
REMARK    7  A    between atoms: C_13  and  C_15
REMARK                            x       y       z     vdW  Elec       q    Type
REMARK                         _______ _______ _______ _____ _____    ______ ____
ROOT
ATOM      1  C   UNL     1       6.556   5.077  16.180  0.00  0.00    +0.000 A 
ATOM      2  C   UNL     1       5.502   4.046  16.178  0.00  0.00    +0.000 A 
ATOM      3  N   UNL     1       4.826   3.636  17.195  0.00  0.00    +0.000 NA
ATOM      4  N   UNL     1       5.090   4.157  18.429  0.00  0.00    +0.000 N 
ATOM      5  C   UNL     1       6.029   5.179  18.612  0.00  0.00    +0.000 A 
ATOM      6  O   UNL     1       6.289   5.664  19.712  0.00  0.00    +0.000 OA
ATOM      7  C   UNL     1       6.737   5.643  17.383  0.00  0.00    +0.000 A 
ATOM      8 CL   UNL     1       7.900   6.913  17.566  0.00  0.00    +0.000 Cl
ENDROOT
BRANCH   4   9
ATOM      9  C   UNL     1       4.328   3.593  19.567  0.00  0.00    +0.000 C 
ATOM     10  C   UNL     1       3.592   4.642  20.422  0.00  0.00    +0.000 C 
ATOM     11  C   UNL     1       2.445   5.373  19.695  0.00  0.00    +0.000 C 
ATOM     12  C   UNL     1       3.005   6.635  18.974  0.00  0.00    +0.000 C 
ATOM     13  C   UNL     1       1.477   5.984  20.750  0.00  0.00    +0.000 C 
ATOM     14  C   UNL     1       1.597   4.400  18.778  0.00  0.00    +0.000 C 
ATOM     15  C   UNL     1       2.107   2.961  18.359  0.00  0.00    +0.000 C 
ATOM     16  C   UNL     1       2.376   2.789  16.835  0.00  0.00    +0.000 C 
ATOM     17  C   UNL     1       0.938   1.958  18.593  0.00  0.00    +0.000 C 
ATOM     18  C   UNL     1       3.331   2.489  19.172  0.00  0.00    +0.000 C 
ENDBRANCH   4   9
BRANCH   1  20
ATOM     19  C   UNL     1       6.871   4.503  13.819  0.00  0.00    +0.000 C 
ATOM     20  N   UNL     1       7.181   5.353  14.968  0.00  0.00    +0.000 N 
ATOM     21  H   UNL     1       8.194   5.328  15.113  0.00  0.00    +0.000 HD
ENDBRANCH   1  20
TORSDOF 2
ENDMDL
MODEL 3
REMARK VINA RESULT:      -7.0      2.719      4.797
REMARK  Name = 
REMARK  7 active torsions:
REMARK  status: ('A' for Active; 'I' for Inactive)
REMARK    1  A    between atoms: C_1  and  N_2
REMARK    2  A    between atoms: N_2  and  C_3
REMARK    3  A    between atoms: N_6  and  C_7
REMARK    4  A    between atoms: C_9  and  C_10
REMARK    5  A    between atoms: C_9  and  C_11
REMARK    6  A    between atoms: C_13  and  C_14
REMARK    7  A    between atoms: C_13  and  C_15
REMARK                            x       y       z     vdW  Elec       q    Type
REMARK                         _______ _______ _______ _____ _____    ______ ____
ROOT
ATOM      1  C   UNL     1       1.845   8.995  18.390  0.00  0.00    +0.000 A 
ATOM      2  C   UNL     1       2.900   8.347  17.588  0.00  0.00    +0.000 A 
ATOM      3  N   UNL     1       3.532   7.264  17.882  0.00  0.00    +0.000 NA
ATOM      4  N   UNL     1       3.255   6.624  19.055  0.00  0.00    +0.000 N 
ATOM      5  C   UNL     1       2.251   7.072  19.920  0.00  0.00    +0.000 A 
ATOM      6  O   UNL     1       1.982   6.517  20.985  0.00  0.00    +0.000 OA
ATOM      7  C   UNL     1       1.522   8.302  19.493  0.00  0.00    +0.000 A 
ATOM      8 CL   UNL     1       0.264   8.884  20.532  0.00  0.00    +0.000 Cl
ENDROOT
BRANCH   4   9
ATOM      9  C   UNL     1       4.066   5.423  19.366  0.00  0.00    +0.000 C 
ATOM     10  C   UNL     1       3.290   4.095  19.292  0.00  0.00    +0.000 C 
ATOM     11  C   UNL     1       2.811   3.709  17.878  0.00  0.00    +0.000 C 
ATOM     12  C   UNL     1       1.403   4.324  17.618  0.00  0.00    +0.000 C 
ATOM     13  C   UNL     1       2.530   2.178  17.832  0.00  0.00    +0.000 C 
ATOM     14  C   UNL     1       3.895   4.027  16.768  0.00  0.00    +0.000 C 
ATOM     15  C   UNL     1       5.134   4.977  17.031  0.00  0.00    +0.000 C 
ATOM     16  C   UNL     1       5.128   6.293  16.198  0.00  0.00    +0.000 C 
ATOM     17  C   UNL     1       6.405   4.259  16.488  0.00  0.00    +0.000 C 
ATOM     18  C   UNL     1       5.349   5.295  18.527  0.00  0.00    +0.000 C 
ENDBRANCH   4   9
BRANCH   1  20
ATOM     19  C   UNL     1       1.752  11.441  18.495  0.00  0.00    +0.000 C 
ATOM     20  N   UNL     1       1.308  10.180  17.899  0.00  0.00    +0.000 N 
ATOM     21  H   UNL     1       0.290  10.135  17.984  0.00  0.00    +0.000 HD
ENDBRANCH   1  20
TORSDOF 2
ENDMDL
MODEL 4
REMARK VINA RESULT:      -5.9      1.101      1.171
REMARK  Name = 
REMARK  7 active torsions:
REMARK  status: ('A' for Active; 'I' for Inactive)
REMARK    1  A    between atoms: C_1  and  N_2
REMARK    2  A    between atoms: N_2  and  C_3
REMARK    3  A    between atoms: N_6  and  C_7
REMARK    4  A    between atoms: C_9  and  C_10
REMARK    5  A    between atoms: C_9  and  C_11
REMARK    6  A    between atoms: C_13  and  C_14
REMARK    7  A    between atoms: C_13  and  C_15
REMARK                            x       y       z     vdW  Elec       q    Type
REMARK                         _______ _______ _______ _____ _____    ______ ____
ROOT
ATOM      1  C   UNL     1       3.239   3.335  19.577  0.00  0.00    +0.000 A 
ATOM      2  C   UNL     1       4.555   3.433  18.917  0.00  0.00    +0.000 A 
ATOM      3  N   UNL     1       4.948   4.365  18.121  0.00  0.00    +0.000 NA
ATOM      4  N   UNL     1       4.090   5.378  17.800  0.00  0.00    +0.000 N 
ATOM      5  C   UNL     1       2.814   5.471  18.368  0.00  0.00    +0.000 A 
ATOM      6  O   UNL     1       2.020   6.370  18.095  0.00  0.00    +0.000 OA
ATOM      7  C   UNL     1       2.444   4.385  19.324  0.00  0.00    +0.000 A 
ATOM      8 CL   UNL     1       0.877   4.470  20.056  0.00  0.00    +0.000 Cl
ENDROOT
BRANCH   4   9
ATOM      9  C   UNL     1       4.579   6.381  16.825  0.00  0.00    +0.000 C 
ATOM     10  C   UNL     1       5.699   7.293  17.358  0.00  0.00    +0.000 C 
ATOM     11  C   UNL     1       7.029   6.572  17.656  0.00  0.00    +0.000 C 
ATOM     12  C   UNL     1       7.020   6.048  19.124  0.00  0.00    +0.000 C 
ATOM     13  C   UNL     1       8.185   7.613  17.672  0.00  0.00    +0.000 C 
ATOM     14  C   UNL     1       7.381   5.485  16.560  0.00  0.00    +0.000 C 
ATOM     15  C   UNL     1       6.317   4.940  15.523  0.00  0.00    +0.000 C 
ATOM     16  C   UNL     1       5.967   3.432  15.686  0.00  0.00    +0.000 C 
ATOM     17  C   UNL     1       6.976   4.966  14.111  0.00  0.00    +0.000 C 
ATOM     18  C   UNL     1       5.025   5.785  15.479  0.00  0.00    +0.000 C 
ENDBRANCH   4   9
BRANCH   1  20
ATOM     19  C   UNL     1       2.648   2.448  21.782  0.00  0.00    +0.000 C 
ATOM     20  N   UNL     1       3.011   2.225  20.383  0.00  0.00    +0.000 N 
ATOM     21  H   UNL     1       3.845   1.634  20.366  0.00  0.00    +0.000 HD
ENDBRANCH   1  20
TORSDOF 2
ENDMDL
MODEL 5
REMARK VINA RESULT:      -5.9      1.691      1.897
REMARK  Name = 
REMARK  7 active torsions:
REMARK  status: ('A' for Active; 'I' for Inactive)
REMARK    1  A    between atoms: C_1  and  N_2
REMARK    2  A    between atoms: N_2  and  C_3
REMARK    3  A    between atoms: N_6  and  C_7
REMARK    4  A    between atoms: C_9  and  C_10
REMARK    5  A    between atoms: C_9  and  C_11
REMARK    6  A    between atoms: C_13  and  C_14
REMARK    7  A    between atoms: C_13  and  C_15
REMARK                            x       y       z     vdW  Elec       q    Type
REMARK                         _______ _______ _______ _____ _____    ______ ____
ROOT
ATOM      1  C   UNL     1       3.216   3.341  19.898  0.00  0.00    +0.000 A 
ATOM      2  C   UNL     1       3.955   4.594  20.139  0.00  0.00    +0.000 A 
ATOM      3  N   UNL     1       4.305   5.462  19.254  0.00  0.00    +0.000 NA
ATOM      4  N   UNL     1       4.008   5.236  17.940  0.00  0.00    +0.000 N 
ATOM      5  C   UNL     1       3.271   4.118  17.533  0.00  0.00    +0.000 A 
ATOM      6  O   UNL     1       2.993   3.888  16.357  0.00  0.00    +0.000 OA
ATOM      7  C   UNL     1       2.853   3.181  18.617  0.00  0.00    +0.000 A 
ATOM      8 CL   UNL     1       1.931   1.790  18.154  0.00  0.00    +0.000 Cl
ENDROOT
BRANCH   4   9
ATOM      9  C   UNL     1       4.499   6.238  16.965  0.00  0.00    +0.000 C 
ATOM     10  C   UNL     1       5.609   7.160  17.504  0.00  0.00    +0.000 C 
ATOM     11  C   UNL     1       6.940   6.449  17.818  0.00  0.00    +0.000 C 
ATOM     12  C   UNL     1       6.921   5.931  19.288  0.00  0.00    +0.000 C 
ATOM     13  C   UNL     1       8.089   7.498  17.840  0.00  0.00    +0.000 C 
ATOM     14  C   UNL     1       7.310   5.360  16.731  0.00  0.00    +0.000 C 
ATOM     15  C   UNL     1       6.259   4.804  15.685  0.00  0.00    +0.000 C 
ATOM     16  C   UNL     1       5.918   3.293  15.853  0.00  0.00    +0.000 C 
ATOM     17  C   UNL     1       6.930   4.827  14.280  0.00  0.00    +0.000 C 
ATOM     18  C   UNL     1       4.962   5.639  15.625  0.00  0.00    +0.000 C 
ENDBRANCH   4   9
BRANCH   1  20
ATOM     19  C   UNL     1       1.715   2.731  21.735  0.00  0.00    +0.000 C 
ATOM     20  N   UNL     1       2.962   2.529  20.998  0.00  0.00    +0.000 N 
ATOM     21  H   UNL     1       3.736   2.627  21.660  0.00  0.00    +0.000 HD
ENDBRANCH   1  20
TORSDOF 2
ENDMDL
MODEL 6
REMARK VINA RESULT:      -5.9      2.660      5.268
REMARK  Name = 
REMARK  7 active torsions:
REMARK  status: ('A' for Active; 'I' for Inactive)
REMARK    1  A    between atoms: C_1  and  N_2
REMARK    2  A    between atoms: N_2  and  C_3
REMARK    3  A    between atoms: N_6  and  C_7
REMARK    4  A    between atoms: C_9  and  C_10
REMARK    5  A    between atoms: C_9  and  C_11
REMARK    6  A    between atoms: C_13  and  C_14
REMARK    7  A    between atoms: C_13  and  C_15
REMARK                            x       y       z     vdW  Elec       q    Type
REMARK                         _______ _______ _______ _____ _____    ______ ____
ROOT
ATOM      1  C   UNL     1       6.101   3.898  15.098  0.00  0.00    +0.000 A 
ATOM      2  C   UNL     1       5.043   3.127  15.777  0.00  0.00    +0.000 A 
ATOM      3  N   UNL     1       4.650   3.269  16.995  0.00  0.00    +0.000 NA
ATOM      4  N   UNL     1       5.258   4.196  17.792  0.00  0.00    +0.000 N 
ATOM      5  C   UNL     1       6.254   5.049  17.302  0.00  0.00    +0.000 A 
ATOM      6  O   UNL     1       6.820   5.891  17.998  0.00  0.00    +0.000 OA
ATOM      7  C   UNL     1       6.623   4.866  15.867  0.00  0.00    +0.000 A 
ATOM      8 CL   UNL     1       7.844   5.909  15.221  0.00  0.00    +0.000 Cl
ENDROOT
BRANCH   4   9
ATOM      9  C   UNL     1       4.808   4.260  19.202  0.00  0.00    +0.000 C 
ATOM     10  C   UNL     1       4.259   5.634  19.632  0.00  0.00    +0.000 C 
ATOM     11  C   UNL     1       2.947   6.049  18.935  0.00  0.00    +0.000 C 
ATOM     12  C   UNL     1       3.276   6.808  17.614  0.00  0.00    +0.000 C 
ATOM     13  C   UNL     1       2.236   7.139  19.788  0.00  0.00    +0.000 C 
ATOM     14  C   UNL     1       1.941   4.836  18.776  0.00  0.00    +0.000 C 
ATOM     15  C   UNL     1       2.388   3.327  18.950  0.00  0.00    +0.000 C 
ATOM     16  C   UNL     1       2.294   2.472  17.652  0.00  0.00    +0.000 C 
ATOM     17  C   UNL     1       1.344   2.628  19.871  0.00  0.00    +0.000 C 
ATOM     18  C   UNL     1       3.786   3.177  19.587  0.00  0.00    +0.000 C 
ENDBRANCH   4   9
BRANCH   1  20
ATOM     19  C   UNL     1       5.300   3.604  12.803  0.00  0.00    +0.000 C 
ATOM     20  N   UNL     1       6.388   3.564  13.779  0.00  0.00    +0.000 N 
ATOM     21  H   UNL     1       6.790   2.624  13.762  0.00  0.00    +0.000 HD
ENDBRANCH   1  20
TORSDOF 2
ENDMDL
MODEL 7
REMARK VINA RESULT:      -5.8      1.192      1.283
REMARK  Name = 
REMARK  7 active torsions:
REMARK  status: ('A' for Active; 'I' for Inactive)
REMARK    1  A    between atoms: C_1  and  N_2
REMARK    2  A    between atoms: N_2  and  C_3
REMARK    3  A    between atoms: N_6  and  C_7
REMARK    4  A    between atoms: C_9  and  C_10
REMARK    5  A    between atoms: C_9  and  C_11
REMARK    6  A    between atoms: C_13  and  C_14
REMARK    7  A    between atoms: C_13  and  C_15
REMARK                            x       y       z     vdW  Elec       q    Type
REMARK                         _______ _______ _______ _____ _____    ______ ____
ROOT
ATOM      1  C   UNL     1       1.659   4.543  19.515  0.00  0.00    +0.000 A 
ATOM      2  C   UNL     1       2.442   3.958  18.410  0.00  0.00    +0.000 A 
ATOM      3  N   UNL     1       3.297   4.570  17.666  0.00  0.00    +0.000 NA
ATOM      4  N   UNL     1       3.520   5.902  17.859  0.00  0.00    +0.000 N 
ATOM      5  C   UNL     1       2.898   6.612  18.892  0.00  0.00    +0.000 A 
ATOM      6  O   UNL     1       3.079   7.813  19.088  0.00  0.00    +0.000 OA
ATOM      7  C   UNL     1       1.961   5.829  19.750  0.00  0.00    +0.000 A 
ATOM      8 CL   UNL     1       1.177   6.669  21.046  0.00  0.00    +0.000 Cl
ENDROOT
BRANCH   4   9
ATOM      9  C   UNL     1       4.463   6.562  16.924  0.00  0.00    +0.000 C 
ATOM     10  C   UNL     1       5.758   7.073  17.582  0.00  0.00    +0.000 C 
ATOM     11  C   UNL     1       6.684   5.965  18.125  0.00  0.00    +0.000 C 
ATOM     12  C   UNL     1       6.295   5.633  19.596  0.00  0.00    +0.000 C 
ATOM     13  C   UNL     1       8.127   6.529  18.271  0.00  0.00    +0.000 C 
ATOM     14  C   UNL     1       6.758   4.716  17.155  0.00  0.00    +0.000 C 
ATOM     15  C   UNL     1       5.713   4.475  15.990  0.00  0.00    +0.000 C 
ATOM     16  C   UNL     1       4.821   3.211  16.171  0.00  0.00    +0.000 C 
ATOM     17  C   UNL     1       6.514   4.120  14.702  0.00  0.00    +0.000 C 
ATOM     18  C   UNL     1       4.833   5.710  15.698  0.00  0.00    +0.000 C 
ENDBRANCH   4   9
BRANCH   1  20
ATOM     19  C   UNL     1       1.294   2.806  21.203  0.00  0.00    +0.000 C 
ATOM     20  N   UNL     1       0.768   3.706  20.177  0.00  0.00    +0.000 N 
ATOM     21  H   UNL     1       0.278   3.138  19.482  0.00  0.00    +0.000 HD
ENDBRANCH   1  20
TORSDOF 2
ENDMDL
MODEL 8
REMARK VINA RESULT:      -5.8      3.069      5.324
REMARK  Name = 
REMARK  7 active torsions:
REMARK  status: ('A' for Active; 'I' for Inactive)
REMARK    1  A    between atoms: C_1  and  N_2
REMARK    2  A    between atoms: N_2  and  C_3
REMARK    3  A    between atoms: N_6  and  C_7
REMARK    4  A    between atoms: C_9  and  C_10
REMARK    5  A    between atoms: C_9  and  C_11
REMARK    6  A    between atoms: C_13  and  C_14
REMARK    7  A    between atoms: C_13  and  C_15
REMARK                            x       y       z     vdW  Elec       q    Type
REMARK                         _______ _______ _______ _____ _____    ______ ____
ROOT
ATOM      1  C   UNL     1       6.305   3.824  14.013  0.00  0.00    +0.000 A 
ATOM      2  C   UNL     1       5.350   3.253  14.981  0.00  0.00    +0.000 A 
ATOM      3  N   UNL     1       5.165   3.638  16.196  0.00  0.00    +0.000 NA
ATOM      4  N   UNL     1       5.921   4.657  16.698  0.00  0.00    +0.000 N 
ATOM      5  C   UNL     1       6.847   5.347  15.908  0.00  0.00    +0.000 A 
ATOM      6  O   UNL     1       7.543   6.267  16.335  0.00  0.00    +0.000 OA
ATOM      7  C   UNL     1       6.972   4.884  14.494  0.00  0.00    +0.000 A 
ATOM      8 CL   UNL     1       8.101   5.718  13.480  0.00  0.00    +0.000 Cl
ENDROOT
BRANCH   4   9
ATOM      9  C   UNL     1       5.708   5.005  18.123  0.00  0.00    +0.000 C 
ATOM     10  C   UNL     1       5.133   6.415  18.355  0.00  0.00    +0.000 C 
ATOM     11  C   UNL     1       3.696   6.617  17.835  0.00  0.00    +0.000 C 
ATOM     12  C   UNL     1       3.740   7.088  16.350  0.00  0.00    +0.000 C 
ATOM     13  C   UNL     1       3.055   7.835  18.561  0.00  0.00    +0.000 C 
ATOM     14  C   UNL     1       2.775   5.359  18.110  0.00  0.00    +0.000 C 
ATOM     15  C   UNL     1       3.359   3.942  18.505  0.00  0.00    +0.000 C 
ATOM     16  C   UNL     1       3.117   2.825  17.447  0.00  0.00    +0.000 C 
ATOM     17  C   UNL     1       2.541   3.415  19.721  0.00  0.00    +0.000 C 
ATOM     18  C   UNL     1       4.851   3.988  18.898  0.00  0.00    +0.000 C 
ENDBRANCH   4   9
BRANCH   1  20
ATOM     19  C   UNL     1       5.143   3.210  11.945  0.00  0.00    +0.000 C 
ATOM     20  N   UNL     1       6.363   3.239  12.752  0.00  0.00    +0.000 N 
ATOM     21  H   UNL     1       6.693   2.277  12.857  0.00  0.00    +0.000 HD
ENDBRANCH   1  20
TORSDOF 2
ENDMDL
MODEL 9
REMARK VINA RESULT:      -5.8      2.831      4.325
REMARK  Name = 
REMARK  7 active torsions:
REMARK  status: ('A' for Active; 'I' for Inactive)
REMARK    1  A    between atoms: C_1  and  N_2
REMARK    2  A    between atoms: N_2  and  C_3
REMARK    3  A    between atoms: N_6  and  C_7
REMARK    4  A    between atoms: C_9  and  C_10
REMARK    5  A    between atoms: C_9  and  C_11
REMARK    6  A    between atoms: C_13  and  C_14
REMARK    7  A    between atoms: C_13  and  C_15
REMARK                            x       y       z     vdW  Elec       q    Type
REMARK                         _______ _______ _______ _____ _____    ______ ____
ROOT
ATOM      1  C   UNL     1       1.624   7.792  20.503  0.00  0.00    +0.000 A 
ATOM      2  C   UNL     1       1.875   6.342  20.592  0.00  0.00    +0.000 A 
ATOM      3  N   UNL     1       2.314   5.579  19.652  0.00  0.00    +0.000 NA
ATOM      4  N   UNL     1       2.565   6.110  18.420  0.00  0.00    +0.000 N 
ATOM      5  C   UNL     1       2.426   7.479  18.165  0.00  0.00    +0.000 A 
ATOM      6  O   UNL     1       2.642   7.984  17.065  0.00  0.00    +0.000 OA
ATOM      7  C   UNL     1       1.964   8.313  19.314  0.00  0.00    +0.000 A 
ATOM      8 CL   UNL     1       1.788  10.014  19.043  0.00  0.00    +0.000 Cl
ENDROOT
BRANCH   4   9
ATOM      9  C   UNL     1       3.001   5.166  17.364  0.00  0.00    +0.000 C 
ATOM     10  C   UNL     1       4.499   5.250  17.014  0.00  0.00    +0.000 C 
ATOM     11  C   UNL     1       5.448   4.809  18.146  0.00  0.00    +0.000 C 
ATOM     12  C   UNL     1       5.787   6.033  19.050  0.00  0.00    +0.000 C 
ATOM     13  C   UNL     1       6.833   4.439  17.539  0.00  0.00    +0.000 C 
ATOM     14  C   UNL     1       4.911   3.536  18.919  0.00  0.00    +0.000 C 
ATOM     15  C   UNL     1       3.414   3.033  18.802  0.00  0.00    +0.000 C 
ATOM     16  C   UNL     1       2.595   3.130  20.122  0.00  0.00    +0.000 C 
ATOM     17  C   UNL     1       3.450   1.495  18.559  0.00  0.00    +0.000 C 
ATOM     18  C   UNL     1       2.640   3.697  17.644  0.00  0.00    +0.000 C 
ENDBRANCH   4   9
BRANCH   1  20
ATOM     19  C   UNL     1      -0.316   8.681  21.706  0.00  0.00    +0.000 C 
ATOM     20  N   UNL     1       1.122   8.424  21.636  0.00  0.00    +0.000 N 
ATOM     21  H   UNL     1       1.607   9.317  21.750  0.00  0.00    +0.000 HD
ENDBRANCH   1  20
TORSDOF 2
ENDMDL
