MODEL 1
REMARK VINA RESULT:      -6.8      0.000      0.000
REMARK  Name = 
REMARK  9 active torsions:
REMARK  status: ('A' for Active; 'I' for Inactive)
REMARK    1  A    between atoms: C_1  and  C_2
REMARK    2  A    between atoms: C_2  and  O_3
REMARK    3  A    between atoms: O_3  and  C_4
REMARK    4  A    between atoms: C_9  and  O_10
REMARK    5  A    between atoms: O_10  and  C_11
REMARK    6  A    between atoms: C_11  and  C_12
REMARK    7  A    between atoms: C_11  and  C_13
REMARK    8  A    between atoms: C_11  and  C_14
REMARK    9  A    between atoms: C_14  and  O_16
REMARK                            x       y       z     vdW  Elec       q    Type
REMARK                         _______ _______ _______ _____ _____    ______ ____
ROOT
ATOM      1  C   UNL     1       0.951  10.190  18.907  0.00  0.00    +0.000 A 
ATOM      2  C   UNL     1       1.803   9.526  18.104  0.00  0.00    +0.000 A 
ATOM      3  C   UNL     1       2.332   8.227  18.465  0.00  0.00    +0.000 A 
ATOM      4  C   UNL     1       3.175   7.507  17.618  0.00  0.00    +0.000 A 
ATOM      5  C   UNL     1       3.651   6.253  18.012  0.00  0.00    +0.000 A 
ATOM      6  C   UNL     1       3.288   5.704  19.247  0.00  0.00    +0.000 A 
ATOM      7  C   UNL     1       2.483   6.450  20.108  0.00  0.00    +0.000 A 
ATOM      8  C   UNL     1       1.999   7.688  19.695  0.00  0.00    +0.000 A 
ATOM      9  O   UNL     1       1.124   8.364  20.562  0.00  0.00    +0.000 OA
ATOM     10  C   UNL     1       0.524   9.571  20.209  0.00  0.00    +0.000 A 
ATOM     11  O   UNL     1      -0.309  10.096  20.940  0.00  0.00    +0.000 OA
ENDROOT
BRANCH   1  12
ATOM     12  O   UNL     1       0.422  11.443  18.628  0.00  0.00    +0.000 OA
BRANCH  12  14
ATOM     13  C   UNL     1       2.021  13.164  18.139  0.00  0.00    +0.000 C 
ATOM     14  C   UNL     1       1.105  12.563  19.185  0.00  0.00    +0.000 C 
ENDBRANCH  12  14
ENDBRANCH   1  12
BRANCH   6  15
ATOM     15  O   UNL     1       3.785   4.457  19.487  0.00  0.00    +0.000 OA
BRANCH  15  16
ATOM     16  C   UNL     1       2.922   3.299  19.521  0.00  0.00    +0.000 C 
ATOM     17  C   UNL     1       2.460   2.995  20.948  0.00  0.00    +0.000 C 
ATOM     18  C   UNL     1       1.803   3.327  18.468  0.00  0.00    +0.000 C 
BRANCH  16  19
ATOM     19  C   UNL     1       3.828   2.111  19.119  0.00  0.00    +0.000 C 
ATOM     20  O   UNL     1       3.563   1.302  18.240  0.00  0.00    +0.000 OA
BRANCH  19  21
ATOM     21  O   UNL     1       4.975   2.034  19.842  0.00  0.00    +0.000 OA
ATOM     22  H   UNL     1       5.435   1.195  19.624  0.00  0.00    +0.000 HD
ENDBRANCH  19  21
ENDBRANCH  16  19
ENDBRANCH  15  16
ENDBRANCH   6  15
TORSDOF 6
ENDMDL
MODEL 2
REMARK VINA RESULT:      -6.6      2.599      3.942
REMARK  Name = 
REMARK  9 active torsions:
REMARK  status: ('A' for Active; 'I' for Inactive)
REMARK    1  A    between atoms: C_1  and  C_2
REMARK    2  A    between atoms: C_2  and  O_3
REMARK    3  A    between atoms: O_3  and  C_4
REMARK    4  A    between atoms: C_9  and  O_10
REMARK    5  A    between atoms: O_10  and  C_11
REMARK    6  A    between atoms: C_11  and  C_12
REMARK    7  A    between atoms: C_11  and  C_13
REMARK    8  A    between atoms: C_11  and  C_14
REMARK    9  A    between atoms: C_14  and  O_16
REMARK                            x       y       z     vdW  Elec       q    Type
REMARK                         _______ _______ _______ _____ _____    ______ ____
ROOT
ATOM      1  C   UNL     1       0.575   8.384  20.816  0.00  0.00    +0.000 A 
ATOM      2  C   UNL     1       1.195   7.199  20.959  0.00  0.00    +0.000 A 
ATOM      3  C   UNL     1       2.226   6.765  20.039  0.00  0.00    +0.000 A 
ATOM      4  C   UNL     1       2.912   5.562  20.207  0.00  0.00    +0.000 A 
ATOM      5  C   UNL     1       3.905   5.194  19.293  0.00  0.00    +0.000 A 
ATOM      6  C   UNL     1       4.225   6.021  18.211  0.00  0.00    +0.000 A 
ATOM      7  C   UNL     1       3.503   7.199  18.024  0.00  0.00    +0.000 A 
ATOM      8  C   UNL     1       2.532   7.564  18.952  0.00  0.00    +0.000 A 
ATOM      9  O   UNL     1       1.890   8.800  18.766  0.00  0.00    +0.000 OA
ATOM     10  C   UNL     1       0.960   9.292  19.682  0.00  0.00    +0.000 A 
ATOM     11  O   UNL     1       0.484  10.414  19.550  0.00  0.00    +0.000 OA
ENDROOT
BRANCH   1  12
ATOM     12  O   UNL     1      -0.431   8.851  21.651  0.00  0.00    +0.000 OA
BRANCH  12  14
ATOM     13  C   UNL     1      -0.882  10.698  23.114  0.00  0.00    +0.000 C 
ATOM     14  C   UNL     1      -0.017   9.482  22.860  0.00  0.00    +0.000 C 
ENDBRANCH  12  14
ENDBRANCH   1  12
BRANCH   6  15
ATOM     15  O   UNL     1       5.241   5.565  17.424  0.00  0.00    +0.000 OA
BRANCH  15  16
ATOM     16  C   UNL     1       6.624   5.813  17.764  0.00  0.00    +0.000 C 
ATOM     17  C   UNL     1       7.080   7.183  17.259  0.00  0.00    +0.000 C 
ATOM     18  C   UNL     1       6.964   5.515  19.233  0.00  0.00    +0.000 C 
BRANCH  16  19
ATOM     19  C   UNL     1       7.430   4.780  16.942  0.00  0.00    +0.000 C 
ATOM     20  O   UNL     1       7.335   4.628  15.732  0.00  0.00    +0.000 OA
BRANCH  19  21
ATOM     21  O   UNL     1       8.277   4.030  17.695  0.00  0.00    +0.000 OA
ATOM     22  H   UNL     1       8.437   4.488  18.548  0.00  0.00    +0.000 HD
ENDBRANCH  19  21
ENDBRANCH  16  19
ENDBRANCH  15  16
ENDBRANCH   6  15
TORSDOF 6
ENDMDL
MODEL 3
REMARK VINA RESULT:      -6.6      1.126      1.156
REMARK  Name = 
REMARK  9 active torsions:
REMARK  status: ('A' for Active; 'I' for Inactive)
REMARK    1  A    between atoms: C_1  and  C_2
REMARK    2  A    between atoms: C_2  and  O_3
REMARK    3  A    between atoms: O_3  and  C_4
REMARK    4  A    between atoms: C_9  and  O_10
REMARK    5  A    between atoms: O_10  and  C_11
REMARK    6  A    between atoms: C_11  and  C_12
REMARK    7  A    between atoms: C_11  and  C_13
REMARK    8  A    between atoms: C_11  and  C_14
REMARK    9  A    between atoms: C_14  and  O_16
REMARK                            x       y       z     vdW  Elec       q    Type
REMARK                         _______ _______ _______ _____ _____    ______ ____
ROOT
ATOM      1  C   UNL     1       0.542   9.992  19.811  0.00  0.00    +0.000 A 
ATOM      2  C   UNL     1       1.323   9.464  18.850  0.00  0.00    +0.000 A 
ATOM      3  C   UNL     1       1.955   8.171  19.010  0.00  0.00    +0.000 A 
ATOM      4  C   UNL     1       2.724   7.592  18.001  0.00  0.00    +0.000 A 
ATOM      5  C   UNL     1       3.306   6.336  18.203  0.00  0.00    +0.000 A 
ATOM      6  C   UNL     1       3.122   5.647  19.407  0.00  0.00    +0.000 A 
ATOM      7  C   UNL     1       2.392   6.254  20.429  0.00  0.00    +0.000 A 
ATOM      8  C   UNL     1       1.800   7.494  20.206  0.00  0.00    +0.000 A 
ATOM      9  O   UNL     1       1.004   8.026  21.234  0.00  0.00    +0.000 OA
ATOM     10  C   UNL     1       0.306   9.224  21.081  0.00  0.00    +0.000 A 
ATOM     11  O   UNL     1      -0.457   9.621  21.954  0.00  0.00    +0.000 OA
ENDROOT
BRANCH   1  12
ATOM     12  O   UNL     1      -0.077  11.231  19.728  0.00  0.00    +0.000 OA
BRANCH  12  14
ATOM     13  C   UNL     1      -1.385  12.250  17.993  0.00  0.00    +0.000 C 
ATOM     14  C   UNL     1      -1.375  11.259  19.138  0.00  0.00    +0.000 C 
ENDBRANCH  12  14
ENDBRANCH   1  12
BRANCH   6  15
ATOM     15  O   UNL     1       3.706   4.416  19.456  0.00  0.00    +0.000 OA
BRANCH  15  16
ATOM     16  C   UNL     1       2.914   3.214  19.590  0.00  0.00    +0.000 C 
ATOM     17  C   UNL     1       2.626   2.903  21.060  0.00  0.00    +0.000 C 
ATOM     18  C   UNL     1       1.688   3.174  18.665  0.00  0.00    +0.000 C 
BRANCH  16  19
ATOM     19  C   UNL     1       3.832   2.071  19.097  0.00  0.00    +0.000 C 
ATOM     20  O   UNL     1       3.578   1.334  18.154  0.00  0.00    +0.000 OA
BRANCH  19  21
ATOM     21  O   UNL     1       4.976   1.945  19.818  0.00  0.00    +0.000 OA
ATOM     22  H   UNL     1       4.847   2.360  20.699  0.00  0.00    +0.000 HD
ENDBRANCH  19  21
ENDBRANCH  16  19
ENDBRANCH  15  16
ENDBRANCH   6  15
TORSDOF 6
ENDMDL
MODEL 4
REMARK VINA RESULT:      -6.6      2.304      3.774
REMARK  Name = 
REMARK  9 active torsions:
REMARK  status: ('A' for Active; 'I' for Inactive)
REMARK    1  A    between atoms: C_1  and  C_2
REMARK    2  A    between atoms: C_2  and  O_3
REMARK    3  A    between atoms: O_3  and  C_4
REMARK    4  A    between atoms: C_9  and  O_10
REMARK    5  A    between atoms: O_10  and  C_11
REMARK    6  A    between atoms: C_11  and  C_12
REMARK    7  A    between atoms: C_11  and  C_13
REMARK    8  A    between atoms: C_11  and  C_14
REMARK    9  A    between atoms: C_14  and  O_16
REMARK                            x       y       z     vdW  Elec       q    Type
REMARK                         _______ _______ _______ _____ _____    ______ ____
ROOT
ATOM      1  C   UNL     1       0.896   9.300  20.195  0.00  0.00    +0.000 A 
ATOM      2  C   UNL     1       1.359   8.089  20.554  0.00  0.00    +0.000 A 
ATOM      3  C   UNL     1       2.214   7.313  19.680  0.00  0.00    +0.000 A 
ATOM      4  C   UNL     1       2.742   6.080  20.062  0.00  0.00    +0.000 A 
ATOM      5  C   UNL     1       3.570   5.375  19.183  0.00  0.00    +0.000 A 
ATOM      6  C   UNL     1       3.882   5.893  17.921  0.00  0.00    +0.000 A 
ATOM      7  C   UNL     1       3.312   7.103  17.528  0.00  0.00    +0.000 A 
ATOM      8  C   UNL     1       2.507   7.806  18.421  0.00  0.00    +0.000 A 
ATOM      9  O   UNL     1       2.025   9.059  18.010  0.00  0.00    +0.000 OA
ATOM     10  C   UNL     1       1.277   9.875  18.859  0.00  0.00    +0.000 A 
ATOM     11  O   UNL     1       0.947  11.004  18.515  0.00  0.00    +0.000 OA
ENDROOT
BRANCH   1  12
ATOM     12  O   UNL     1       0.060  10.086  20.977  0.00  0.00    +0.000 OA
BRANCH  12  14
ATOM     13  C   UNL     1      -1.044  10.642  23.034  0.00  0.00    +0.000 C 
ATOM     14  C   UNL     1      -0.016   9.755  22.361  0.00  0.00    +0.000 C 
ENDBRANCH  12  14
ENDBRANCH   1  12
BRANCH   6  15
ATOM     15  O   UNL     1       4.733   5.126  17.182  0.00  0.00    +0.000 OA
BRANCH  15  16
ATOM     16  C   UNL     1       6.064   5.585  16.854  0.00  0.00    +0.000 C 
ATOM     17  C   UNL     1       6.418   5.260  15.401  0.00  0.00    +0.000 C 
ATOM     18  C   UNL     1       6.343   7.034  17.282  0.00  0.00    +0.000 C 
BRANCH  16  19
ATOM     19  C   UNL     1       7.012   4.717  17.715  0.00  0.00    +0.000 C 
ATOM     20  O   UNL     1       6.902   4.559  18.923  0.00  0.00    +0.000 OA
BRANCH  19  21
ATOM     21  O   UNL     1       8.006   4.129  17.001  0.00  0.00    +0.000 OA
ATOM     22  H   UNL     1       8.212   4.686  16.219  0.00  0.00    +0.000 HD
ENDBRANCH  19  21
ENDBRANCH  16  19
ENDBRANCH  15  16
ENDBRANCH   6  15
TORSDOF 6
ENDMDL
MODEL 5
REMARK VINA RESULT:      -6.5      1.731      2.320
REMARK  Name = 
REMARK  9 active torsions:
REMARK  status: ('A' for Active; 'I' for Inactive)
REMARK    1  A    between atoms: C_1  and  C_2
REMARK    2  A    between atoms: C_2  and  O_3
REMARK    3  A    between atoms: O_3  and  C_4
REMARK    4  A    between atoms: C_9  and  O_10
REMARK    5  A    between atoms: O_10  and  C_11
REMARK    6  A    between atoms: C_11  and  C_12
REMARK    7  A    between atoms: C_11  and  C_13
REMARK    8  A    between atoms: C_11  and  C_14
REMARK    9  A    between atoms: C_14  and  O_16
REMARK                            x       y       z     vdW  Elec       q    Type
REMARK                         _______ _______ _______ _____ _____    ______ ____
ROOT
ATOM      1  C   UNL     1      -0.108   9.996  20.597  0.00  0.00    +0.000 A 
ATOM      2  C   UNL     1       0.585   9.962  19.445  0.00  0.00    +0.000 A 
ATOM      3  C   UNL     1       1.494   8.876  19.136  0.00  0.00    +0.000 A 
ATOM      4  C   UNL     1       2.179   8.804  17.923  0.00  0.00    +0.000 A 
ATOM      5  C   UNL     1       3.037   7.729  17.673  0.00  0.00    +0.000 A 
ATOM      6  C   UNL     1       3.217   6.718  18.623  0.00  0.00    +0.000 A 
ATOM      7  C   UNL     1       2.565   6.822  19.852  0.00  0.00    +0.000 A 
ATOM      8  C   UNL     1       1.696   7.886  20.080  0.00  0.00    +0.000 A 
ATOM      9  O   UNL     1       0.999   7.902  21.300  0.00  0.00    +0.000 OA
ATOM     10  C   UNL     1       0.049   8.880  21.592  0.00  0.00    +0.000 A 
ATOM     11  O   UNL     1      -0.616   8.821  22.620  0.00  0.00    +0.000 OA
ENDROOT
BRANCH   1  12
ATOM     12  O   UNL     1      -0.980  11.014  20.960  0.00  0.00    +0.000 OA
BRANCH  12  14
ATOM     13  C   UNL     1      -1.247  12.465  22.852  0.00  0.00    +0.000 C 
ATOM     14  C   UNL     1      -0.410  12.133  21.635  0.00  0.00    +0.000 C 
ENDBRANCH  12  14
ENDBRANCH   1  12
BRANCH   6  15
ATOM     15  O   UNL     1       4.046   5.708  18.234  0.00  0.00    +0.000 OA
BRANCH  15  16
ATOM     16  C   UNL     1       3.529   4.403  17.890  0.00  0.00    +0.000 C 
ATOM     17  C   UNL     1       2.002   4.422  17.790  0.00  0.00    +0.000 C 
ATOM     18  C   UNL     1       4.250   3.743  16.705  0.00  0.00    +0.000 C 
BRANCH  16  19
ATOM     19  C   UNL     1       3.852   3.509  19.111  0.00  0.00    +0.000 C 
ATOM     20  O   UNL     1       3.033   3.155  19.949  0.00  0.00    +0.000 OA
BRANCH  19  21
ATOM     21  O   UNL     1       5.156   3.139  19.183  0.00  0.00    +0.000 OA
ATOM     22  H   UNL     1       5.414   3.055  20.126  0.00  0.00    +0.000 HD
ENDBRANCH  19  21
ENDBRANCH  16  19
ENDBRANCH  15  16
ENDBRANCH   6  15
TORSDOF 6
ENDMDL
MODEL 6
REMARK VINA RESULT:      -6.5      1.196      1.462
REMARK  Name = 
REMARK  9 active torsions:
REMARK  status: ('A' for Active; 'I' for Inactive)
REMARK    1  A    between atoms: C_1  and  C_2
REMARK    2  A    between atoms: C_2  and  O_3
REMARK    3  A    between atoms: O_3  and  C_4
REMARK    4  A    between atoms: C_9  and  O_10
REMARK    5  A    between atoms: O_10  and  C_11
REMARK    6  A    between atoms: C_11  and  C_12
REMARK    7  A    between atoms: C_11  and  C_13
REMARK    8  A    between atoms: C_11  and  C_14
REMARK    9  A    between atoms: C_14  and  O_16
REMARK                            x       y       z     vdW  Elec       q    Type
REMARK                         _______ _______ _______ _____ _____    ______ ____
ROOT
ATOM      1  C   UNL     1       0.385  10.090  19.804  0.00  0.00    +0.000 A 
ATOM      2  C   UNL     1       1.195   9.737  18.789  0.00  0.00    +0.000 A 
ATOM      3  C   UNL     1       1.942   8.496  18.808  0.00  0.00    +0.000 A 
ATOM      4  C   UNL     1       2.744   8.096  17.739  0.00  0.00    +0.000 A 
ATOM      5  C   UNL     1       3.437   6.883  17.806  0.00  0.00    +0.000 A 
ATOM      6  C   UNL     1       3.332   6.058  18.932  0.00  0.00    +0.000 A 
ATOM      7  C   UNL     1       2.566   6.488  20.015  0.00  0.00    +0.000 A 
ATOM      8  C   UNL     1       1.864   7.687  19.927  0.00  0.00    +0.000 A 
ATOM      9  O   UNL     1       1.040   8.035  21.010  0.00  0.00    +0.000 OA
ATOM     10  C   UNL     1       0.237   9.175  20.987  0.00  0.00    +0.000 A 
ATOM     11  O   UNL     1      -0.546   9.409  21.901  0.00  0.00    +0.000 OA
ENDROOT
BRANCH   1  12
ATOM     12  O   UNL     1      -0.342  11.271  19.855  0.00  0.00    +0.000 OA
BRANCH  12  14
ATOM     13  C   UNL     1      -0.510  13.411  18.782  0.00  0.00    +0.000 C 
ATOM     14  C   UNL     1      -0.612  11.910  18.610  0.00  0.00    +0.000 C 
ENDBRANCH  12  14
ENDBRANCH   1  12
BRANCH   6  15
ATOM     15  O   UNL     1       4.023   4.886  18.848  0.00  0.00    +0.000 OA
BRANCH  15  16
ATOM     16  C   UNL     1       3.607   3.832  17.951  0.00  0.00    +0.000 C 
ATOM     17  C   UNL     1       2.084   3.803  17.800  0.00  0.00    +0.000 C 
ATOM     18  C   UNL     1       4.391   3.796  16.630  0.00  0.00    +0.000 C 
BRANCH  16  19
ATOM     19  C   UNL     1       3.976   2.517  18.678  0.00  0.00    +0.000 C 
ATOM     20  O   UNL     1       3.384   1.455  18.535  0.00  0.00    +0.000 OA
BRANCH  19  21
ATOM     21  O   UNL     1       5.039   2.639  19.513  0.00  0.00    +0.000 OA
ATOM     22  H   UNL     1       4.818   2.224  20.375  0.00  0.00    +0.000 HD
ENDBRANCH  19  21
ENDBRANCH  16  19
ENDBRANCH  15  16
ENDBRANCH   6  15
TORSDOF 6
ENDMDL
MODEL 7
REMARK VINA RESULT:      -6.4      1.600      7.595
REMARK  Name = 
REMARK  9 active torsions:
REMARK  status: ('A' for Active; 'I' for Inactive)
REMARK    1  A    between atoms: C_1  and  C_2
REMARK    2  A    between atoms: C_2  and  O_3
REMARK    3  A    between atoms: O_3  and  C_4
REMARK    4  A    between atoms: C_9  and  O_10
REMARK    5  A    between atoms: O_10  and  C_11
REMARK    6  A    between atoms: C_11  and  C_12
REMARK    7  A    between atoms: C_11  and  C_13
REMARK    8  A    between atoms: C_11  and  C_14
REMARK    9  A    between atoms: C_14  and  O_16
REMARK                            x       y       z     vdW  Elec       q    Type
REMARK                         _______ _______ _______ _____ _____    ______ ____
ROOT
ATOM      1  C   UNL     1       2.935   5.231  19.196  0.00  0.00    +0.000 A 
ATOM      2  C   UNL     1       2.952   6.238  18.302  0.00  0.00    +0.000 A 
ATOM      3  C   UNL     1       2.349   7.522  18.593  0.00  0.00    +0.000 A 
ATOM      4  C   UNL     1       2.406   8.589  17.695  0.00  0.00    +0.000 A 
ATOM      5  C   UNL     1       1.814   9.811  18.029  0.00  0.00    +0.000 A 
ATOM      6  C   UNL     1       1.168   9.982  19.258  0.00  0.00    +0.000 A 
ATOM      7  C   UNL     1       1.074   8.898  20.130  0.00  0.00    +0.000 A 
ATOM      8  C   UNL     1       1.687   7.693  19.795  0.00  0.00    +0.000 A 
ATOM      9  O   UNL     1       1.637   6.656  20.741  0.00  0.00    +0.000 OA
ATOM     10  C   UNL     1       2.285   5.439  20.535  0.00  0.00    +0.000 A 
ATOM     11  O   UNL     1       2.310   4.584  21.413  0.00  0.00    +0.000 OA
ENDROOT
BRANCH   1  12
ATOM     12  O   UNL     1       3.478   3.974  18.973  0.00  0.00    +0.000 OA
BRANCH  12  14
ATOM     13  C   UNL     1       3.423   1.742  18.093  0.00  0.00    +0.000 C 
ATOM     14  C   UNL     1       2.678   3.052  18.237  0.00  0.00    +0.000 C 
ENDBRANCH  12  14
ENDBRANCH   1  12
BRANCH   6  15
ATOM     15  O   UNL     1       0.674  11.234  19.475  0.00  0.00    +0.000 OA
BRANCH  15  16
ATOM     16  C   UNL     1      -0.732  11.526  19.311  0.00  0.00    +0.000 C 
ATOM     17  C   UNL     1      -1.438  10.420  18.524  0.00  0.00    +0.000 C 
ATOM     18  C   UNL     1      -1.434  11.947  20.612  0.00  0.00    +0.000 C 
BRANCH  16  19
ATOM     19  C   UNL     1      -0.780  12.776  18.401  0.00  0.00    +0.000 C 
ATOM     20  O   UNL     1      -0.386  13.888  18.727  0.00  0.00    +0.000 OA
BRANCH  19  21
ATOM     21  O   UNL     1      -1.310  12.534  17.174  0.00  0.00    +0.000 OA
ATOM     22  H   UNL     1      -1.853  13.305  16.903  0.00  0.00    +0.000 HD
ENDBRANCH  19  21
ENDBRANCH  16  19
ENDBRANCH  15  16
ENDBRANCH   6  15
TORSDOF 6
ENDMDL
MODEL 8
REMARK VINA RESULT:      -6.4      1.414      1.635
REMARK  Name = 
REMARK  9 active torsions:
REMARK  status: ('A' for Active; 'I' for Inactive)
REMARK    1  A    between atoms: C_1  and  C_2
REMARK    2  A    between atoms: C_2  and  O_3
REMARK    3  A    between atoms: O_3  and  C_4
REMARK    4  A    between atoms: C_9  and  O_10
REMARK    5  A    between atoms: O_10  and  C_11
REMARK    6  A    between atoms: C_11  and  C_12
REMARK    7  A    between atoms: C_11  and  C_13
REMARK    8  A    between atoms: C_11  and  C_14
REMARK    9  A    between atoms: C_14  and  O_16
REMARK                            x       y       z     vdW  Elec       q    Type
REMARK                         _______ _______ _______ _____ _____    ______ ____
ROOT
ATOM      1  C   UNL     1       0.109  10.784  19.230  0.00  0.00    +0.000 A 
ATOM      2  C   UNL     1       0.937  10.197  18.346  0.00  0.00    +0.000 A 
ATOM      3  C   UNL     1       1.627   8.962  18.655  0.00  0.00    +0.000 A 
ATOM      4  C   UNL     1       2.448   8.318  17.728  0.00  0.00    +0.000 A 
ATOM      5  C   UNL     1       3.084   7.122  18.076  0.00  0.00    +0.000 A 
ATOM      6  C   UNL     1       2.906   6.557  19.343  0.00  0.00    +0.000 A 
ATOM      7  C   UNL     1       2.123   7.231  20.280  0.00  0.00    +0.000 A 
ATOM      8  C   UNL     1       1.477   8.409  19.914  0.00  0.00    +0.000 A 
ATOM      9  O   UNL     1       0.632   9.007  20.865  0.00  0.00    +0.000 OA
ATOM     10  C   UNL     1      -0.119  10.144  20.571  0.00  0.00    +0.000 A 
ATOM     11  O   UNL     1      -0.921  10.593  21.382  0.00  0.00    +0.000 OA
ENDROOT
BRANCH   1  12
ATOM     12  O   UNL     1      -0.568  11.974  19.003  0.00  0.00    +0.000 OA
BRANCH  12  14
ATOM     13  C   UNL     1      -2.778  11.299  18.358  0.00  0.00    +0.000 C 
ATOM     14  C   UNL     1      -1.499  11.984  17.924  0.00  0.00    +0.000 C 
ENDBRANCH  12  14
ENDBRANCH   1  12
BRANCH   6  15
ATOM     15  O   UNL     1       3.547   5.369  19.535  0.00  0.00    +0.000 OA
BRANCH  15  16
ATOM     16  C   UNL     1       2.879   4.109  19.302  0.00  0.00    +0.000 C 
ATOM     17  C   UNL     1       2.606   3.377  20.618  0.00  0.00    +0.000 C 
ATOM     18  C   UNL     1       1.674   4.212  18.354  0.00  0.00    +0.000 C 
BRANCH  16  19
ATOM     19  C   UNL     1       3.914   3.238  18.551  0.00  0.00    +0.000 C 
ATOM     20  O   UNL     1       3.865   2.977  17.357  0.00  0.00    +0.000 OA
BRANCH  19  21
ATOM     21  O   UNL     1       4.910   2.772  19.348  0.00  0.00    +0.000 OA
ATOM     22  H   UNL     1       4.915   1.791  19.312  0.00  0.00    +0.000 HD
ENDBRANCH  19  21
ENDBRANCH  16  19
ENDBRANCH  15  16
ENDBRANCH   6  15
TORSDOF 6
ENDMDL
MODEL 9
REMARK VINA RESULT:      -6.4      4.306      6.484
REMARK  Name = 
REMARK  9 active torsions:
REMARK  status: ('A' for Active; 'I' for Inactive)
REMARK    1  A    between atoms: C_1  and  C_2
REMARK    2  A    between atoms: C_2  and  O_3
REMARK    3  A    between atoms: O_3  and  C_4
REMARK    4  A    between atoms: C_9  and  O_10
REMARK    5  A    between atoms: O_10  and  C_11
REMARK    6  A    between atoms: C_11  and  C_12
REMARK    7  A    between atoms: C_11  and  C_13
REMARK    8  A    between atoms: C_11  and  C_14
REMARK    9  A    between atoms: C_14  and  O_16
REMARK                            x       y       z     vdW  Elec       q    Type
REMARK                         _______ _______ _______ _____ _____    ______ ____
ROOT
ATOM      1  C   UNL     1       6.774   5.164  15.556  0.00  0.00    +0.000 A 
ATOM      2  C   UNL     1       5.893   4.147  15.548  0.00  0.00    +0.000 A 
ATOM      3  C   UNL     1       5.205   3.729  16.752  0.00  0.00    +0.000 A 
ATOM      4  C   UNL     1       4.252   2.710  16.746  0.00  0.00    +0.000 A 
ATOM      5  C   UNL     1       3.610   2.352  17.936  0.00  0.00    +0.000 A 
ATOM      6  C   UNL     1       3.907   3.006  19.136  0.00  0.00    +0.000 A 
ATOM      7  C   UNL     1       4.895   3.990  19.143  0.00  0.00    +0.000 A 
ATOM      8  C   UNL     1       5.511   4.353  17.948  0.00  0.00    +0.000 A 
ATOM      9  O   UNL     1       6.438   5.407  17.991  0.00  0.00    +0.000 OA
ATOM     10  C   UNL     1       7.051   5.897  16.838  0.00  0.00    +0.000 A 
ATOM     11  O   UNL     1       7.783   6.879  16.886  0.00  0.00    +0.000 OA
ENDROOT
BRANCH   1  12
ATOM     12  O   UNL     1       7.479   5.602  14.443  0.00  0.00    +0.000 OA
BRANCH  12  14
ATOM     13  C   UNL     1       7.947   5.600  12.089  0.00  0.00    +0.000 C 
ATOM     14  C   UNL     1       7.300   4.858  13.240  0.00  0.00    +0.000 C 
ENDBRANCH  12  14
ENDBRANCH   1  12
BRANCH   6  15
ATOM     15  O   UNL     1       3.179   2.589  20.211  0.00  0.00    +0.000 OA
BRANCH  15  16
ATOM     16  C   UNL     1       1.837   3.073  20.441  0.00  0.00    +0.000 C 
ATOM     17  C   UNL     1       0.897   2.658  19.307  0.00  0.00    +0.000 C 
ATOM     18  C   UNL     1       1.310   2.792  21.857  0.00  0.00    +0.000 C 
BRANCH  16  19
ATOM     19  C   UNL     1       1.944   4.614  20.346  0.00  0.00    +0.000 C 
ATOM     20  O   UNL     1       1.621   5.273  19.367  0.00  0.00    +0.000 OA
BRANCH  19  21
ATOM     21  O   UNL     1       2.441   5.193  21.468  0.00  0.00    +0.000 OA
ATOM     22  H   UNL     1       2.459   4.529  22.191  0.00  0.00    +0.000 HD
ENDBRANCH  19  21
ENDBRANCH  16  19
ENDBRANCH  15  16
ENDBRANCH   6  15
TORSDOF 6
ENDMDL
