MODEL 1
REMARK VINA RESULT:      -8.4      0.000      0.000
REMARK  Name = 
REMARK  5 active torsions:
REMARK  status: ('A' for Active; 'I' for Inactive)
REMARK    1  A    between atoms: C_4  and  N_5
REMARK    2  A    between atoms: N_5  and  C_6
REMARK    3  A    between atoms: C_17  and  O_18
REMARK    4  A    between atoms: O_18  and  C_19
REMARK    5  A    between atoms: C_19  and  C_20
REMARK                            x       y       z     vdW  Elec       q    Type
REMARK                         _______ _______ _______ _____ _____    ______ ____
ROOT
ATOM      1  I   UNL     1      -0.275  10.211  22.063  0.00  0.00    +0.000 I 
ATOM      2  C   UNL     1       0.766   9.295  20.467  0.00  0.00    +0.000 A 
ATOM      3  C   UNL     1       1.579   8.184  20.744  0.00  0.00    +0.000 A 
ATOM      4  C   UNL     1       2.266   7.516  19.714  0.00  0.00    +0.000 A 
ATOM      5  C   UNL     1       2.153   8.013  18.405  0.00  0.00    +0.000 A 
ATOM      6  C   UNL     1       1.349   9.108  18.127  0.00  0.00    +0.000 A 
ATOM      7  C   UNL     1       0.633   9.762  19.147  0.00  0.00    +0.000 A 
ENDROOT
BRANCH   4   8
ATOM      8  N   UNL     1       3.054   6.363  20.037  0.00  0.00    +0.000 N 
ATOM      9  H   UNL     1       3.225   6.178  21.037  0.00  0.00    +0.000 HD
BRANCH   8  10
ATOM     10  C   UNL     1       3.477   5.365  19.102  0.00  0.00    +0.000 A 
ATOM     11  N   UNL     1       4.595   5.521  18.335  0.00  0.00    +0.000 NA
ATOM     12  C   UNL     1       4.977   4.597  17.411  0.00  0.00    +0.000 A 
ATOM     13  N   UNL     1       4.233   3.476  17.207  0.00  0.00    +0.000 NA
ATOM     14  C   UNL     1       3.110   3.287  17.942  0.00  0.00    +0.000 A 
ATOM     15  C   UNL     1       2.249   2.194  17.825  0.00  0.00    +0.000 A 
ATOM     16  C   UNL     1       1.171   2.276  18.702  0.00  0.00    +0.000 A 
ATOM     17  S   UNL     1       1.291   3.698  19.613  0.00  0.00    +0.000 S 
ATOM     18  C   UNL     1       2.719   4.212  18.890  0.00  0.00    +0.000 A 
ENDBRANCH   8  10
ENDBRANCH   4   8
BRANCH   7  19
ATOM     19  O   UNL     1      -0.175  10.827  18.881  0.00  0.00    +0.000 OA
BRANCH  19  20
ATOM     20  C   UNL     1      -1.537  10.839  19.149  0.00  0.00    +0.000 C 
BRANCH  20  21
ATOM     21  C   UNL     1      -2.354  10.782  17.892  0.00  0.00    +0.000 A 
ATOM     22  C   UNL     1      -1.951   9.944  16.835  0.00  0.00    +0.000 A 
ATOM     23  C   UNL     1      -2.722   9.849  15.676  0.00  0.00    +0.000 A 
ATOM     24  C   UNL     1      -3.896  10.594  15.556  0.00  0.00    +0.000 A 
ATOM     25  C   UNL     1      -4.302  11.435  16.599  0.00  0.00    +0.000 A 
ATOM     26  C   UNL     1      -3.537  11.526  17.766  0.00  0.00    +0.000 A 
ENDBRANCH  20  21
ENDBRANCH  19  20
ENDBRANCH   7  19
TORSDOF 5
ENDMDL
MODEL 2
REMARK VINA RESULT:      -8.4      1.087      1.294
REMARK  Name = 
REMARK  5 active torsions:
REMARK  status: ('A' for Active; 'I' for Inactive)
REMARK    1  A    between atoms: C_4  and  N_5
REMARK    2  A    between atoms: N_5  and  C_6
REMARK    3  A    between atoms: C_17  and  O_18
REMARK    4  A    between atoms: O_18  and  C_19
REMARK    5  A    between atoms: C_19  and  C_20
REMARK                            x       y       z     vdW  Elec       q    Type
REMARK                         _______ _______ _______ _____ _____    ______ ____
ROOT
ATOM      1  I   UNL     1       0.073   9.470  22.080  0.00  0.00    +0.000 I 
ATOM      2  C   UNL     1       1.017   8.953  20.260  0.00  0.00    +0.000 A 
ATOM      3  C   UNL     1       1.909   7.868  20.250  0.00  0.00    +0.000 A 
ATOM      4  C   UNL     1       2.538   7.461  19.059  0.00  0.00    +0.000 A 
ATOM      5  C   UNL     1       2.285   8.192  17.887  0.00  0.00    +0.000 A 
ATOM      6  C   UNL     1       1.403   9.261  17.892  0.00  0.00    +0.000 A 
ATOM      7  C   UNL     1       0.745   9.656  19.073  0.00  0.00    +0.000 A 
ENDROOT
BRANCH   4   8
ATOM      8  N   UNL     1       3.411   6.324  19.088  0.00  0.00    +0.000 N 
ATOM      9  H   UNL     1       4.331   6.450  19.535  0.00  0.00    +0.000 HD
BRANCH   8  10
ATOM     10  C   UNL     1       3.047   4.995  18.698  0.00  0.00    +0.000 A 
ATOM     11  N   UNL     1       3.162   4.564  17.408  0.00  0.00    +0.000 NA
ATOM     12  C   UNL     1       2.774   3.318  17.021  0.00  0.00    +0.000 A 
ATOM     13  N   UNL     1       2.234   2.452  17.921  0.00  0.00    +0.000 NA
ATOM     14  C   UNL     1       2.094   2.844  19.211  0.00  0.00    +0.000 A 
ATOM     15  C   UNL     1       1.543   2.066  20.231  0.00  0.00    +0.000 A 
ATOM     16  C   UNL     1       1.519   2.737  21.451  0.00  0.00    +0.000 A 
ATOM     17  S   UNL     1       2.177   4.284  21.258  0.00  0.00    +0.000 S 
ATOM     18  C   UNL     1       2.494   4.102  19.617  0.00  0.00    +0.000 A 
ENDBRANCH   8  10
ENDBRANCH   4   8
BRANCH   7  19
ATOM     19  O   UNL     1      -0.138  10.693  19.084  0.00  0.00    +0.000 OA
BRANCH  19  20
ATOM     20  C   UNL     1      -1.494  10.540  19.340  0.00  0.00    +0.000 C 
BRANCH  20  21
ATOM     21  C   UNL     1      -2.316  10.665  18.092  0.00  0.00    +0.000 A 
ATOM     22  C   UNL     1      -1.947   9.946  16.938  0.00  0.00    +0.000 A 
ATOM     23  C   UNL     1      -2.724  10.020  15.782  0.00  0.00    +0.000 A 
ATOM     24  C   UNL     1      -3.871  10.816  15.762  0.00  0.00    +0.000 A 
ATOM     25  C   UNL     1      -4.243  11.539  16.901  0.00  0.00    +0.000 A 
ATOM     26  C   UNL     1      -3.471  11.460  18.065  0.00  0.00    +0.000 A 
ENDBRANCH  20  21
ENDBRANCH  19  20
ENDBRANCH   7  19
TORSDOF 5
ENDMDL
MODEL 3
REMARK VINA RESULT:      -8.3      0.503      1.112
REMARK  Name = 
REMARK  5 active torsions:
REMARK  status: ('A' for Active; 'I' for Inactive)
REMARK    1  A    between atoms: C_4  and  N_5
REMARK    2  A    between atoms: N_5  and  C_6
REMARK    3  A    between atoms: C_17  and  O_18
REMARK    4  A    between atoms: O_18  and  C_19
REMARK    5  A    between atoms: C_19  and  C_20
REMARK                            x       y       z     vdW  Elec       q    Type
REMARK                         _______ _______ _______ _____ _____    ______ ____
ROOT
ATOM      1  I   UNL     1      -0.228   9.902  22.203  0.00  0.00    +0.000 I 
ATOM      2  C   UNL     1       0.794   9.199  20.491  0.00  0.00    +0.000 A 
ATOM      3  C   UNL     1       1.678   8.117  20.633  0.00  0.00    +0.000 A 
ATOM      4  C   UNL     1       2.358   7.588  19.520  0.00  0.00    +0.000 A 
ATOM      5  C   UNL     1       2.161   8.195  18.268  0.00  0.00    +0.000 A 
ATOM      6  C   UNL     1       1.287   9.261  18.124  0.00  0.00    +0.000 A 
ATOM      7  C   UNL     1       0.579   9.776  19.227  0.00  0.00    +0.000 A 
ENDROOT
BRANCH   4   8
ATOM      8  N   UNL     1       3.220   6.459  19.705  0.00  0.00    +0.000 N 
ATOM      9  H   UNL     1       3.774   6.429  20.574  0.00  0.00    +0.000 HD
BRANCH   8  10
ATOM     10  C   UNL     1       3.252   5.299  18.866  0.00  0.00    +0.000 A 
ATOM     11  N   UNL     1       4.104   5.198  17.805  0.00  0.00    +0.000 NA
ATOM     12  C   UNL     1       4.107   4.118  16.975  0.00  0.00    +0.000 A 
ATOM     13  N   UNL     1       3.232   3.094  17.171  0.00  0.00    +0.000 NA
ATOM     14  C   UNL     1       2.362   3.160  18.209  0.00  0.00    +0.000 A 
ATOM     15  C   UNL     1       1.404   2.192  18.515  0.00  0.00    +0.000 A 
ATOM     16  C   UNL     1       0.645   2.535  19.631  0.00  0.00    +0.000 A 
ATOM     17  S   UNL     1       1.164   4.032  20.227  0.00  0.00    +0.000 S 
ATOM     18  C   UNL     1       2.358   4.245  19.063  0.00  0.00    +0.000 A 
ENDBRANCH   8  10
ENDBRANCH   4   8
BRANCH   7  19
ATOM     19  O   UNL     1      -0.297  10.811  19.091  0.00  0.00    +0.000 OA
BRANCH  19  20
ATOM     20  C   UNL     1      -1.664  10.686  19.291  0.00  0.00    +0.000 C 
BRANCH  20  21
ATOM     21  C   UNL     1      -2.420  10.666  17.995  0.00  0.00    +0.000 A 
ATOM     22  C   UNL     1      -3.582  11.448  17.852  0.00  0.00    +0.000 A 
ATOM     23  C   UNL     1      -4.272  11.471  16.641  0.00  0.00    +0.000 A 
ATOM     24  C   UNL     1      -3.817  10.710  15.563  0.00  0.00    +0.000 A 
ATOM     25  C   UNL     1      -2.667   9.924  15.697  0.00  0.00    +0.000 A 
ATOM     26  C   UNL     1      -1.966   9.905  16.908  0.00  0.00    +0.000 A 
ENDBRANCH  20  21
ENDBRANCH  19  20
ENDBRANCH   7  19
TORSDOF 5
ENDMDL
MODEL 4
REMARK VINA RESULT:      -8.2      1.532      2.050
REMARK  Name = 
REMARK  5 active torsions:
REMARK  status: ('A' for Active; 'I' for Inactive)
REMARK    1  A    between atoms: C_4  and  N_5
REMARK    2  A    between atoms: N_5  and  C_6
REMARK    3  A    between atoms: C_17  and  O_18
REMARK    4  A    between atoms: O_18  and  C_19
REMARK    5  A    between atoms: C_19  and  C_20
REMARK                            x       y       z     vdW  Elec       q    Type
REMARK                         _______ _______ _______ _____ _____    ______ ____
ROOT
ATOM      1  I   UNL     1      -0.232   9.535  22.626  0.00  0.00    +0.000 I 
ATOM      2  C   UNL     1       0.756   9.006  20.832  0.00  0.00    +0.000 A 
ATOM      3  C   UNL     1       1.593   7.879  20.834  0.00  0.00    +0.000 A 
ATOM      4  C   UNL     1       2.247   7.462  19.660  0.00  0.00    +0.000 A 
ATOM      5  C   UNL     1       2.075   8.226  18.493  0.00  0.00    +0.000 A 
ATOM      6  C   UNL     1       1.247   9.338  18.487  0.00  0.00    +0.000 A 
ATOM      7  C   UNL     1       0.564   9.743  19.650  0.00  0.00    +0.000 A 
ENDROOT
BRANCH   4   8
ATOM      8  N   UNL     1       3.062   6.283  19.698  0.00  0.00    +0.000 N 
ATOM      9  H   UNL     1       4.083   6.419  19.711  0.00  0.00    +0.000 HD
BRANCH   8  10
ATOM     10  C   UNL     1       2.574   4.950  19.885  0.00  0.00    +0.000 A 
ATOM     11  N   UNL     1       1.758   4.620  20.928  0.00  0.00    +0.000 NA
ATOM     12  C   UNL     1       1.328   3.345  21.138  0.00  0.00    +0.000 A 
ATOM     13  N   UNL     1       1.720   2.338  20.311  0.00  0.00    +0.000 NA
ATOM     14  C   UNL     1       2.539   2.623  19.268  0.00  0.00    +0.000 A 
ATOM     15  C   UNL     1       3.030   1.688  18.355  0.00  0.00    +0.000 A 
ATOM     16  C   UNL     1       3.857   2.270  17.398  0.00  0.00    +0.000 A 
ATOM     17  S   UNL     1       3.976   3.933  17.690  0.00  0.00    +0.000 S 
ATOM     18  C   UNL     1       2.972   3.914  19.039  0.00  0.00    +0.000 A 
ENDBRANCH   8  10
ENDBRANCH   4   8
BRANCH   7  19
ATOM     19  O   UNL     1      -0.268  10.822  19.649  0.00  0.00    +0.000 OA
BRANCH  19  20
ATOM     20  C   UNL     1      -0.552  11.567  18.513  0.00  0.00    +0.000 C 
BRANCH  20  21
ATOM     21  C   UNL     1      -1.992  11.443  18.110  0.00  0.00    +0.000 A 
ATOM     22  C   UNL     1      -2.322  10.860  16.871  0.00  0.00    +0.000 A 
ATOM     23  C   UNL     1      -3.657  10.702  16.499  0.00  0.00    +0.000 A 
ATOM     24  C   UNL     1      -4.675  11.130  17.354  0.00  0.00    +0.000 A 
ATOM     25  C   UNL     1      -4.357  11.716  18.584  0.00  0.00    +0.000 A 
ATOM     26  C   UNL     1      -3.019  11.869  18.964  0.00  0.00    +0.000 A 
ENDBRANCH  20  21
ENDBRANCH  19  20
ENDBRANCH   7  19
TORSDOF 5
ENDMDL
MODEL 5
REMARK VINA RESULT:      -8.2      1.660      2.666
REMARK  Name = 
REMARK  5 active torsions:
REMARK  status: ('A' for Active; 'I' for Inactive)
REMARK    1  A    between atoms: C_4  and  N_5
REMARK    2  A    between atoms: N_5  and  C_6
REMARK    3  A    between atoms: C_17  and  O_18
REMARK    4  A    between atoms: O_18  and  C_19
REMARK    5  A    between atoms: C_19  and  C_20
REMARK                            x       y       z     vdW  Elec       q    Type
REMARK                         _______ _______ _______ _____ _____    ______ ____
ROOT
ATOM      1  I   UNL     1      -0.367   9.949  22.499  0.00  0.00    +0.000 I 
ATOM      2  C   UNL     1       0.678   9.274  20.789  0.00  0.00    +0.000 A 
ATOM      3  C   UNL     1       1.423   8.087  20.881  0.00  0.00    +0.000 A 
ATOM      4  C   UNL     1       2.108   7.575  19.765  0.00  0.00    +0.000 A 
ATOM      5  C   UNL     1       2.064   8.302  18.563  0.00  0.00    +0.000 A 
ATOM      6  C   UNL     1       1.327   9.473  18.468  0.00  0.00    +0.000 A 
ATOM      7  C   UNL     1       0.612   9.975  19.572  0.00  0.00    +0.000 A 
ENDROOT
BRANCH   4   8
ATOM      8  N   UNL     1       2.824   6.340  19.894  0.00  0.00    +0.000 N 
ATOM      9  H   UNL     1       3.310   6.171  20.788  0.00  0.00    +0.000 HD
BRANCH   8  10
ATOM     10  C   UNL     1       2.781   5.259  18.956  0.00  0.00    +0.000 A 
ATOM     11  N   UNL     1       1.749   4.366  18.929  0.00  0.00    +0.000 NA
ATOM     12  C   UNL     1       1.725   3.310  18.070  0.00  0.00    +0.000 A 
ATOM     13  N   UNL     1       2.756   3.097  17.207  0.00  0.00    +0.000 NA
ATOM     14  C   UNL     1       3.805   3.956  17.209  0.00  0.00    +0.000 A 
ATOM     15  C   UNL     1       4.931   3.848  16.391  0.00  0.00    +0.000 A 
ATOM     16  C   UNL     1       5.850   4.868  16.622  0.00  0.00    +0.000 A 
ATOM     17  S   UNL     1       5.263   5.893  17.835  0.00  0.00    +0.000 S 
ATOM     18  C   UNL     1       3.835   5.037  18.068  0.00  0.00    +0.000 A 
ENDBRANCH   8  10
ENDBRANCH   4   8
BRANCH   7  19
ATOM     19  O   UNL     1      -0.130  11.114  19.482  0.00  0.00    +0.000 OA
BRANCH  19  20
ATOM     20  C   UNL     1      -0.957  11.404  18.405  0.00  0.00    +0.000 C 
BRANCH  20  21
ATOM     21  C   UNL     1      -2.350  11.744  18.845  0.00  0.00    +0.000 A 
ATOM     22  C   UNL     1      -2.551  12.423  20.062  0.00  0.00    +0.000 A 
ATOM     23  C   UNL     1      -3.837  12.781  20.466  0.00  0.00    +0.000 A 
ATOM     24  C   UNL     1      -4.935  12.460  19.666  0.00  0.00    +0.000 A 
ATOM     25  C   UNL     1      -4.746  11.779  18.458  0.00  0.00    +0.000 A 
ATOM     26  C   UNL     1      -3.457  11.426  18.045  0.00  0.00    +0.000 A 
ENDBRANCH  20  21
ENDBRANCH  19  20
ENDBRANCH   7  19
TORSDOF 5
ENDMDL
MODEL 6
REMARK VINA RESULT:      -8.2      0.976      1.644
REMARK  Name = 
REMARK  5 active torsions:
REMARK  status: ('A' for Active; 'I' for Inactive)
REMARK    1  A    between atoms: C_4  and  N_5
REMARK    2  A    between atoms: N_5  and  C_6
REMARK    3  A    between atoms: C_17  and  O_18
REMARK    4  A    between atoms: O_18  and  C_19
REMARK    5  A    between atoms: C_19  and  C_20
REMARK                            x       y       z     vdW  Elec       q    Type
REMARK                         _______ _______ _______ _____ _____    ______ ____
ROOT
ATOM      1  I   UNL     1      -0.365  10.278  22.245  0.00  0.00    +0.000 I 
ATOM      2  C   UNL     1       0.670   9.408  20.619  0.00  0.00    +0.000 A 
ATOM      3  C   UNL     1       1.453   8.266  20.855  0.00  0.00    +0.000 A 
ATOM      4  C   UNL     1       2.135   7.628  19.802  0.00  0.00    +0.000 A 
ATOM      5  C   UNL     1       2.046   8.184  18.515  0.00  0.00    +0.000 A 
ATOM      6  C   UNL     1       1.271   9.309  18.279  0.00  0.00    +0.000 A 
ATOM      7  C   UNL     1       0.561   9.936  19.320  0.00  0.00    +0.000 A 
ENDROOT
BRANCH   4   8
ATOM      8  N   UNL     1       2.891   6.442  20.082  0.00  0.00    +0.000 N 
ATOM      9  H   UNL     1       3.028   6.197  21.073  0.00  0.00    +0.000 HD
BRANCH   8  10
ATOM     10  C   UNL     1       3.325   5.492  19.103  0.00  0.00    +0.000 A 
ATOM     11  N   UNL     1       4.393   5.732  18.287  0.00  0.00    +0.000 NA
ATOM     12  C   UNL     1       4.783   4.853  17.323  0.00  0.00    +0.000 A 
ATOM     13  N   UNL     1       4.098   3.693  17.128  0.00  0.00    +0.000 NA
ATOM     14  C   UNL     1       3.026   3.421  17.912  0.00  0.00    +0.000 A 
ATOM     15  C   UNL     1       2.226   2.281  17.810  0.00  0.00    +0.000 A 
ATOM     16  C   UNL     1       1.190   2.279  18.740  0.00  0.00    +0.000 A 
ATOM     17  S   UNL     1       1.271   3.685  19.679  0.00  0.00    +0.000 S 
ATOM     18  C   UNL     1       2.628   4.300  18.900  0.00  0.00    +0.000 A 
ENDBRANCH   8  10
ENDBRANCH   4   8
BRANCH   7  19
ATOM     19  O   UNL     1      -0.218  11.030  19.094  0.00  0.00    +0.000 OA
BRANCH  19  20
ATOM     20  C   UNL     1      -1.181  11.090  18.096  0.00  0.00    +0.000 C 
BRANCH  20  21
ATOM     21  C   UNL     1      -2.493  11.598  18.614  0.00  0.00    +0.000 A 
ATOM     22  C   UNL     1      -3.681  11.305  17.916  0.00  0.00    +0.000 A 
ATOM     23  C   UNL     1      -4.913  11.736  18.407  0.00  0.00    +0.000 A 
ATOM     24  C   UNL     1      -4.973  12.470  19.593  0.00  0.00    +0.000 A 
ATOM     25  C   UNL     1      -3.799  12.773  20.290  0.00  0.00    +0.000 A 
ATOM     26  C   UNL     1      -2.562  12.334  19.806  0.00  0.00    +0.000 A 
ENDBRANCH  20  21
ENDBRANCH  19  20
ENDBRANCH   7  19
TORSDOF 5
ENDMDL
MODEL 7
REMARK VINA RESULT:      -8.1      3.850      8.142
REMARK  Name = 
REMARK  5 active torsions:
REMARK  status: ('A' for Active; 'I' for Inactive)
REMARK    1  A    between atoms: C_4  and  N_5
REMARK    2  A    between atoms: N_5  and  C_6
REMARK    3  A    between atoms: C_17  and  O_18
REMARK    4  A    between atoms: O_18  and  C_19
REMARK    5  A    between atoms: C_19  and  C_20
REMARK                            x       y       z     vdW  Elec       q    Type
REMARK                         _______ _______ _______ _____ _____    ______ ____
ROOT
ATOM      1  I   UNL     1       0.304   9.097  22.562  0.00  0.00    +0.000 I 
ATOM      2  C   UNL     1       0.520   9.316  20.470  0.00  0.00    +0.000 A 
ATOM      3  C   UNL     1      -0.241  10.297  19.815  0.00  0.00    +0.000 A 
ATOM      4  C   UNL     1      -0.110  10.508  18.430  0.00  0.00    +0.000 A 
ATOM      5  C   UNL     1       0.772   9.685  17.710  0.00  0.00    +0.000 A 
ATOM      6  C   UNL     1       1.527   8.717  18.354  0.00  0.00    +0.000 A 
ATOM      7  C   UNL     1       1.425   8.521  19.745  0.00  0.00    +0.000 A 
ENDROOT
BRANCH   4   8
ATOM      8  N   UNL     1      -0.878  11.547  17.809  0.00  0.00    +0.000 N 
ATOM      9  H   UNL     1      -0.369  12.394  17.514  0.00  0.00    +0.000 HD
BRANCH   8  10
ATOM     10  C   UNL     1      -2.251  11.437  17.420  0.00  0.00    +0.000 A 
ATOM     11  N   UNL     1      -2.617  11.011  16.175  0.00  0.00    +0.000 NA
ATOM     12  C   UNL     1      -3.919  10.948  15.783  0.00  0.00    +0.000 A 
ATOM     13  N   UNL     1      -4.915  11.331  16.628  0.00  0.00    +0.000 NA
ATOM     14  C   UNL     1      -4.593  11.769  17.871  0.00  0.00    +0.000 A 
ATOM     15  C   UNL     1      -5.509  12.205  18.830  0.00  0.00    +0.000 A 
ATOM     16  C   UNL     1      -4.886  12.606  20.009  0.00  0.00    +0.000 A 
ATOM     17  S   UNL     1      -3.211  12.419  19.855  0.00  0.00    +0.000 S 
ATOM     18  C   UNL     1      -3.276  11.826  18.283  0.00  0.00    +0.000 A 
ENDBRANCH   8  10
ENDBRANCH   4   8
BRANCH   7  19
ATOM     19  O   UNL     1       2.178   7.586  20.390  0.00  0.00    +0.000 OA
BRANCH  19  20
ATOM     20  C   UNL     1       2.949   6.638  19.731  0.00  0.00    +0.000 C 
BRANCH  20  21
ATOM     21  C   UNL     1       2.243   5.320  19.622  0.00  0.00    +0.000 A 
ATOM     22  C   UNL     1       1.768   4.684  20.786  0.00  0.00    +0.000 A 
ATOM     23  C   UNL     1       1.074   3.477  20.697  0.00  0.00    +0.000 A 
ATOM     24  C   UNL     1       0.853   2.889  19.451  0.00  0.00    +0.000 A 
ATOM     25  C   UNL     1       1.326   3.509  18.289  0.00  0.00    +0.000 A 
ATOM     26  C   UNL     1       2.015   4.724  18.373  0.00  0.00    +0.000 A 
ENDBRANCH  20  21
ENDBRANCH  19  20
ENDBRANCH   7  19
TORSDOF 5
ENDMDL
MODEL 8
REMARK VINA RESULT:      -8.1      3.864      8.245
REMARK  Name = 
REMARK  5 active torsions:
REMARK  status: ('A' for Active; 'I' for Inactive)
REMARK    1  A    between atoms: C_4  and  N_5
REMARK    2  A    between atoms: N_5  and  C_6
REMARK    3  A    between atoms: C_17  and  O_18
REMARK    4  A    between atoms: O_18  and  C_19
REMARK    5  A    between atoms: C_19  and  C_20
REMARK                            x       y       z     vdW  Elec       q    Type
REMARK                         _______ _______ _______ _____ _____    ______ ____
ROOT
ATOM      1  I   UNL     1       1.706   3.150  21.068  0.00  0.00    +0.000 I 
ATOM      2  C   UNL     1       1.974   5.009  20.095  0.00  0.00    +0.000 A 
ATOM      3  C   UNL     1       1.619   6.183  20.780  0.00  0.00    +0.000 A 
ATOM      4  C   UNL     1       1.809   7.447  20.192  0.00  0.00    +0.000 A 
ATOM      5  C   UNL     1       2.324   7.506  18.887  0.00  0.00    +0.000 A 
ATOM      6  C   UNL     1       2.678   6.349  18.209  0.00  0.00    +0.000 A 
ATOM      7  C   UNL     1       2.521   5.082  18.802  0.00  0.00    +0.000 A 
ENDROOT
BRANCH   4   8
ATOM      8  N   UNL     1       1.469   8.621  20.942  0.00  0.00    +0.000 N 
ATOM      9  H   UNL     1       1.957   8.761  21.839  0.00  0.00    +0.000 HD
BRANCH   8  10
ATOM     10  C   UNL     1       0.636   9.687  20.473  0.00  0.00    +0.000 A 
ATOM     11  N   UNL     1       0.687  10.128  19.183  0.00  0.00    +0.000 NA
ATOM     12  C   UNL     1      -0.068  11.172  18.742  0.00  0.00    +0.000 A 
ATOM     13  N   UNL     1      -0.900  11.832  19.594  0.00  0.00    +0.000 NA
ATOM     14  C   UNL     1      -0.972  11.430  20.887  0.00  0.00    +0.000 A 
ATOM     15  C   UNL     1      -1.768  12.024  21.868  0.00  0.00    +0.000 A 
ATOM     16  C   UNL     1      -1.629  11.405  23.107  0.00  0.00    +0.000 A 
ATOM     17  S   UNL     1      -0.523  10.129  22.979  0.00  0.00    +0.000 S 
ATOM     18  C   UNL     1      -0.220  10.366  21.342  0.00  0.00    +0.000 A 
ENDBRANCH   8  10
ENDBRANCH   4   8
BRANCH   7  19
ATOM     19  O   UNL     1       2.884   3.941  18.152  0.00  0.00    +0.000 OA
BRANCH  19  20
ATOM     20  C   UNL     1       4.149   3.377  18.247  0.00  0.00    +0.000 C 
BRANCH  20  21
ATOM     21  C   UNL     1       5.115   4.003  17.285  0.00  0.00    +0.000 A 
ATOM     22  C   UNL     1       6.364   4.460  17.748  0.00  0.00    +0.000 A 
ATOM     23  C   UNL     1       7.288   5.008  16.859  0.00  0.00    +0.000 A 
ATOM     24  C   UNL     1       6.975   5.113  15.503  0.00  0.00    +0.000 A 
ATOM     25  C   UNL     1       5.734   4.668  15.034  0.00  0.00    +0.000 A 
ATOM     26  C   UNL     1       4.807   4.109  15.921  0.00  0.00    +0.000 A 
ENDBRANCH  20  21
ENDBRANCH  19  20
ENDBRANCH   7  19
TORSDOF 5
ENDMDL
MODEL 9
REMARK VINA RESULT:      -8.1      1.467      2.226
REMARK  Name = 
REMARK  5 active torsions:
REMARK  status: ('A' for Active; 'I' for Inactive)
REMARK    1  A    between atoms: C_4  and  N_5
REMARK    2  A    between atoms: N_5  and  C_6
REMARK    3  A    between atoms: C_17  and  O_18
REMARK    4  A    between atoms: O_18  and  C_19
REMARK    5  A    between atoms: C_19  and  C_20
REMARK                            x       y       z     vdW  Elec       q    Type
REMARK                         _______ _______ _______ _____ _____    ______ ____
ROOT
ATOM      1  I   UNL     1      -0.041   9.465  22.016  0.00  0.00    +0.000 I 
ATOM      2  C   UNL     1       0.991   8.981  20.234  0.00  0.00    +0.000 A 
ATOM      3  C   UNL     1       1.864   7.881  20.241  0.00  0.00    +0.000 A 
ATOM      4  C   UNL     1       2.549   7.494  19.074  0.00  0.00    +0.000 A 
ATOM      5  C   UNL     1       2.371   8.262  17.911  0.00  0.00    +0.000 A 
ATOM      6  C   UNL     1       1.508   9.347  17.900  0.00  0.00    +0.000 A 
ATOM      7  C   UNL     1       0.794   9.721  19.055  0.00  0.00    +0.000 A 
ENDROOT
BRANCH   4   8
ATOM      8  N   UNL     1       3.399   6.341  19.117  0.00  0.00    +0.000 N 
ATOM      9  H   UNL     1       4.306   6.445  19.596  0.00  0.00    +0.000 HD
BRANCH   8  10
ATOM     10  C   UNL     1       3.025   5.025  18.697  0.00  0.00    +0.000 A 
ATOM     11  N   UNL     1       3.157   4.615  17.402  0.00  0.00    +0.000 NA
ATOM     12  C   UNL     1       2.760   3.381  16.987  0.00  0.00    +0.000 A 
ATOM     13  N   UNL     1       2.192   2.506  17.862  0.00  0.00    +0.000 NA
ATOM     14  C   UNL     1       2.035   2.879  19.156  0.00  0.00    +0.000 A 
ATOM     15  C   UNL     1       1.456   2.090  20.152  0.00  0.00    +0.000 A 
ATOM     16  C   UNL     1       1.419   2.740  21.384  0.00  0.00    +0.000 A 
ATOM     17  S   UNL     1       2.101   4.282  21.229  0.00  0.00    +0.000 S 
ATOM     18  C   UNL     1       2.444   4.124  19.591  0.00  0.00    +0.000 A 
ENDBRANCH   8  10
ENDBRANCH   4   8
BRANCH   7  19
ATOM     19  O   UNL     1      -0.071  10.774  19.048  0.00  0.00    +0.000 OA
BRANCH  19  20
ATOM     20  C   UNL     1      -1.154  10.867  18.186  0.00  0.00    +0.000 C 
BRANCH  20  21
ATOM     21  C   UNL     1      -2.340  11.506  18.846  0.00  0.00    +0.000 A 
ATOM     22  C   UNL     1      -2.163  12.254  20.026  0.00  0.00    +0.000 A 
ATOM     23  C   UNL     1      -3.250  12.887  20.629  0.00  0.00    +0.000 A 
ATOM     24  C   UNL     1      -4.523  12.776  20.068  0.00  0.00    +0.000 A 
ATOM     25  C   UNL     1      -4.710  12.030  18.899  0.00  0.00    +0.000 A 
ATOM     26  C   UNL     1      -3.621  11.400  18.286  0.00  0.00    +0.000 A 
ENDBRANCH  20  21
ENDBRANCH  19  20
ENDBRANCH   7  19
TORSDOF 5
ENDMDL
