MODEL 1
REMARK VINA RESULT:      -7.3      0.000      0.000
REMARK  Name = 
REMARK  6 active torsions:
REMARK  status: ('A' for Active; 'I' for Inactive)
REMARK    1  A    between atoms: C_1  and  C_2
REMARK    2  A    between atoms: C_2  and  C_3
REMARK    3  A    between atoms: C_2  and  C_4
REMARK    4  A    between atoms: C_9  and  O_10
REMARK    5  A    between atoms: C_16  and  C_17
REMARK    6  A    between atoms: C_19  and  C_21
REMARK                            x       y       z     vdW  Elec       q    Type
REMARK                         _______ _______ _______ _____ _____    ______ ____
ROOT
ATOM      1  C   UNL     1       3.675   5.424  18.908  0.00  0.00    +0.000 C 
ATOM      2  O   UNL     1       4.179   6.047  17.975  0.00  0.00    +0.000 OA
ATOM      3  N   UNL     1       2.764   5.932  19.804  0.00  0.00    +0.000 N 
ATOM      4  C   UNL     1       2.200   7.199  19.742  0.00  0.00    +0.000 A 
ATOM      5  N   UNL     1       2.325   7.960  18.660  0.00  0.00    +0.000 NA
ATOM      6  C   UNL     1       1.737   9.168  18.694  0.00  0.00    +0.000 A 
ATOM      7  C   UNL     1       1.054   9.700  19.771  0.00  0.00    +0.000 A 
ATOM      8  C   UNL     1       0.934   8.776  20.824  0.00  0.00    +0.000 A 
ATOM      9  N   UNL     1       1.486   7.545  20.818  0.00  0.00    +0.000 NA
ATOM     10  N   UNL     1       0.184   9.047  21.966  0.00  0.00    +0.000 N 
ATOM     11  C   UNL     1      -0.098  10.441  22.224  0.00  0.00    +0.000 C 
ATOM     12  C   UNL     1      -0.624  11.074  20.915  0.00  0.00    +0.000 C 
ATOM     13  C   UNL     1      -1.461  12.307  21.244  0.00  0.00    +0.000 C 
ATOM     14  N   UNL     1       0.501  11.069  19.903  0.00  0.00    +0.000 N 
ATOM     15  C   UNL     1       1.164  12.138  19.257  0.00  0.00    +0.000 C 
ATOM     16  O   UNL     1       2.157  12.026  18.537  0.00  0.00    +0.000 OA
ATOM     17  H   UNL     1       2.509   5.417  20.631  0.00  0.00    +0.000 HD
ATOM     18  H   UNL     1       0.396   8.413  22.725  0.00  0.00    +0.000 HD
ENDROOT
BRANCH  15  19
ATOM     19  C   UNL     1       0.789  13.550  19.463  0.00  0.00    +0.000 A 
ATOM     20  C   UNL     1      -0.089  14.202  18.591  0.00  0.00    +0.000 A 
ATOM     21  C   UNL     1      -0.429  15.528  18.842  0.00  0.00    +0.000 A 
ATOM     22  C   UNL     1       0.115  16.149  19.958  0.00  0.00    +0.000 A 
ATOM     23  N   UNL     1       1.047  15.576  20.748  0.00  0.00    +0.000 NA
ATOM     24  C   UNL     1       1.409  14.306  20.438  0.00  0.00    +0.000 A 
ENDBRANCH  15  19
BRANCH   1  26
ATOM     25  C   UNL     1       3.092   3.351  20.199  0.00  0.00    +0.000 C 
ATOM     26  C   UNL     1       4.052   3.966  19.184  0.00  0.00    +0.000 C 
ATOM     27  C   UNL     1       4.036   3.147  17.891  0.00  0.00    +0.000 C 
ENDBRANCH   1  26
BRANCH   6  28
ATOM     28  O   UNL     1       1.754   9.741  17.467  0.00  0.00    +0.000 OA
ATOM     29  H   UNL     1       2.214  10.575  17.667  0.00  0.00    +0.000 HD
ENDBRANCH   6  28
TORSDOF 3
ENDMDL
MODEL 2
REMARK VINA RESULT:      -7.3      1.138      1.239
REMARK  Name = 
REMARK  6 active torsions:
REMARK  status: ('A' for Active; 'I' for Inactive)
REMARK    1  A    between atoms: C_1  and  C_2
REMARK    2  A    between atoms: C_2  and  C_3
REMARK    3  A    between atoms: C_2  and  C_4
REMARK    4  A    between atoms: C_9  and  O_10
REMARK    5  A    between atoms: C_16  and  C_17
REMARK    6  A    between atoms: C_19  and  C_21
REMARK                            x       y       z     vdW  Elec       q    Type
REMARK                         _______ _______ _______ _____ _____    ______ ____
ROOT
ATOM      1  C   UNL     1       4.166   5.687  17.452  0.00  0.00    +0.000 C 
ATOM      2  O   UNL     1       4.479   6.530  16.614  0.00  0.00    +0.000 OA
ATOM      3  N   UNL     1       3.361   5.911  18.544  0.00  0.00    +0.000 N 
ATOM      4  C   UNL     1       2.700   7.099  18.822  0.00  0.00    +0.000 A 
ATOM      5  N   UNL     1       2.607   8.068  17.917  0.00  0.00    +0.000 NA
ATOM      6  C   UNL     1       1.940   9.177  18.278  0.00  0.00    +0.000 A 
ATOM      7  C   UNL     1       1.384   9.413  19.521  0.00  0.00    +0.000 A 
ATOM      8  C   UNL     1       1.490   8.292  20.363  0.00  0.00    +0.000 A 
ATOM      9  N   UNL     1       2.126   7.151  20.029  0.00  0.00    +0.000 NA
ATOM     10  N   UNL     1       0.898   8.253  21.624  0.00  0.00    +0.000 N 
ATOM     11  C   UNL     1       0.553   9.532  22.202  0.00  0.00    +0.000 C 
ATOM     12  C   UNL     1      -0.206  10.352  21.134  0.00  0.00    +0.000 C 
ATOM     13  C   UNL     1      -1.077  11.402  21.818  0.00  0.00    +0.000 C 
ATOM     14  N   UNL     1       0.754  10.664  20.007  0.00  0.00    +0.000 N 
ATOM     15  C   UNL     1       1.233  11.902  19.520  0.00  0.00    +0.000 C 
ATOM     16  O   UNL     1       2.115  12.038  18.671  0.00  0.00    +0.000 OA
ATOM     17  H   UNL     1       3.270   5.219  19.270  0.00  0.00    +0.000 HD
ATOM     18  H   UNL     1       1.266   7.508  22.200  0.00  0.00    +0.000 HD
ENDROOT
BRANCH  15  19
ATOM     19  C   UNL     1       0.787  13.199  20.064  0.00  0.00    +0.000 A 
ATOM     20  C   UNL     1      -0.208  13.949  19.427  0.00  0.00    +0.000 A 
ATOM     21  C   UNL     1      -0.610  15.156  19.993  0.00  0.00    +0.000 A 
ATOM     22  C   UNL     1      -0.009  15.562  21.175  0.00  0.00    +0.000 A 
ATOM     23  N   UNL     1       1.027  14.912  21.746  0.00  0.00    +0.000 NA
ATOM     24  C   UNL     1       1.442  13.775  21.134  0.00  0.00    +0.000 A 
ENDBRANCH  15  19
BRANCH   1  26
ATOM     25  C   UNL     1       3.538   3.256  17.504  0.00  0.00    +0.000 C 
ATOM     26  C   UNL     1       4.689   4.251  17.366  0.00  0.00    +0.000 C 
ATOM     27  C   UNL     1       5.420   4.018  16.042  0.00  0.00    +0.000 C 
ENDBRANCH   1  26
BRANCH   6  28
ATOM     28  O   UNL     1       1.733   9.979  17.207  0.00  0.00    +0.000 OA
ATOM     29  H   UNL     1       1.626   9.315  16.505  0.00  0.00    +0.000 HD
ENDBRANCH   6  28
TORSDOF 3
ENDMDL
MODEL 3
REMARK VINA RESULT:      -7.2      2.712      3.789
REMARK  Name = 
REMARK  6 active torsions:
REMARK  status: ('A' for Active; 'I' for Inactive)
REMARK    1  A    between atoms: C_1  and  C_2
REMARK    2  A    between atoms: C_2  and  C_3
REMARK    3  A    between atoms: C_2  and  C_4
REMARK    4  A    between atoms: C_9  and  O_10
REMARK    5  A    between atoms: C_16  and  C_17
REMARK    6  A    between atoms: C_19  and  C_21
REMARK                            x       y       z     vdW  Elec       q    Type
REMARK                         _______ _______ _______ _____ _____    ______ ____
ROOT
ATOM      1  C   UNL     1       2.523   6.173  19.489  0.00  0.00    +0.000 C 
ATOM      2  O   UNL     1       2.289   5.866  20.656  0.00  0.00    +0.000 OA
ATOM      3  N   UNL     1       2.188   7.368  18.897  0.00  0.00    +0.000 N 
ATOM      4  C   UNL     1       1.614   8.451  19.548  0.00  0.00    +0.000 A 
ATOM      5  N   UNL     1       1.549   8.507  20.874  0.00  0.00    +0.000 NA
ATOM      6  C   UNL     1       0.982   9.600  21.411  0.00  0.00    +0.000 A 
ATOM      7  C   UNL     1       0.423  10.647  20.702  0.00  0.00    +0.000 A 
ATOM      8  C   UNL     1       0.615  10.503  19.317  0.00  0.00    +0.000 A 
ATOM      9  N   UNL     1       1.203   9.434  18.740  0.00  0.00    +0.000 NA
ATOM     10  N   UNL     1       0.242  11.492  18.409  0.00  0.00    +0.000 N 
ATOM     11  C   UNL     1      -0.723  12.457  18.885  0.00  0.00    +0.000 C 
ATOM     12  C   UNL     1      -0.254  12.963  20.268  0.00  0.00    +0.000 C 
ATOM     13  C   UNL     1      -0.858  14.338  20.542  0.00  0.00    +0.000 C 
ATOM     14  N   UNL     1      -0.324  11.808  21.242  0.00  0.00    +0.000 N 
ATOM     15  C   UNL     1      -1.096  11.636  22.415  0.00  0.00    +0.000 C 
ATOM     16  O   UNL     1      -1.167  10.597  23.072  0.00  0.00    +0.000 OA
ATOM     17  H   UNL     1       2.272   7.494  17.901  0.00  0.00    +0.000 HD
ATOM     18  H   UNL     1       0.205  11.150  17.459  0.00  0.00    +0.000 HD
ENDROOT
BRANCH  15  19
ATOM     19  C   UNL     1      -2.001  12.679  22.934  0.00  0.00    +0.000 A 
ATOM     20  C   UNL     1      -1.545  13.657  23.825  0.00  0.00    +0.000 A 
ATOM     21  C   UNL     1      -2.433  14.633  24.267  0.00  0.00    +0.000 A 
ATOM     22  C   UNL     1      -3.738  14.600  23.798  0.00  0.00    +0.000 A 
ATOM     23  N   UNL     1      -4.227  13.605  23.027  0.00  0.00    +0.000 NA
ATOM     24  C   UNL     1      -3.354  12.631  22.668  0.00  0.00    +0.000 A 
ENDBRANCH  15  19
BRANCH   1  26
ATOM     25  C   UNL     1       2.194   4.322  17.824  0.00  0.00    +0.000 C 
ATOM     26  C   UNL     1       3.222   5.198  18.537  0.00  0.00    +0.000 C 
ATOM     27  C   UNL     1       4.064   5.953  17.507  0.00  0.00    +0.000 C 
ENDBRANCH   1  26
BRANCH   6  28
ATOM     28  O   UNL     1       1.176   9.630  22.750  0.00  0.00    +0.000 OA
ATOM     29  H   UNL     1       0.293   9.365  23.064  0.00  0.00    +0.000 HD
ENDBRANCH   6  28
TORSDOF 3
ENDMDL
MODEL 4
REMARK VINA RESULT:      -7.1      0.972      1.281
REMARK  Name = 
REMARK  6 active torsions:
REMARK  status: ('A' for Active; 'I' for Inactive)
REMARK    1  A    between atoms: C_1  and  C_2
REMARK    2  A    between atoms: C_2  and  C_3
REMARK    3  A    between atoms: C_2  and  C_4
REMARK    4  A    between atoms: C_9  and  O_10
REMARK    5  A    between atoms: C_16  and  C_17
REMARK    6  A    between atoms: C_19  and  C_21
REMARK                            x       y       z     vdW  Elec       q    Type
REMARK                         _______ _______ _______ _____ _____    ______ ____
ROOT
ATOM      1  C   UNL     1       3.751   4.862  18.057  0.00  0.00    +0.000 C 
ATOM      2  O   UNL     1       4.141   5.508  17.087  0.00  0.00    +0.000 OA
ATOM      3  N   UNL     1       2.991   5.357  19.091  0.00  0.00    +0.000 N 
ATOM      4  C   UNL     1       2.468   6.640  19.157  0.00  0.00    +0.000 A 
ATOM      5  N   UNL     1       2.467   7.443  18.098  0.00  0.00    +0.000 NA
ATOM      6  C   UNL     1       1.930   8.664  18.260  0.00  0.00    +0.000 A 
ATOM      7  C   UNL     1       1.422   9.170  19.442  0.00  0.00    +0.000 A 
ATOM      8  C   UNL     1       1.418   8.206  20.465  0.00  0.00    +0.000 A 
ATOM      9  N   UNL     1       1.922   6.961  20.335  0.00  0.00    +0.000 NA
ATOM     10  N   UNL     1       0.845   8.449  21.711  0.00  0.00    +0.000 N 
ATOM     11  C   UNL     1       0.650   9.838  22.059  0.00  0.00    +0.000 C 
ATOM     12  C   UNL     1      -0.032  10.541  20.862  0.00  0.00    +0.000 C 
ATOM     13  C   UNL     1      -0.772  11.782  21.351  0.00  0.00    +0.000 C 
ATOM     14  N   UNL     1       0.940  10.547  19.703  0.00  0.00    +0.000 N 
ATOM     15  C   UNL     1       1.543  11.623  19.011  0.00  0.00    +0.000 C 
ATOM     16  O   UNL     1       2.421  11.514  18.154  0.00  0.00    +0.000 OA
ATOM     17  H   UNL     1       2.837   4.814  19.925  0.00  0.00    +0.000 HD
ATOM     18  H   UNL     1       1.139   7.778  22.408  0.00  0.00    +0.000 HD
ENDROOT
BRANCH  15  19
ATOM     19  C   UNL     1       1.249  13.035  19.321  0.00  0.00    +0.000 A 
ATOM     20  C   UNL     1       1.915  13.705  20.354  0.00  0.00    +0.000 A 
ATOM     21  C   UNL     1       1.618  15.043  20.592  0.00  0.00    +0.000 A 
ATOM     22  C   UNL     1       0.674  15.663  19.786  0.00  0.00    +0.000 A 
ATOM     23  N   UNL     1      -0.058  15.010  18.859  0.00  0.00    +0.000 NA
ATOM     24  C   UNL     1       0.206  13.690  18.697  0.00  0.00    +0.000 A 
ENDBRANCH  15  19
BRANCH   1  26
ATOM     25  C   UNL     1       4.411   3.067  19.686  0.00  0.00    +0.000 C 
ATOM     26  C   UNL     1       4.112   3.383  18.222  0.00  0.00    +0.000 C 
ATOM     27  C   UNL     1       2.979   2.487  17.718  0.00  0.00    +0.000 C 
ENDBRANCH   1  26
BRANCH   6  28
ATOM     28  O   UNL     1       1.796   9.288  17.066  0.00  0.00    +0.000 OA
ATOM     29  H   UNL     1       2.207   8.634  16.475  0.00  0.00    +0.000 HD
ENDBRANCH   6  28
TORSDOF 3
ENDMDL
MODEL 5
REMARK VINA RESULT:      -7.0      2.605      3.679
REMARK  Name = 
REMARK  6 active torsions:
REMARK  status: ('A' for Active; 'I' for Inactive)
REMARK    1  A    between atoms: C_1  and  C_2
REMARK    2  A    between atoms: C_2  and  C_3
REMARK    3  A    between atoms: C_2  and  C_4
REMARK    4  A    between atoms: C_9  and  O_10
REMARK    5  A    between atoms: C_16  and  C_17
REMARK    6  A    between atoms: C_19  and  C_21
REMARK                            x       y       z     vdW  Elec       q    Type
REMARK                         _______ _______ _______ _____ _____    ______ ____
ROOT
ATOM      1  C   UNL     1       2.568   6.253  19.353  0.00  0.00    +0.000 C 
ATOM      2  O   UNL     1       2.359   5.919  20.518  0.00  0.00    +0.000 OA
ATOM      3  N   UNL     1       2.196   7.450  18.789  0.00  0.00    +0.000 N 
ATOM      4  C   UNL     1       1.609   8.508  19.469  0.00  0.00    +0.000 A 
ATOM      5  N   UNL     1       1.563   8.538  20.796  0.00  0.00    +0.000 NA
ATOM      6  C   UNL     1       0.980   9.608  21.362  0.00  0.00    +0.000 A 
ATOM      7  C   UNL     1       0.386  10.655  20.681  0.00  0.00    +0.000 A 
ATOM      8  C   UNL     1       0.559  10.541  19.291  0.00  0.00    +0.000 A 
ATOM      9  N   UNL     1       1.162   9.497  18.686  0.00  0.00    +0.000 NA
ATOM     10  N   UNL     1       0.150  11.537  18.408  0.00  0.00    +0.000 N 
ATOM     11  C   UNL     1      -0.829  12.471  18.917  0.00  0.00    +0.000 C 
ATOM     12  C   UNL     1      -0.350  12.962  20.302  0.00  0.00    +0.000 C 
ATOM     13  C   UNL     1      -0.980  14.317  20.611  0.00  0.00    +0.000 C 
ATOM     14  N   UNL     1      -0.378  11.788  21.255  0.00  0.00    +0.000 N 
ATOM     15  C   UNL     1      -1.127  11.577  22.436  0.00  0.00    +0.000 C 
ATOM     16  O   UNL     1      -1.165  10.524  23.075  0.00  0.00    +0.000 OA
ATOM     17  H   UNL     1       2.262   7.596  17.794  0.00  0.00    +0.000 HD
ATOM     18  H   UNL     1       0.106  11.212  17.452  0.00  0.00    +0.000 HD
ENDROOT
BRANCH  15  19
ATOM     19  C   UNL     1      -2.047  12.589  22.988  0.00  0.00    +0.000 A 
ATOM     20  C   UNL     1      -3.394  12.629  22.609  0.00  0.00    +0.000 A 
ATOM     21  C   UNL     1      -4.226  13.589  23.176  0.00  0.00    +0.000 A 
ATOM     22  C   UNL     1      -3.685  14.467  24.104  0.00  0.00    +0.000 A 
ATOM     23  N   UNL     1      -2.369  14.518  24.402  0.00  0.00    +0.000 NA
ATOM     24  C   UNL     1      -1.571  13.614  23.781  0.00  0.00    +0.000 A 
ENDBRANCH  15  19
BRANCH   1  26
ATOM     25  C   UNL     1       4.448   4.615  19.055  0.00  0.00    +0.000 C 
ATOM     26  C   UNL     1       3.273   5.312  18.373  0.00  0.00    +0.000 C 
ATOM     27  C   UNL     1       2.297   4.267  17.826  0.00  0.00    +0.000 C 
ENDBRANCH   1  26
BRANCH   6  28
ATOM     28  O   UNL     1       1.194   9.617  22.699  0.00  0.00    +0.000 OA
ATOM     29  H   UNL     1       1.227   8.662  22.881  0.00  0.00    +0.000 HD
ENDBRANCH   6  28
TORSDOF 3
ENDMDL
MODEL 6
REMARK VINA RESULT:      -6.8      0.691      1.188
REMARK  Name = 
REMARK  6 active torsions:
REMARK  status: ('A' for Active; 'I' for Inactive)
REMARK    1  A    between atoms: C_1  and  C_2
REMARK    2  A    between atoms: C_2  and  C_3
REMARK    3  A    between atoms: C_2  and  C_4
REMARK    4  A    between atoms: C_9  and  O_10
REMARK    5  A    between atoms: C_16  and  C_17
REMARK    6  A    between atoms: C_19  and  C_21
REMARK                            x       y       z     vdW  Elec       q    Type
REMARK                         _______ _______ _______ _____ _____    ______ ____
ROOT
ATOM      1  C   UNL     1       3.484   5.582  18.505  0.00  0.00    +0.000 C 
ATOM      2  O   UNL     1       3.949   6.237  17.574  0.00  0.00    +0.000 OA
ATOM      3  N   UNL     1       2.638   6.065  19.474  0.00  0.00    +0.000 N 
ATOM      4  C   UNL     1       2.100   7.344  19.503  0.00  0.00    +0.000 A 
ATOM      5  N   UNL     1       2.181   8.153  18.452  0.00  0.00    +0.000 NA
ATOM      6  C   UNL     1       1.623   9.369  18.575  0.00  0.00    +0.000 A 
ATOM      7  C   UNL     1       1.014   9.864  19.713  0.00  0.00    +0.000 A 
ATOM      8  C   UNL     1       0.933   8.894  20.728  0.00  0.00    +0.000 A 
ATOM      9  N   UNL     1       1.455   7.654  20.634  0.00  0.00    +0.000 NA
ATOM     10  N   UNL     1       0.255   9.125  21.923  0.00  0.00    +0.000 N 
ATOM     11  C   UNL     1       0.021  10.511  22.260  0.00  0.00    +0.000 C 
ATOM     12  C   UNL     1      -0.564  11.215  21.014  0.00  0.00    +0.000 C 
ATOM     13  C   UNL     1      -1.353  12.449  21.446  0.00  0.00    +0.000 C 
ATOM     14  N   UNL     1       0.501  11.236  19.940  0.00  0.00    +0.000 N 
ATOM     15  C   UNL     1       1.151  12.321  19.306  0.00  0.00    +0.000 C 
ATOM     16  O   UNL     1       2.098  12.223  18.525  0.00  0.00    +0.000 OA
ATOM     17  H   UNL     1       2.418   5.516  20.290  0.00  0.00    +0.000 HD
ATOM     18  H   UNL     1       0.495   8.453  22.638  0.00  0.00    +0.000 HD
ENDROOT
BRANCH  15  19
ATOM     19  C   UNL     1       0.821  13.729  19.599  0.00  0.00    +0.000 A 
ATOM     20  C   UNL     1       1.385  14.394  20.693  0.00  0.00    +0.000 A 
ATOM     21  C   UNL     1       1.058  15.729  20.912  0.00  0.00    +0.000 A 
ATOM     22  C   UNL     1       0.190  16.350  20.027  0.00  0.00    +0.000 A 
ATOM     23  N   UNL     1      -0.450  15.700  19.032  0.00  0.00    +0.000 NA
ATOM     24  C   UNL     1      -0.164  14.382  18.886  0.00  0.00    +0.000 A 
ENDBRANCH  15  19
BRANCH   1  26
ATOM     25  C   UNL     1       3.568   3.324  17.409  0.00  0.00    +0.000 C 
ATOM     26  C   UNL     1       3.843   4.105  18.692  0.00  0.00    +0.000 C 
ATOM     27  C   UNL     1       5.313   3.949  19.089  0.00  0.00    +0.000 C 
ENDBRANCH   1  26
BRANCH   6  28
ATOM     28  O   UNL     1       1.584   9.999  17.377  0.00  0.00    +0.000 OA
ATOM     29  H   UNL     1       2.478  10.381  17.347  0.00  0.00    +0.000 HD
ENDBRANCH   6  28
TORSDOF 3
ENDMDL
MODEL 7
REMARK VINA RESULT:      -6.6      1.316      1.860
REMARK  Name = 
REMARK  6 active torsions:
REMARK  status: ('A' for Active; 'I' for Inactive)
REMARK    1  A    between atoms: C_1  and  C_2
REMARK    2  A    between atoms: C_2  and  C_3
REMARK    3  A    between atoms: C_2  and  C_4
REMARK    4  A    between atoms: C_9  and  O_10
REMARK    5  A    between atoms: C_16  and  C_17
REMARK    6  A    between atoms: C_19  and  C_21
REMARK                            x       y       z     vdW  Elec       q    Type
REMARK                         _______ _______ _______ _____ _____    ______ ____
ROOT
ATOM      1  C   UNL     1       2.361   6.222  20.092  0.00  0.00    +0.000 C 
ATOM      2  O   UNL     1       2.982   6.648  19.121  0.00  0.00    +0.000 OA
ATOM      3  N   UNL     1       1.504   6.958  20.876  0.00  0.00    +0.000 N 
ATOM      4  C   UNL     1       1.133   8.274  20.638  0.00  0.00    +0.000 A 
ATOM      5  N   UNL     1       1.404   8.873  19.483  0.00  0.00    +0.000 NA
ATOM      6  C   UNL     1       0.998  10.146  19.346  0.00  0.00    +0.000 A 
ATOM      7  C   UNL     1       0.363  10.897  20.318  0.00  0.00    +0.000 A 
ATOM      8  C   UNL     1       0.074  10.135  21.464  0.00  0.00    +0.000 A 
ATOM      9  N   UNL     1       0.440   8.847  21.629  0.00  0.00    +0.000 NA
ATOM     10  N   UNL     1      -0.666  10.646  22.527  0.00  0.00    +0.000 N 
ATOM     11  C   UNL     1      -0.750  12.086  22.607  0.00  0.00    +0.000 C 
ATOM     12  C   UNL     1      -1.134  12.622  21.208  0.00  0.00    +0.000 C 
ATOM     13  C   UNL     1      -1.793  13.992  21.348  0.00  0.00    +0.000 C 
ATOM     14  N   UNL     1       0.012  12.336  20.262  0.00  0.00    +0.000 N 
ATOM     15  C   UNL     1       0.845  13.214  19.531  0.00  0.00    +0.000 C 
ATOM     16  O   UNL     1       1.835  12.876  18.880  0.00  0.00    +0.000 OA
ATOM     17  H   UNL     1       1.149   6.589  21.743  0.00  0.00    +0.000 HD
ATOM     18  H   UNL     1      -0.575  10.086  23.365  0.00  0.00    +0.000 HD
ENDROOT
BRANCH  15  19
ATOM     19  C   UNL     1       0.674  14.679  19.553  0.00  0.00    +0.000 A 
ATOM     20  C   UNL     1       1.264  15.464  20.550  0.00  0.00    +0.000 A 
ATOM     21  C   UNL     1       1.091  16.844  20.513  0.00  0.00    +0.000 A 
ATOM     22  C   UNL     1       0.343  17.388  19.479  0.00  0.00    +0.000 A 
ATOM     23  N   UNL     1      -0.325  16.644  18.572  0.00  0.00    +0.000 NA
ATOM     24  C   UNL     1      -0.192  15.298  18.675  0.00  0.00    +0.000 A 
ENDBRANCH  15  19
BRANCH   1  26
ATOM     25  C   UNL     1       1.160   4.059  20.527  0.00  0.00    +0.000 C 
ATOM     26  C   UNL     1       2.512   4.770  20.555  0.00  0.00    +0.000 C 
ATOM     27  C   UNL     1       3.511   4.020  19.671  0.00  0.00    +0.000 C 
ENDBRANCH   1  26
BRANCH   6  28
ATOM     28  O   UNL     1       1.140  10.557  18.064  0.00  0.00    +0.000 OA
ATOM     29  H   UNL     1       2.069  10.844  18.071  0.00  0.00    +0.000 HD
ENDBRANCH   6  28
TORSDOF 3
ENDMDL
