MODEL 1
REMARK VINA RESULT:      -8.7      0.000      0.000
REMARK  Name = 
REMARK  13 active torsions:
REMARK  status: ('A' for Active; 'I' for Inactive)
REMARK    1  A    between atoms: C_1  and  O_2
REMARK    2  A    between atoms: O_2  and  C_3
REMARK    3  A    between atoms: C_6  and  S_7
REMARK    4  A    between atoms: S_7  and  C_10
REMARK    5  A    between atoms: C_10  and  C_11
REMARK    6  A    between atoms: C_10  and  C_12
REMARK    7  A    between atoms: C_10  and  C_29
REMARK    8  A    between atoms: C_12  and  C_13
REMARK    9  A    between atoms: C_16  and  O_17
REMARK   10  A    between atoms: O_17  and  C_18
REMARK   11  A    between atoms: C_18  and  C_19
REMARK   12  A    between atoms: C_19  and  N_20
REMARK   13  A    between atoms: N_31  and  O_32
REMARK                            x       y       z     vdW  Elec       q    Type
REMARK                         _______ _______ _______ _____ _____    ______ ____
ROOT
ATOM      1  C   UNL     1       2.941   4.615  18.880  0.00  0.00    +0.000 C 
ATOM      2  C   UNL     1       2.715   4.744  20.390  0.00  0.00    +0.000 C 
ENDROOT
BRANCH   1   3
ATOM      3  C   UNL     1       1.688   3.882  18.328  0.00  0.00    +0.000 C 
ATOM      4  O   UNL     1       1.102   4.218  17.294  0.00  0.00    +0.000 OA
ATOM      5  N   UNL     1       1.170   2.852  19.102  0.00  0.00    +0.000 N 
ATOM      6  H   UNL     1       1.805   2.255  19.643  0.00  0.00    +0.000 HD
BRANCH   5   7
ATOM      7  O   UNL     1       0.064   2.174  18.534  0.00  0.00    +0.000 OA
ATOM      8  H   UNL     1       0.374   1.986  17.615  0.00  0.00    +0.000 HD
ENDBRANCH   5   7
ENDBRANCH   1   3
BRANCH   1   9
ATOM      9  S   UNL     1       4.295   3.542  18.428  0.00  0.00    +0.000 S 
ATOM     10  O   UNL     1       3.733   2.322  17.871  0.00  0.00    +0.000 OA
ATOM     11  O   UNL     1       5.175   3.453  19.588  0.00  0.00    +0.000 OA
BRANCH   9  15
ATOM     12  C   UNL     1       7.058   5.055  15.117  0.00  0.00    +0.000 A 
ATOM     13  C   UNL     1       7.458   5.140  16.449  0.00  0.00    +0.000 A 
ATOM     14  C   UNL     1       6.598   4.727  17.473  0.00  0.00    +0.000 A 
ATOM     15  C   UNL     1       5.316   4.264  17.168  0.00  0.00    +0.000 A 
ATOM     16  C   UNL     1       4.917   4.158  15.833  0.00  0.00    +0.000 A 
ATOM     17  C   UNL     1       5.789   4.552  14.816  0.00  0.00    +0.000 A 
BRANCH  12  19
ATOM     18  C   UNL     1       7.484   4.778  12.794  0.00  0.00    +0.000 C 
ATOM     19  O   UNL     1       7.810   5.403  14.029  0.00  0.00    +0.000 OA
ENDBRANCH  12  19
ENDBRANCH   9  15
ENDBRANCH   1   9
BRANCH   1  20
ATOM     20  C   UNL     1       2.998   5.998  18.179  0.00  0.00    +0.000 C 
BRANCH  20  21
ATOM     21  C   UNL     1       2.477   7.283  18.802  0.00  0.00    +0.000 A 
ATOM     22  C   UNL     1       2.232   8.403  17.994  0.00  0.00    +0.000 A 
ATOM     23  C   UNL     1       1.448   9.479  18.451  0.00  0.00    +0.000 A 
ATOM     24  C   UNL     1       0.864   9.452  19.716  0.00  0.00    +0.000 A 
ATOM     25  C   UNL     1       1.210   8.403  20.573  0.00  0.00    +0.000 A 
ATOM     26  C   UNL     1       2.002   7.327  20.121  0.00  0.00    +0.000 A 
BRANCH  24  27
ATOM     27  O   UNL     1      -0.061  10.363  20.188  0.00  0.00    +0.000 OA
BRANCH  27  28
ATOM     28  C   UNL     1       0.177  10.879  21.517  0.00  0.00    +0.000 C 
BRANCH  28  29
ATOM     29  C   UNL     1       0.017  12.426  21.579  0.00  0.00    +0.000 C 
BRANCH  29  30
ATOM     30  N   UNL     1      -1.003  12.918  22.553  0.00  0.00    +0.000 NA
ATOM     31  C   UNL     1      -1.556  14.223  22.164  0.00  0.00    +0.000 C 
ATOM     32  C   UNL     1      -1.965  15.065  23.384  0.00  0.00    +0.000 C 
ATOM     33  C   UNL     1      -3.317  14.737  24.008  0.00  0.00    +0.000 C 
ATOM     34  C   UNL     1      -3.477  13.291  24.454  0.00  0.00    +0.000 C 
ATOM     35  C   UNL     1      -3.423  12.314  23.287  0.00  0.00    +0.000 C 
ATOM     36  C   UNL     1      -2.013  11.893  22.847  0.00  0.00    +0.000 C 
ENDBRANCH  29  30
ENDBRANCH  28  29
ENDBRANCH  27  28
ENDBRANCH  24  27
ENDBRANCH  20  21
ENDBRANCH   1  20
TORSDOF 11
ENDMDL
MODEL 2
REMARK VINA RESULT:      -8.6      0.388      1.366
REMARK  Name = 
REMARK  13 active torsions:
REMARK  status: ('A' for Active; 'I' for Inactive)
REMARK    1  A    between atoms: C_1  and  O_2
REMARK    2  A    between atoms: O_2  and  C_3
REMARK    3  A    between atoms: C_6  and  S_7
REMARK    4  A    between atoms: S_7  and  C_10
REMARK    5  A    between atoms: C_10  and  C_11
REMARK    6  A    between atoms: C_10  and  C_12
REMARK    7  A    between atoms: C_10  and  C_29
REMARK    8  A    between atoms: C_12  and  C_13
REMARK    9  A    between atoms: C_16  and  O_17
REMARK   10  A    between atoms: O_17  and  C_18
REMARK   11  A    between atoms: C_18  and  C_19
REMARK   12  A    between atoms: C_19  and  N_20
REMARK   13  A    between atoms: N_31  and  O_32
REMARK                            x       y       z     vdW  Elec       q    Type
REMARK                         _______ _______ _______ _____ _____    ______ ____
ROOT
ATOM      1  C   UNL     1       3.069   4.580  19.051  0.00  0.00    +0.000 C 
ATOM      2  C   UNL     1       2.802   4.578  20.560  0.00  0.00    +0.000 C 
ENDROOT
BRANCH   1   3
ATOM      3  C   UNL     1       1.794   3.979  18.398  0.00  0.00    +0.000 C 
ATOM      4  O   UNL     1       1.291   4.416  17.357  0.00  0.00    +0.000 OA
ATOM      5  N   UNL     1       1.159   2.954  19.085  0.00  0.00    +0.000 N 
ATOM      6  H   UNL     1       1.716   2.280  19.621  0.00  0.00    +0.000 HD
BRANCH   5   7
ATOM      7  O   UNL     1       0.034   2.398  18.427  0.00  0.00    +0.000 OA
ATOM      8  H   UNL     1      -0.115   3.032  17.683  0.00  0.00    +0.000 HD
ENDBRANCH   5   7
ENDBRANCH   1   3
BRANCH   1   9
ATOM      9  S   UNL     1       4.373   3.474  18.533  0.00  0.00    +0.000 S 
ATOM     10  O   UNL     1       3.754   2.291  17.958  0.00  0.00    +0.000 OA
ATOM     11  O   UNL     1       5.279   3.323  19.665  0.00  0.00    +0.000 OA
BRANCH   9  15
ATOM     12  C   UNL     1       7.072   4.984  15.167  0.00  0.00    +0.000 A 
ATOM     13  C   UNL     1       7.557   4.919  16.472  0.00  0.00    +0.000 A 
ATOM     14  C   UNL     1       6.723   4.507  17.517  0.00  0.00    +0.000 A 
ATOM     15  C   UNL     1       5.385   4.196  17.265  0.00  0.00    +0.000 A 
ATOM     16  C   UNL     1       4.898   4.241  15.957  0.00  0.00    +0.000 A 
ATOM     17  C   UNL     1       5.742   4.633  14.916  0.00  0.00    +0.000 A 
BRANCH  12  19
ATOM     18  C   UNL     1       7.385   4.786  12.818  0.00  0.00    +0.000 C 
ATOM     19  O   UNL     1       7.789   5.347  14.061  0.00  0.00    +0.000 OA
ENDBRANCH  12  19
ENDBRANCH   9  15
ENDBRANCH   1   9
BRANCH   1  20
ATOM     20  C   UNL     1       3.228   6.017  18.489  0.00  0.00    +0.000 C 
BRANCH  20  21
ATOM     21  C   UNL     1       2.263   7.153  18.788  0.00  0.00    +0.000 A 
ATOM     22  C   UNL     1       1.906   7.435  20.115  0.00  0.00    +0.000 A 
ATOM     23  C   UNL     1       1.302   8.657  20.467  0.00  0.00    +0.000 A 
ATOM     24  C   UNL     1       1.064   9.640  19.507  0.00  0.00    +0.000 A 
ATOM     25  C   UNL     1       1.296   9.315  18.167  0.00  0.00    +0.000 A 
ATOM     26  C   UNL     1       1.895   8.089  17.810  0.00  0.00    +0.000 A 
BRANCH  24  27
ATOM     27  O   UNL     1       0.648  10.930  19.772  0.00  0.00    +0.000 OA
BRANCH  27  28
ATOM     28  C   UNL     1       0.466  11.265  21.167  0.00  0.00    +0.000 C 
BRANCH  28  29
ATOM     29  C   UNL     1       0.256  12.792  21.377  0.00  0.00    +0.000 C 
BRANCH  29  30
ATOM     30  N   UNL     1      -1.034  13.170  22.028  0.00  0.00    +0.000 NA
ATOM     31  C   UNL     1      -1.388  12.260  23.126  0.00  0.00    +0.000 C 
ATOM     32  C   UNL     1      -2.910  12.119  23.294  0.00  0.00    +0.000 C 
ATOM     33  C   UNL     1      -3.611  13.234  24.062  0.00  0.00    +0.000 C 
ATOM     34  C   UNL     1      -3.403  14.628  23.490  0.00  0.00    +0.000 C 
ATOM     35  C   UNL     1      -1.947  15.070  23.551  0.00  0.00    +0.000 C 
ATOM     36  C   UNL     1      -1.066  14.595  22.385  0.00  0.00    +0.000 C 
ENDBRANCH  29  30
ENDBRANCH  28  29
ENDBRANCH  27  28
ENDBRANCH  24  27
ENDBRANCH  20  21
ENDBRANCH   1  20
TORSDOF 11
ENDMDL
MODEL 3
REMARK VINA RESULT:      -8.5      2.702      3.444
REMARK  Name = 
REMARK  13 active torsions:
REMARK  status: ('A' for Active; 'I' for Inactive)
REMARK    1  A    between atoms: C_1  and  O_2
REMARK    2  A    between atoms: O_2  and  C_3
REMARK    3  A    between atoms: C_6  and  S_7
REMARK    4  A    between atoms: S_7  and  C_10
REMARK    5  A    between atoms: C_10  and  C_11
REMARK    6  A    between atoms: C_10  and  C_12
REMARK    7  A    between atoms: C_10  and  C_29
REMARK    8  A    between atoms: C_12  and  C_13
REMARK    9  A    between atoms: C_16  and  O_17
REMARK   10  A    between atoms: O_17  and  C_18
REMARK   11  A    between atoms: C_18  and  C_19
REMARK   12  A    between atoms: C_19  and  N_20
REMARK   13  A    between atoms: N_31  and  O_32
REMARK                            x       y       z     vdW  Elec       q    Type
REMARK                         _______ _______ _______ _____ _____    ______ ____
ROOT
ATOM      1  C   UNL     1       2.905   3.843  20.073  0.00  0.00    +0.000 C 
ATOM      2  C   UNL     1       2.423   3.141  21.347  0.00  0.00    +0.000 C 
ENDROOT
BRANCH   1   3
ATOM      3  C   UNL     1       1.689   3.845  19.107  0.00  0.00    +0.000 C 
ATOM      4  O   UNL     1       0.585   3.373  19.400  0.00  0.00    +0.000 OA
ATOM      5  N   UNL     1       1.904   4.329  17.824  0.00  0.00    +0.000 N 
ATOM      6  H   UNL     1       2.561   5.104  17.678  0.00  0.00    +0.000 HD
BRANCH   5   7
ATOM      7  O   UNL     1       0.756   4.364  16.996  0.00  0.00    +0.000 OA
ATOM      8  H   UNL     1       0.498   3.412  16.946  0.00  0.00    +0.000 HD
ENDBRANCH   5   7
ENDBRANCH   1   3
BRANCH   1   9
ATOM      9  S   UNL     1       4.162   2.950  19.171  0.00  0.00    +0.000 S 
ATOM     10  O   UNL     1       3.502   2.168  18.139  0.00  0.00    +0.000 OA
ATOM     11  O   UNL     1       4.991   2.267  20.157  0.00  0.00    +0.000 OA
BRANCH   9  15
ATOM     12  C   UNL     1       6.823   6.056  17.131  0.00  0.00    +0.000 A 
ATOM     13  C   UNL     1       5.950   5.280  16.370  0.00  0.00    +0.000 A 
ATOM     14  C   UNL     1       5.169   4.291  16.979  0.00  0.00    +0.000 A 
ATOM     15  C   UNL     1       5.289   4.048  18.349  0.00  0.00    +0.000 A 
ATOM     16  C   UNL     1       6.148   4.835  19.120  0.00  0.00    +0.000 A 
ATOM     17  C   UNL     1       6.908   5.835  18.508  0.00  0.00    +0.000 A 
BRANCH  12  19
ATOM     18  C   UNL     1       7.886   8.141  17.549  0.00  0.00    +0.000 C 
ATOM     19  O   UNL     1       7.619   7.063  16.661  0.00  0.00    +0.000 OA
ENDBRANCH  12  19
ENDBRANCH   9  15
ENDBRANCH   1   9
BRANCH   1  20
ATOM     20  C   UNL     1       3.277   5.327  20.331  0.00  0.00    +0.000 C 
BRANCH  20  21
ATOM     21  C   UNL     1       2.404   6.501  19.916  0.00  0.00    +0.000 A 
ATOM     22  C   UNL     1       1.529   7.083  20.844  0.00  0.00    +0.000 A 
ATOM     23  C   UNL     1       0.963   8.354  20.621  0.00  0.00    +0.000 A 
ATOM     24  C   UNL     1       1.280   9.087  19.479  0.00  0.00    +0.000 A 
ATOM     25  C   UNL     1       2.045   8.460  18.491  0.00  0.00    +0.000 A 
ATOM     26  C   UNL     1       2.608   7.184  18.708  0.00  0.00    +0.000 A 
BRANCH  24  27
ATOM     27  O   UNL     1       0.927  10.403  19.252  0.00  0.00    +0.000 OA
BRANCH  27  28
ATOM     28  C   UNL     1      -0.464  10.733  19.467  0.00  0.00    +0.000 C 
BRANCH  28  29
ATOM     29  C   UNL     1      -1.307  10.576  18.168  0.00  0.00    +0.000 C 
BRANCH  29  30
ATOM     30  N   UNL     1      -2.755  10.913  18.310  0.00  0.00    +0.000 NA
ATOM     31  C   UNL     1      -2.960  12.241  18.906  0.00  0.00    +0.000 C 
ATOM     32  C   UNL     1      -4.258  12.312  19.728  0.00  0.00    +0.000 C 
ATOM     33  C   UNL     1      -5.545  12.526  18.940  0.00  0.00    +0.000 C 
ATOM     34  C   UNL     1      -5.814  11.481  17.866  0.00  0.00    +0.000 C 
ATOM     35  C   UNL     1      -4.763  11.497  16.764  0.00  0.00    +0.000 C 
ATOM     36  C   UNL     1      -3.490  10.689  17.057  0.00  0.00    +0.000 C 
ENDBRANCH  29  30
ENDBRANCH  28  29
ENDBRANCH  27  28
ENDBRANCH  24  27
ENDBRANCH  20  21
ENDBRANCH   1  20
TORSDOF 11
ENDMDL
MODEL 4
REMARK VINA RESULT:      -8.5      4.984      8.506
REMARK  Name = 
REMARK  13 active torsions:
REMARK  status: ('A' for Active; 'I' for Inactive)
REMARK    1  A    between atoms: C_1  and  O_2
REMARK    2  A    between atoms: O_2  and  C_3
REMARK    3  A    between atoms: C_6  and  S_7
REMARK    4  A    between atoms: S_7  and  C_10
REMARK    5  A    between atoms: C_10  and  C_11
REMARK    6  A    between atoms: C_10  and  C_12
REMARK    7  A    between atoms: C_10  and  C_29
REMARK    8  A    between atoms: C_12  and  C_13
REMARK    9  A    between atoms: C_16  and  O_17
REMARK   10  A    between atoms: O_17  and  C_18
REMARK   11  A    between atoms: C_18  and  C_19
REMARK   12  A    between atoms: C_19  and  N_20
REMARK   13  A    between atoms: N_31  and  O_32
REMARK                            x       y       z     vdW  Elec       q    Type
REMARK                         _______ _______ _______ _____ _____    ______ ____
ROOT
ATOM      1  C   UNL     1       4.108   3.977  18.433  0.00  0.00    +0.000 C 
ATOM      2  C   UNL     1       4.463   3.865  16.946  0.00  0.00    +0.000 C 
ENDROOT
BRANCH   1   3
ATOM      3  C   UNL     1       4.276   2.547  19.014  0.00  0.00    +0.000 C 
ATOM      4  O   UNL     1       4.802   2.313  20.108  0.00  0.00    +0.000 OA
ATOM      5  N   UNL     1       3.886   1.489  18.205  0.00  0.00    +0.000 N 
ATOM      6  H   UNL     1       3.080   1.598  17.580  0.00  0.00    +0.000 HD
BRANCH   5   7
ATOM      7  O   UNL     1       4.004   0.207  18.796  0.00  0.00    +0.000 OA
ATOM      8  H   UNL     1       3.873   0.399  19.756  0.00  0.00    +0.000 HD
ENDBRANCH   5   7
ENDBRANCH   1   3
BRANCH   1   9
ATOM      9  S   UNL     1       2.394   4.366  18.753  0.00  0.00    +0.000 S 
ATOM     10  O   UNL     1       1.958   3.568  19.887  0.00  0.00    +0.000 OA
ATOM     11  O   UNL     1       1.685   4.245  17.485  0.00  0.00    +0.000 OA
BRANCH   9  15
ATOM     12  C   UNL     1       1.470   8.706  19.852  0.00  0.00    +0.000 A 
ATOM     13  C   UNL     1       1.912   8.392  18.568  0.00  0.00    +0.000 A 
ATOM     14  C   UNL     1       2.247   7.074  18.237  0.00  0.00    +0.000 A 
ATOM     15  C   UNL     1       2.179   6.069  19.205  0.00  0.00    +0.000 A 
ATOM     16  C   UNL     1       1.719   6.374  20.488  0.00  0.00    +0.000 A 
ATOM     17  C   UNL     1       1.366   7.688  20.805  0.00  0.00    +0.000 A 
BRANCH  12  19
ATOM     18  C   UNL     1       0.976  10.968  19.310  0.00  0.00    +0.000 C 
ATOM     19  O   UNL     1       1.094   9.944  20.291  0.00  0.00    +0.000 OA
ENDBRANCH  12  19
ENDBRANCH   9  15
ENDBRANCH   1   9
BRANCH   1  20
ATOM     20  C   UNL     1       5.096   4.894  19.201  0.00  0.00    +0.000 C 
BRANCH  20  21
ATOM     21  C   UNL     1       6.148   5.758  18.523  0.00  0.00    +0.000 A 
ATOM     22  C   UNL     1       5.780   6.612  17.473  0.00  0.00    +0.000 A 
ATOM     23  C   UNL     1       6.624   7.657  17.049  0.00  0.00    +0.000 A 
ATOM     24  C   UNL     1       7.845   7.891  17.680  0.00  0.00    +0.000 A 
ATOM     25  C   UNL     1       8.275   6.965  18.636  0.00  0.00    +0.000 A 
ATOM     26  C   UNL     1       7.435   5.914  19.058  0.00  0.00    +0.000 A 
BRANCH  24  27
ATOM     27  O   UNL     1       8.657   8.987  17.465  0.00  0.00    +0.000 OA
BRANCH  27  28
ATOM     28  C   UNL     1       8.690   9.971  18.524  0.00  0.00    +0.000 C 
BRANCH  28  29
ATOM     29  C   UNL     1       8.443  11.411  17.989  0.00  0.00    +0.000 C 
BRANCH  29  30
ATOM     30  N   UNL     1       9.480  12.415  18.372  0.00  0.00    +0.000 NA
ATOM     31  C   UNL     1       9.793  12.369  19.808  0.00  0.00    +0.000 C 
ATOM     32  C   UNL     1      10.206  13.745  20.355  0.00  0.00    +0.000 C 
ATOM     33  C   UNL     1      11.650  14.165  20.108  0.00  0.00    +0.000 C 
ATOM     34  C   UNL     1      12.066  14.180  18.644  0.00  0.00    +0.000 C 
ATOM     35  C   UNL     1      12.028  12.794  18.015  0.00  0.00    +0.000 C 
ATOM     36  C   UNL     1      10.655  12.346  17.492  0.00  0.00    +0.000 C 
ENDBRANCH  29  30
ENDBRANCH  28  29
ENDBRANCH  27  28
ENDBRANCH  24  27
ENDBRANCH  20  21
ENDBRANCH   1  20
TORSDOF 11
ENDMDL
MODEL 5
REMARK VINA RESULT:      -8.5      2.687      3.604
REMARK  Name = 
REMARK  13 active torsions:
REMARK  status: ('A' for Active; 'I' for Inactive)
REMARK    1  A    between atoms: C_1  and  O_2
REMARK    2  A    between atoms: O_2  and  C_3
REMARK    3  A    between atoms: C_6  and  S_7
REMARK    4  A    between atoms: S_7  and  C_10
REMARK    5  A    between atoms: C_10  and  C_11
REMARK    6  A    between atoms: C_10  and  C_12
REMARK    7  A    between atoms: C_10  and  C_29
REMARK    8  A    between atoms: C_12  and  C_13
REMARK    9  A    between atoms: C_16  and  O_17
REMARK   10  A    between atoms: O_17  and  C_18
REMARK   11  A    between atoms: C_18  and  C_19
REMARK   12  A    between atoms: C_19  and  N_20
REMARK   13  A    between atoms: N_31  and  O_32
REMARK                            x       y       z     vdW  Elec       q    Type
REMARK                         _______ _______ _______ _____ _____    ______ ____
ROOT
ATOM      1  C   UNL     1       3.493   3.542  19.451  0.00  0.00    +0.000 C 
ATOM      2  C   UNL     1       4.410   2.539  20.159  0.00  0.00    +0.000 C 
ENDROOT
BRANCH   1   3
ATOM      3  C   UNL     1       2.057   3.226  19.952  0.00  0.00    +0.000 C 
ATOM      4  O   UNL     1       1.713   3.315  21.135  0.00  0.00    +0.000 OA
ATOM      5  N   UNL     1       1.157   2.737  19.015  0.00  0.00    +0.000 N 
ATOM      6  H   UNL     1       1.203   3.070  18.046  0.00  0.00    +0.000 HD
BRANCH   5   7
ATOM      7  O   UNL     1      -0.154   2.516  19.501  0.00  0.00    +0.000 OA
ATOM      8  H   UNL     1      -0.666   2.351  18.672  0.00  0.00    +0.000 HD
ENDBRANCH   5   7
ENDBRANCH   1   3
BRANCH   1   9
ATOM      9  S   UNL     1       3.384   3.318  17.682  0.00  0.00    +0.000 S 
ATOM     10  O   UNL     1       2.156   3.947  17.226  0.00  0.00    +0.000 OA
ATOM     11  O   UNL     1       3.596   1.900  17.418  0.00  0.00    +0.000 OA
BRANCH   9  15
ATOM     12  C   UNL     1       6.933   5.038  15.371  0.00  0.00    +0.000 A 
ATOM     13  C   UNL     1       7.055   4.765  16.732  0.00  0.00    +0.000 A 
ATOM     14  C   UNL     1       5.959   4.287  17.459  0.00  0.00    +0.000 A 
ATOM     15  C   UNL     1       4.722   4.118  16.833  0.00  0.00    +0.000 A 
ATOM     16  C   UNL     1       4.598   4.371  15.465  0.00  0.00    +0.000 A 
ATOM     17  C   UNL     1       5.702   4.828  14.741  0.00  0.00    +0.000 A 
BRANCH  12  19
ATOM     18  C   UNL     1       7.796   5.200  13.161  0.00  0.00    +0.000 C 
ATOM     19  O   UNL     1       7.929   5.486  14.549  0.00  0.00    +0.000 OA
ENDBRANCH  12  19
ENDBRANCH   9  15
ENDBRANCH   1   9
BRANCH   1  20
ATOM     20  C   UNL     1       3.801   5.006  19.863  0.00  0.00    +0.000 C 
BRANCH  20  21
ATOM     21  C   UNL     1       2.835   6.163  19.658  0.00  0.00    +0.000 A 
ATOM     22  C   UNL     1       2.035   6.602  20.722  0.00  0.00    +0.000 A 
ATOM     23  C   UNL     1       1.390   7.853  20.687  0.00  0.00    +0.000 A 
ATOM     24  C   UNL     1       1.550   8.709  19.598  0.00  0.00    +0.000 A 
ATOM     25  C   UNL     1       2.237   8.225  18.481  0.00  0.00    +0.000 A 
ATOM     26  C   UNL     1       2.879   6.969  18.511  0.00  0.00    +0.000 A 
BRANCH  24  27
ATOM     27  O   UNL     1       1.114  10.018  19.542  0.00  0.00    +0.000 OA
BRANCH  27  28
ATOM     28  C   UNL     1      -0.312  10.207  19.398  0.00  0.00    +0.000 C 
BRANCH  28  29
ATOM     29  C   UNL     1      -0.655  11.575  18.740  0.00  0.00    +0.000 C 
BRANCH  29  30
ATOM     30  N   UNL     1      -1.878  11.575  17.882  0.00  0.00    +0.000 NA
ATOM     31  C   UNL     1      -1.940  10.397  17.005  0.00  0.00    +0.000 C 
ATOM     32  C   UNL     1      -2.665  10.698  15.682  0.00  0.00    +0.000 C 
ATOM     33  C   UNL     1      -4.188  10.680  15.727  0.00  0.00    +0.000 C 
ATOM     34  C   UNL     1      -4.806  11.630  16.741  0.00  0.00    +0.000 C 
ATOM     35  C   UNL     1      -4.444  11.266  18.175  0.00  0.00    +0.000 C 
ATOM     36  C   UNL     1      -3.095  11.809  18.671  0.00  0.00    +0.000 C 
ENDBRANCH  29  30
ENDBRANCH  28  29
ENDBRANCH  27  28
ENDBRANCH  24  27
ENDBRANCH  20  21
ENDBRANCH   1  20
TORSDOF 11
ENDMDL
MODEL 6
REMARK VINA RESULT:      -8.4      2.114      2.968
REMARK  Name = 
REMARK  13 active torsions:
REMARK  status: ('A' for Active; 'I' for Inactive)
REMARK    1  A    between atoms: C_1  and  O_2
REMARK    2  A    between atoms: O_2  and  C_3
REMARK    3  A    between atoms: C_6  and  S_7
REMARK    4  A    between atoms: S_7  and  C_10
REMARK    5  A    between atoms: C_10  and  C_11
REMARK    6  A    between atoms: C_10  and  C_12
REMARK    7  A    between atoms: C_10  and  C_29
REMARK    8  A    between atoms: C_12  and  C_13
REMARK    9  A    between atoms: C_16  and  O_17
REMARK   10  A    between atoms: O_17  and  C_18
REMARK   11  A    between atoms: C_18  and  C_19
REMARK   12  A    between atoms: C_19  and  N_20
REMARK   13  A    between atoms: N_31  and  O_32
REMARK                            x       y       z     vdW  Elec       q    Type
REMARK                         _______ _______ _______ _____ _____    ______ ____
ROOT
ATOM      1  C   UNL     1       3.008   4.558  18.914  0.00  0.00    +0.000 C 
ATOM      2  C   UNL     1       2.697   4.785  20.397  0.00  0.00    +0.000 C 
ENDROOT
BRANCH   1   3
ATOM      3  C   UNL     1       1.755   3.854  18.324  0.00  0.00    +0.000 C 
ATOM      4  O   UNL     1       1.219   4.193  17.263  0.00  0.00    +0.000 OA
ATOM      5  N   UNL     1       1.176   2.853  19.092  0.00  0.00    +0.000 N 
ATOM      6  H   UNL     1       1.771   2.245  19.665  0.00  0.00    +0.000 HD
BRANCH   5   7
ATOM      7  O   UNL     1       0.072   2.201  18.492  0.00  0.00    +0.000 OA
ATOM      8  H   UNL     1       0.506   1.594  17.844  0.00  0.00    +0.000 HD
ENDBRANCH   5   7
ENDBRANCH   1   3
BRANCH   1   9
ATOM      9  S   UNL     1       4.330   3.396  18.609  0.00  0.00    +0.000 S 
ATOM     10  O   UNL     1       3.731   2.119  18.254  0.00  0.00    +0.000 OA
ATOM     11  O   UNL     1       5.231   3.463  19.754  0.00  0.00    +0.000 OA
BRANCH   9  15
ATOM     12  C   UNL     1       6.839   5.031  15.156  0.00  0.00    +0.000 A 
ATOM     13  C   UNL     1       5.550   4.558  14.917  0.00  0.00    +0.000 A 
ATOM     14  C   UNL     1       4.794   4.008  15.958  0.00  0.00    +0.000 A 
ATOM     15  C   UNL     1       5.341   3.893  17.237  0.00  0.00    +0.000 A 
ATOM     16  C   UNL     1       6.626   4.382  17.488  0.00  0.00    +0.000 A 
ATOM     17  C   UNL     1       7.367   4.949  16.448  0.00  0.00    +0.000 A 
BRANCH  12  19
ATOM     18  C   UNL     1       7.658   5.052  12.924  0.00  0.00    +0.000 C 
ATOM     19  O   UNL     1       7.668   5.607  14.234  0.00  0.00    +0.000 OA
ENDBRANCH  12  19
ENDBRANCH   9  15
ENDBRANCH   1   9
BRANCH   1  20
ATOM     20  C   UNL     1       3.180   5.893  18.143  0.00  0.00    +0.000 C 
BRANCH  20  21
ATOM     21  C   UNL     1       2.657   7.231  18.643  0.00  0.00    +0.000 A 
ATOM     22  C   UNL     1       2.498   8.298  17.748  0.00  0.00    +0.000 A 
ATOM     23  C   UNL     1       1.718   9.423  18.079  0.00  0.00    +0.000 A 
ATOM     24  C   UNL     1       1.054   9.497  19.303  0.00  0.00    +0.000 A 
ATOM     25  C   UNL     1       1.314   8.500  20.249  0.00  0.00    +0.000 A 
ATOM     26  C   UNL     1       2.100   7.376  19.922  0.00  0.00    +0.000 A 
BRANCH  24  27
ATOM     27  O   UNL     1       0.128  10.460  19.651  0.00  0.00    +0.000 OA
BRANCH  27  28
ATOM     28  C   UNL     1      -0.374  11.278  18.570  0.00  0.00    +0.000 C 
BRANCH  28  29
ATOM     29  C   UNL     1      -0.778  12.701  19.055  0.00  0.00    +0.000 C 
BRANCH  29  30
ATOM     30  N   UNL     1       0.358  13.652  19.242  0.00  0.00    +0.000 NA
ATOM     31  C   UNL     1       0.720  13.813  20.658  0.00  0.00    +0.000 C 
ATOM     32  C   UNL     1       1.273  15.215  20.959  0.00  0.00    +0.000 C 
ATOM     33  C   UNL     1       2.739  15.451  20.613  0.00  0.00    +0.000 C 
ATOM     34  C   UNL     1       3.099  15.187  19.158  0.00  0.00    +0.000 C 
ATOM     35  C   UNL     1       2.914  13.726  18.769  0.00  0.00    +0.000 C 
ATOM     36  C   UNL     1       1.488  13.330  18.360  0.00  0.00    +0.000 C 
ENDBRANCH  29  30
ENDBRANCH  28  29
ENDBRANCH  27  28
ENDBRANCH  24  27
ENDBRANCH  20  21
ENDBRANCH   1  20
TORSDOF 11
ENDMDL
MODEL 7
REMARK VINA RESULT:      -8.3      2.881      3.917
REMARK  Name = 
REMARK  13 active torsions:
REMARK  status: ('A' for Active; 'I' for Inactive)
REMARK    1  A    between atoms: C_1  and  O_2
REMARK    2  A    between atoms: O_2  and  C_3
REMARK    3  A    between atoms: C_6  and  S_7
REMARK    4  A    between atoms: S_7  and  C_10
REMARK    5  A    between atoms: C_10  and  C_11
REMARK    6  A    between atoms: C_10  and  C_12
REMARK    7  A    between atoms: C_10  and  C_29
REMARK    8  A    between atoms: C_12  and  C_13
REMARK    9  A    between atoms: C_16  and  O_17
REMARK   10  A    between atoms: O_17  and  C_18
REMARK   11  A    between atoms: C_18  and  C_19
REMARK   12  A    between atoms: C_19  and  N_20
REMARK   13  A    between atoms: N_31  and  O_32
REMARK                            x       y       z     vdW  Elec       q    Type
REMARK                         _______ _______ _______ _____ _____    ______ ____
ROOT
ATOM      1  C   UNL     1       3.680   4.357  19.279  0.00  0.00    +0.000 C 
ATOM      2  C   UNL     1       4.979   5.161  19.399  0.00  0.00    +0.000 C 
ENDROOT
BRANCH   1   3
ATOM      3  C   UNL     1       3.920   3.047  20.078  0.00  0.00    +0.000 C 
ATOM      4  O   UNL     1       3.130   2.608  20.921  0.00  0.00    +0.000 OA
ATOM      5  N   UNL     1       5.133   2.402  19.879  0.00  0.00    +0.000 N 
ATOM      6  H   UNL     1       5.570   2.416  18.951  0.00  0.00    +0.000 HD
BRANCH   5   7
ATOM      7  O   UNL     1       5.287   1.183  20.584  0.00  0.00    +0.000 OA
ATOM      8  H   UNL     1       5.152   0.507  19.877  0.00  0.00    +0.000 HD
ENDBRANCH   5   7
ENDBRANCH   1   3
BRANCH   1   9
ATOM      9  S   UNL     1       3.319   3.785  17.626  0.00  0.00    +0.000 S 
ATOM     10  O   UNL     1       2.049   4.363  17.220  0.00  0.00    +0.000 OA
ATOM     11  O   UNL     1       3.469   2.335  17.633  0.00  0.00    +0.000 OA
BRANCH   9  15
ATOM     12  C   UNL     1       6.697   5.225  14.903  0.00  0.00    +0.000 A 
ATOM     13  C   UNL     1       5.771   6.138  15.406  0.00  0.00    +0.000 A 
ATOM     14  C   UNL     1       4.704   5.699  16.198  0.00  0.00    +0.000 A 
ATOM     15  C   UNL     1       4.536   4.337  16.457  0.00  0.00    +0.000 A 
ATOM     16  C   UNL     1       5.471   3.420  15.972  0.00  0.00    +0.000 A 
ATOM     17  C   UNL     1       6.546   3.867  15.200  0.00  0.00    +0.000 A 
BRANCH  12  19
ATOM     18  C   UNL     1       7.746   5.141  12.771  0.00  0.00    +0.000 C 
ATOM     19  O   UNL     1       7.789   5.528  14.140  0.00  0.00    +0.000 OA
ENDBRANCH  12  19
ENDBRANCH   9  15
ENDBRANCH   1   9
BRANCH   1  20
ATOM     20  C   UNL     1       2.482   5.081  19.950  0.00  0.00    +0.000 C 
BRANCH  20  21
ATOM     21  C   UNL     1       2.267   6.585  19.896  0.00  0.00    +0.000 A 
ATOM     22  C   UNL     1       2.491   7.281  18.700  0.00  0.00    +0.000 A 
ATOM     23  C   UNL     1       1.994   8.584  18.506  0.00  0.00    +0.000 A 
ATOM     24  C   UNL     1       1.236   9.214  19.492  0.00  0.00    +0.000 A 
ATOM     25  C   UNL     1       1.120   8.580  20.733  0.00  0.00    +0.000 A 
ATOM     26  C   UNL     1       1.624   7.277  20.933  0.00  0.00    +0.000 A 
BRANCH  24  27
ATOM     27  O   UNL     1       0.555  10.405  19.335  0.00  0.00    +0.000 OA
BRANCH  27  28
ATOM     28  C   UNL     1       1.302  11.490  18.739  0.00  0.00    +0.000 C 
BRANCH  28  29
ATOM     29  C   UNL     1       0.821  12.878  19.251  0.00  0.00    +0.000 C 
BRANCH  29  30
ATOM     30  N   UNL     1       1.902  13.893  19.437  0.00  0.00    +0.000 NA
ATOM     31  C   UNL     1       2.746  13.597  20.604  0.00  0.00    +0.000 C 
ATOM     32  C   UNL     1       3.305  14.874  21.253  0.00  0.00    +0.000 C 
ATOM     33  C   UNL     1       4.532  15.488  20.587  0.00  0.00    +0.000 C 
ATOM     34  C   UNL     1       4.350  15.838  19.118  0.00  0.00    +0.000 C 
ATOM     35  C   UNL     1       4.104  14.608  18.254  0.00  0.00    +0.000 C 
ATOM     36  C   UNL     1       2.647  14.127  18.193  0.00  0.00    +0.000 C 
ENDBRANCH  29  30
ENDBRANCH  28  29
ENDBRANCH  27  28
ENDBRANCH  24  27
ENDBRANCH  20  21
ENDBRANCH   1  20
TORSDOF 11
ENDMDL
MODEL 8
REMARK VINA RESULT:      -8.3      4.701      8.324
REMARK  Name = 
REMARK  13 active torsions:
REMARK  status: ('A' for Active; 'I' for Inactive)
REMARK    1  A    between atoms: C_1  and  O_2
REMARK    2  A    between atoms: O_2  and  C_3
REMARK    3  A    between atoms: C_6  and  S_7
REMARK    4  A    between atoms: S_7  and  C_10
REMARK    5  A    between atoms: C_10  and  C_11
REMARK    6  A    between atoms: C_10  and  C_12
REMARK    7  A    between atoms: C_10  and  C_29
REMARK    8  A    between atoms: C_12  and  C_13
REMARK    9  A    between atoms: C_16  and  O_17
REMARK   10  A    between atoms: O_17  and  C_18
REMARK   11  A    between atoms: C_18  and  C_19
REMARK   12  A    between atoms: C_19  and  N_20
REMARK   13  A    between atoms: N_31  and  O_32
REMARK                            x       y       z     vdW  Elec       q    Type
REMARK                         _______ _______ _______ _____ _____    ______ ____
ROOT
ATOM      1  C   UNL     1       3.250   4.022  18.328  0.00  0.00    +0.000 C 
ATOM      2  C   UNL     1       1.813   3.613  17.987  0.00  0.00    +0.000 C 
ENDROOT
BRANCH   1   3
ATOM      3  C   UNL     1       3.958   2.723  18.798  0.00  0.00    +0.000 C 
ATOM      4  O   UNL     1       4.682   2.664  19.798  0.00  0.00    +0.000 OA
ATOM      5  N   UNL     1       3.822   1.604  17.988  0.00  0.00    +0.000 N 
ATOM      6  H   UNL     1       2.944   1.447  17.481  0.00  0.00    +0.000 HD
BRANCH   5   7
ATOM      7  O   UNL     1       4.436   0.427  18.482  0.00  0.00    +0.000 OA
ATOM      8  H   UNL     1       5.267   0.377  17.949  0.00  0.00    +0.000 HD
ENDBRANCH   5   7
ENDBRANCH   1   3
BRANCH   1   9
ATOM      9  S   UNL     1       3.388   5.114  19.735  0.00  0.00    +0.000 S 
ATOM     10  O   UNL     1       4.784   5.501  19.866  0.00  0.00    +0.000 OA
ATOM     11  O   UNL     1       2.727   4.454  20.855  0.00  0.00    +0.000 OA
BRANCH   9  15
ATOM     12  C   UNL     1       1.301   9.150  19.234  0.00  0.00    +0.000 A 
ATOM     13  C   UNL     1       1.171   8.442  20.428  0.00  0.00    +0.000 A 
ATOM     14  C   UNL     1       1.764   7.183  20.572  0.00  0.00    +0.000 A 
ATOM     15  C   UNL     1       2.457   6.607  19.505  0.00  0.00    +0.000 A 
ATOM     16  C   UNL     1       2.607   7.320  18.312  0.00  0.00    +0.000 A 
ATOM     17  C   UNL     1       2.031   8.585  18.183  0.00  0.00    +0.000 A 
BRANCH  12  19
ATOM     18  C   UNL     1       1.679  11.348  18.410  0.00  0.00    +0.000 C 
ATOM     19  O   UNL     1       0.791  10.391  18.977  0.00  0.00    +0.000 OA
ENDBRANCH  12  19
ENDBRANCH   9  15
ENDBRANCH   1   9
BRANCH   1  20
ATOM     20  C   UNL     1       4.023   4.531  17.083  0.00  0.00    +0.000 C 
BRANCH  20  21
ATOM     21  C   UNL     1       5.330   5.304  17.157  0.00  0.00    +0.000 A 
ATOM     22  C   UNL     1       5.357   6.666  16.825  0.00  0.00    +0.000 A 
ATOM     23  C   UNL     1       6.438   7.489  17.194  0.00  0.00    +0.000 A 
ATOM     24  C   UNL     1       7.507   6.979  17.929  0.00  0.00    +0.000 A 
ATOM     25  C   UNL     1       7.550   5.599  18.149  0.00  0.00    +0.000 A 
ATOM     26  C   UNL     1       6.471   4.770  17.774  0.00  0.00    +0.000 A 
BRANCH  24  27
ATOM     27  O   UNL     1       8.519   7.731  18.492  0.00  0.00    +0.000 OA
BRANCH  27  28
ATOM     28  C   UNL     1       8.446   9.159  18.274  0.00  0.00    +0.000 C 
BRANCH  28  29
ATOM     29  C   UNL     1       9.204   9.955  19.376  0.00  0.00    +0.000 C 
BRANCH  29  30
ATOM     30  N   UNL     1       9.584  11.350  18.999  0.00  0.00    +0.000 NA
ATOM     31  C   UNL     1      10.209  12.075  20.115  0.00  0.00    +0.000 C 
ATOM     32  C   UNL     1       9.925  13.585  20.056  0.00  0.00    +0.000 C 
ATOM     33  C   UNL     1      10.798  14.399  19.107  0.00  0.00    +0.000 C 
ATOM     34  C   UNL     1      10.768  13.934  17.659  0.00  0.00    +0.000 C 
ATOM     35  C   UNL     1      11.339  12.532  17.487  0.00  0.00    +0.000 C 
ATOM     36  C   UNL     1      10.352  11.384  17.747  0.00  0.00    +0.000 C 
ENDBRANCH  29  30
ENDBRANCH  28  29
ENDBRANCH  27  28
ENDBRANCH  24  27
ENDBRANCH  20  21
ENDBRANCH   1  20
TORSDOF 11
ENDMDL
MODEL 9
REMARK VINA RESULT:      -8.3      2.573      3.439
REMARK  Name = 
REMARK  13 active torsions:
REMARK  status: ('A' for Active; 'I' for Inactive)
REMARK    1  A    between atoms: C_1  and  O_2
REMARK    2  A    between atoms: O_2  and  C_3
REMARK    3  A    between atoms: C_6  and  S_7
REMARK    4  A    between atoms: S_7  and  C_10
REMARK    5  A    between atoms: C_10  and  C_11
REMARK    6  A    between atoms: C_10  and  C_12
REMARK    7  A    between atoms: C_10  and  C_29
REMARK    8  A    between atoms: C_12  and  C_13
REMARK    9  A    between atoms: C_16  and  O_17
REMARK   10  A    between atoms: O_17  and  C_18
REMARK   11  A    between atoms: C_18  and  C_19
REMARK   12  A    between atoms: C_19  and  N_20
REMARK   13  A    between atoms: N_31  and  O_32
REMARK                            x       y       z     vdW  Elec       q    Type
REMARK                         _______ _______ _______ _____ _____    ______ ____
ROOT
ATOM      1  C   UNL     1       3.079   4.727  18.891  0.00  0.00    +0.000 C 
ATOM      2  C   UNL     1       4.245   5.303  19.701  0.00  0.00    +0.000 C 
ENDROOT
BRANCH   1   3
ATOM      3  C   UNL     1       2.142   4.048  19.928  0.00  0.00    +0.000 C 
ATOM      4  O   UNL     1       0.910   4.146  19.900  0.00  0.00    +0.000 OA
ATOM      5  N   UNL     1       2.749   3.374  20.978  0.00  0.00    +0.000 N 
ATOM      6  H   UNL     1       3.633   2.879  20.820  0.00  0.00    +0.000 HD
BRANCH   5   7
ATOM      7  O   UNL     1       1.860   2.723  21.867  0.00  0.00    +0.000 OA
ATOM      8  H   UNL     1       2.190   1.792  21.859  0.00  0.00    +0.000 HD
ENDBRANCH   5   7
ENDBRANCH   1   3
BRANCH   1   9
ATOM      9  S   UNL     1       3.534   3.394  17.793  0.00  0.00    +0.000 S 
ATOM     10  O   UNL     1       2.391   3.106  16.941  0.00  0.00    +0.000 OA
ATOM     11  O   UNL     1       4.088   2.329  18.620  0.00  0.00    +0.000 OA
BRANCH   9  15
ATOM     12  C   UNL     1       6.908   4.927  15.118  0.00  0.00    +0.000 A 
ATOM     13  C   UNL     1       5.675   4.593  14.561  0.00  0.00    +0.000 A 
ATOM     14  C   UNL     1       4.653   4.074  15.363  0.00  0.00    +0.000 A 
ATOM     15  C   UNL     1       4.875   3.850  16.724  0.00  0.00    +0.000 A 
ATOM     16  C   UNL     1       6.103   4.200  17.292  0.00  0.00    +0.000 A 
ATOM     17  C   UNL     1       7.111   4.737  16.489  0.00  0.00    +0.000 A 
BRANCH  12  19
ATOM     18  C   UNL     1       7.960   5.358  13.030  0.00  0.00    +0.000 C 
ATOM     19  O   UNL     1       7.974   5.460  14.449  0.00  0.00    +0.000 OA
ENDBRANCH  12  19
ENDBRANCH   9  15
ENDBRANCH   1   9
BRANCH   1  20
ATOM     20  C   UNL     1       2.249   5.837  18.193  0.00  0.00    +0.000 C 
BRANCH  20  21
ATOM     21  C   UNL     1       2.115   7.254  18.728  0.00  0.00    +0.000 A 
ATOM     22  C   UNL     1       2.072   8.336  17.838  0.00  0.00    +0.000 A 
ATOM     23  C   UNL     1       1.617   9.604  18.247  0.00  0.00    +0.000 A 
ATOM     24  C   UNL     1       1.168   9.817  19.549  0.00  0.00    +0.000 A 
ATOM     25  C   UNL     1       1.331   8.781  20.474  0.00  0.00    +0.000 A 
ATOM     26  C   UNL     1       1.792   7.511  20.069  0.00  0.00    +0.000 A 
BRANCH  24  27
ATOM     27  O   UNL     1       0.539  10.961  19.999  0.00  0.00    +0.000 OA
BRANCH  27  28
ATOM     28  C   UNL     1       1.062  12.212  19.498  0.00  0.00    +0.000 C 
BRANCH  28  29
ATOM     29  C   UNL     1      -0.071  13.184  19.061  0.00  0.00    +0.000 C 
BRANCH  29  30
ATOM     30  N   UNL     1       0.391  14.524  18.589  0.00  0.00    +0.000 NA
ATOM     31  C   UNL     1      -0.348  15.623  19.227  0.00  0.00    +0.000 C 
ATOM     32  C   UNL     1      -0.471  16.849  18.307  0.00  0.00    +0.000 C 
ATOM     33  C   UNL     1       0.742  17.771  18.245  0.00  0.00    +0.000 C 
ATOM     34  C   UNL     1       2.037  17.091  17.827  0.00  0.00    +0.000 C 
ATOM     35  C   UNL     1       2.491  16.038  18.830  0.00  0.00    +0.000 C 
ATOM     36  C   UNL     1       1.853  14.651  18.663  0.00  0.00    +0.000 C 
ENDBRANCH  29  30
ENDBRANCH  28  29
ENDBRANCH  27  28
ENDBRANCH  24  27
ENDBRANCH  20  21
ENDBRANCH   1  20
TORSDOF 11
ENDMDL
