MODEL 1
REMARK VINA RESULT:      -7.9      0.000      0.000
REMARK  Name = 
REMARK  3 active torsions:
REMARK  status: ('A' for Active; 'I' for Inactive)
REMARK    1  A    between atoms: C_1  and  N_2
REMARK    2  A    between atoms: C_10  and  C_11
REMARK    3  A    between atoms: C_20  and  C_21
REMARK                            x       y       z     vdW  Elec       q    Type
REMARK                         _______ _______ _______ _____ _____    ______ ____
ROOT
ATOM      1  C   UNL     1       2.234   9.117  17.225  0.00  0.00    +0.000 C 
ATOM      2  N   UNL     1       1.799   8.088  18.166  0.00  0.00    +0.000 NA
ATOM      3  C   UNL     1       2.582   6.857  17.983  0.00  0.00    +0.000 C 
ATOM      4  C   UNL     1       2.401   5.859  19.102  0.00  0.00    +0.000 C 
ATOM      5  C   UNL     1       1.772   6.161  20.256  0.00  0.00    +0.000 C 
ATOM      6  N   UNL     1       1.663   5.176  21.211  0.00  0.00    +0.000 N 
ATOM      7  C   UNL     1       2.202   3.945  21.043  0.00  0.00    +0.000 C 
ATOM      8  N   UNL     1       2.057   3.137  22.120  0.00  0.00    +0.000 N 
ATOM      9  N   UNL     1       2.826   3.519  20.005  0.00  0.00    +0.000 NA
ATOM     10  C   UNL     1       3.029   4.485  18.895  0.00  0.00    +0.000 C 
ATOM     11  C   UNL     1       1.299   7.530  20.492  0.00  0.00    +0.000 C 
ATOM     12  C   UNL     1       0.383   7.841  21.433  0.00  0.00    +0.000 C 
ATOM     13  C   UNL     1       1.931   8.548  19.553  0.00  0.00    +0.000 C 
ATOM     14  H   UNL     1       1.454   5.479  22.151  0.00  0.00    +0.000 HD
ATOM     15  H   UNL     1       1.140   3.156  22.546  0.00  0.00    +0.000 HD
ATOM     16  H   UNL     1       2.332   2.188  21.881  0.00  0.00    +0.000 HD
ENDROOT
BRANCH  10  17
ATOM     17  C   UNL     1       4.525   4.626  18.648  0.00  0.00    +0.000 A 
ATOM     18  C   UNL     1       5.351   5.219  19.623  0.00  0.00    +0.000 A 
ATOM     19  C   UNL     1       6.704   5.433  19.368  0.00  0.00    +0.000 A 
ATOM     20  C   UNL     1       7.238   5.049  18.143  0.00  0.00    +0.000 A 
ATOM     21  F   UNL     1       8.533   5.277  17.892  0.00  0.00    +0.000 F 
ATOM     22  C   UNL     1       6.448   4.449  17.171  0.00  0.00    +0.000 A 
ATOM     23  C   UNL     1       5.098   4.243  17.430  0.00  0.00    +0.000 A 
ATOM     24  F   UNL     1       4.335   3.704  16.469  0.00  0.00    +0.000 F 
ENDBRANCH  10  17
BRANCH  12  25
ATOM     25  C   UNL     1      -0.122   9.199  21.672  0.00  0.00    +0.000 A 
ATOM     26  C   UNL     1      -0.428  10.026  20.583  0.00  0.00    +0.000 A 
ATOM     27  C   UNL     1      -0.870  11.334  20.802  0.00  0.00    +0.000 A 
ATOM     28  C   UNL     1      -1.003  11.808  22.104  0.00  0.00    +0.000 A 
ATOM     29  F   UNL     1      -1.419  13.064  22.307  0.00  0.00    +0.000 F 
ATOM     30  C   UNL     1      -0.706  11.002  23.195  0.00  0.00    +0.000 A 
ATOM     31  C   UNL     1      -0.268   9.701  22.971  0.00  0.00    +0.000 A 
ATOM     32  F   UNL     1       0.027   8.931  24.029  0.00  0.00    +0.000 F 
ENDBRANCH  12  25
TORSDOF 2
ENDMDL
MODEL 2
REMARK VINA RESULT:      -7.8      0.937      1.325
REMARK  Name = 
REMARK  3 active torsions:
REMARK  status: ('A' for Active; 'I' for Inactive)
REMARK    1  A    between atoms: C_1  and  N_2
REMARK    2  A    between atoms: C_10  and  C_11
REMARK    3  A    between atoms: C_20  and  C_21
REMARK                            x       y       z     vdW  Elec       q    Type
REMARK                         _______ _______ _______ _____ _____    ______ ____
ROOT
ATOM      1  C   UNL     1       2.536   9.527  17.523  0.00  0.00    +0.000 C 
ATOM      2  N   UNL     1       1.937   8.402  18.234  0.00  0.00    +0.000 NA
ATOM      3  C   UNL     1       2.647   7.154  17.919  0.00  0.00    +0.000 C 
ATOM      4  C   UNL     1       2.283   6.009  18.833  0.00  0.00    +0.000 C 
ATOM      5  C   UNL     1       1.561   6.174  19.960  0.00  0.00    +0.000 C 
ATOM      6  N   UNL     1       1.287   5.061  20.722  0.00  0.00    +0.000 N 
ATOM      7  C   UNL     1       1.754   3.832  20.400  0.00  0.00    +0.000 C 
ATOM      8  N   UNL     1       1.442   2.877  21.308  0.00  0.00    +0.000 N 
ATOM      9  N   UNL     1       2.450   3.527  19.365  0.00  0.00    +0.000 NA
ATOM     10  C   UNL     1       2.832   4.637  18.456  0.00  0.00    +0.000 C 
ATOM     11  C   UNL     1       1.162   7.523  20.380  0.00  0.00    +0.000 C 
ATOM     12  C   UNL     1       0.179   7.756  21.274  0.00  0.00    +0.000 C 
ATOM     13  C   UNL     1       1.957   8.621  19.685  0.00  0.00    +0.000 C 
ATOM     14  H   UNL     1       1.004   5.226  21.677  0.00  0.00    +0.000 HD
ATOM     15  H   UNL     1       0.491   2.906  21.647  0.00  0.00    +0.000 HD
ATOM     16  H   UNL     1       1.674   1.959  20.939  0.00  0.00    +0.000 HD
ENDROOT
BRANCH  10  17
ATOM     17  C   UNL     1       4.352   4.688  18.372  0.00  0.00    +0.000 A 
ATOM     18  C   UNL     1       5.106   5.169  19.460  0.00  0.00    +0.000 A 
ATOM     19  C   UNL     1       6.490   5.301  19.357  0.00  0.00    +0.000 A 
ATOM     20  C   UNL     1       7.125   4.949  18.172  0.00  0.00    +0.000 A 
ATOM     21  F   UNL     1       8.451   5.100  18.069  0.00  0.00    +0.000 F 
ATOM     22  C   UNL     1       6.405   4.458  17.090  0.00  0.00    +0.000 A 
ATOM     23  C   UNL     1       5.025   4.333  17.197  0.00  0.00    +0.000 A 
ATOM     24  F   UNL     1       4.335   3.900  16.132  0.00  0.00    +0.000 F 
ENDBRANCH  10  17
BRANCH  12  25
ATOM     25  C   UNL     1      -0.253   9.096  21.690  0.00  0.00    +0.000 A 
ATOM     26  C   UNL     1      -0.242   9.437  23.049  0.00  0.00    +0.000 A 
ATOM     27  C   UNL     1      -0.691  10.696  23.457  0.00  0.00    +0.000 A 
ATOM     28  C   UNL     1      -1.149  11.606  22.508  0.00  0.00    +0.000 A 
ATOM     29  F   UNL     1      -1.585  12.807  22.906  0.00  0.00    +0.000 F 
ATOM     30  C   UNL     1      -1.164  11.286  21.157  0.00  0.00    +0.000 A 
ATOM     31  C   UNL     1      -0.715  10.032  20.756  0.00  0.00    +0.000 A 
ATOM     32  F   UNL     1      -0.743   9.726  19.451  0.00  0.00    +0.000 F 
ENDBRANCH  12  25
TORSDOF 2
ENDMDL
MODEL 3
REMARK VINA RESULT:      -7.7      2.912      7.860
REMARK  Name = 
REMARK  3 active torsions:
REMARK  status: ('A' for Active; 'I' for Inactive)
REMARK    1  A    between atoms: C_1  and  N_2
REMARK    2  A    between atoms: C_10  and  C_11
REMARK    3  A    between atoms: C_20  and  C_21
REMARK                            x       y       z     vdW  Elec       q    Type
REMARK                         _______ _______ _______ _____ _____    ______ ____
ROOT
ATOM      1  C   UNL     1       3.182   7.749  16.705  0.00  0.00    +0.000 C 
ATOM      2  N   UNL     1       2.851   7.791  18.127  0.00  0.00    +0.000 NA
ATOM      3  C   UNL     1       2.119   9.024  18.450  0.00  0.00    +0.000 C 
ATOM      4  C   UNL     1       1.486   9.005  19.821  0.00  0.00    +0.000 C 
ATOM      5  C   UNL     1       1.405   7.888  20.573  0.00  0.00    +0.000 C 
ATOM      6  N   UNL     1       0.806   7.982  21.809  0.00  0.00    +0.000 N 
ATOM      7  C   UNL     1       0.265   9.137  22.263  0.00  0.00    +0.000 C 
ATOM      8  N   UNL     1      -0.344   9.015  23.467  0.00  0.00    +0.000 N 
ATOM      9  N   UNL     1       0.267  10.270  21.660  0.00  0.00    +0.000 NA
ATOM     10  C   UNL     1       0.872  10.314  20.304  0.00  0.00    +0.000 C 
ATOM     11  C   UNL     1       1.876   6.608  20.031  0.00  0.00    +0.000 C 
ATOM     12  C   UNL     1       2.148   5.536  20.803  0.00  0.00    +0.000 C 
ATOM     13  C   UNL     1       2.044   6.629  18.518  0.00  0.00    +0.000 C 
ATOM     14  H   UNL     1       0.501   7.117  22.230  0.00  0.00    +0.000 HD
ATOM     15  H   UNL     1       0.170   8.477  24.151  0.00  0.00    +0.000 HD
ATOM     16  H   UNL     1      -0.585   9.934  23.828  0.00  0.00    +0.000 HD
ENDROOT
BRANCH  10  17
ATOM     17  C   UNL     1      -0.189  10.788  19.320  0.00  0.00    +0.000 A 
ATOM     18  C   UNL     1      -1.189   9.902  18.874  0.00  0.00    +0.000 A 
ATOM     19  C   UNL     1      -2.108  10.303  17.907  0.00  0.00    +0.000 A 
ATOM     20  C   UNL     1      -2.036  11.590  17.386  0.00  0.00    +0.000 A 
ATOM     21  F   UNL     1      -2.906  11.963  16.439  0.00  0.00    +0.000 F 
ATOM     22  C   UNL     1      -1.069  12.487  17.819  0.00  0.00    +0.000 A 
ATOM     23  C   UNL     1      -0.152  12.080  18.781  0.00  0.00    +0.000 A 
ATOM     24  F   UNL     1       0.805  12.939  19.160  0.00  0.00    +0.000 F 
ENDBRANCH  10  17
BRANCH  12  25
ATOM     25  C   UNL     1       2.642   4.254  20.286  0.00  0.00    +0.000 A 
ATOM     26  C   UNL     1       4.016   4.072  20.081  0.00  0.00    +0.000 A 
ATOM     27  C   UNL     1       4.489   2.870  19.550  0.00  0.00    +0.000 A 
ATOM     28  C   UNL     1       3.591   1.857  19.227  0.00  0.00    +0.000 A 
ATOM     29  F   UNL     1       4.051   0.710  18.711  0.00  0.00    +0.000 F 
ATOM     30  C   UNL     1       2.226   2.018  19.426  0.00  0.00    +0.000 A 
ATOM     31  C   UNL     1       1.761   3.217  19.955  0.00  0.00    +0.000 A 
ATOM     32  F   UNL     1       0.440   3.371  20.135  0.00  0.00    +0.000 F 
ENDBRANCH  12  25
TORSDOF 2
ENDMDL
MODEL 4
REMARK VINA RESULT:      -7.6      2.863      8.955
REMARK  Name = 
REMARK  3 active torsions:
REMARK  status: ('A' for Active; 'I' for Inactive)
REMARK    1  A    between atoms: C_1  and  N_2
REMARK    2  A    between atoms: C_10  and  C_11
REMARK    3  A    between atoms: C_20  and  C_21
REMARK                            x       y       z     vdW  Elec       q    Type
REMARK                         _______ _______ _______ _____ _____    ______ ____
ROOT
ATOM      1  C   UNL     1       1.289   9.492  22.600  0.00  0.00    +0.000 C 
ATOM      2  N   UNL     1       0.617   9.423  21.305  0.00  0.00    +0.000 NA
ATOM      3  C   UNL     1      -0.375  10.500  21.179  0.00  0.00    +0.000 C 
ATOM      4  C   UNL     1      -0.892  10.677  19.772  0.00  0.00    +0.000 C 
ATOM      5  C   UNL     1      -0.334  10.069  18.706  0.00  0.00    +0.000 C 
ATOM      6  N   UNL     1      -0.885  10.301  17.466  0.00  0.00    +0.000 N 
ATOM      7  C   UNL     1      -1.929  11.146  17.286  0.00  0.00    +0.000 C 
ATOM      8  N   UNL     1      -2.283  11.302  15.988  0.00  0.00    +0.000 N 
ATOM      9  N   UNL     1      -2.555  11.791  18.202  0.00  0.00    +0.000 NA
ATOM     10  C   UNL     1      -2.058  11.644  19.594  0.00  0.00    +0.000 C 
ATOM     11  C   UNL     1       0.874   9.254  18.880  0.00  0.00    +0.000 C 
ATOM     12  C   UNL     1       1.294   8.355  17.967  0.00  0.00    +0.000 C 
ATOM     13  C   UNL     1       1.581   9.516  20.203  0.00  0.00    +0.000 C 
ATOM     14  H   UNL     1      -0.309  10.081  16.667  0.00  0.00    +0.000 HD
ATOM     15  H   UNL     1      -2.319  10.447  15.451  0.00  0.00    +0.000 HD
ATOM     16  H   UNL     1      -3.161  11.811  15.928  0.00  0.00    +0.000 HD
ENDROOT
BRANCH  10  17
ATOM     17  C   UNL     1      -1.678  13.023  20.116  0.00  0.00    +0.000 A 
ATOM     18  C   UNL     1      -0.663  13.766  19.482  0.00  0.00    +0.000 A 
ATOM     19  C   UNL     1      -0.249  14.989  20.007  0.00  0.00    +0.000 A 
ATOM     20  C   UNL     1      -0.849  15.476  21.162  0.00  0.00    +0.000 A 
ATOM     21  F   UNL     1      -0.432  16.639  21.677  0.00  0.00    +0.000 F 
ATOM     22  C   UNL     1      -1.861  14.769  21.798  0.00  0.00    +0.000 A 
ATOM     23  C   UNL     1      -2.267  13.548  21.272  0.00  0.00    +0.000 A 
ATOM     24  F   UNL     1      -3.214  12.853  21.919  0.00  0.00    +0.000 F 
ENDBRANCH  10  17
BRANCH  12  25
ATOM     25  C   UNL     1       2.486   7.512  18.131  0.00  0.00    +0.000 A 
ATOM     26  C   UNL     1       3.578   7.681  17.271  0.00  0.00    +0.000 A 
ATOM     27  C   UNL     1       4.698   6.855  17.394  0.00  0.00    +0.000 A 
ATOM     28  C   UNL     1       4.721   5.865  18.372  0.00  0.00    +0.000 A 
ATOM     29  F   UNL     1       5.794   5.071  18.479  0.00  0.00    +0.000 F 
ATOM     30  C   UNL     1       3.648   5.684  19.235  0.00  0.00    +0.000 A 
ATOM     31  C   UNL     1       2.537   6.510  19.108  0.00  0.00    +0.000 A 
ATOM     32  F   UNL     1       1.499   6.323  19.938  0.00  0.00    +0.000 F 
ENDBRANCH  12  25
TORSDOF 2
ENDMDL
MODEL 5
REMARK VINA RESULT:      -7.5      2.997      8.879
REMARK  Name = 
REMARK  3 active torsions:
REMARK  status: ('A' for Active; 'I' for Inactive)
REMARK    1  A    between atoms: C_1  and  N_2
REMARK    2  A    between atoms: C_10  and  C_11
REMARK    3  A    between atoms: C_20  and  C_21
REMARK                            x       y       z     vdW  Elec       q    Type
REMARK                         _______ _______ _______ _____ _____    ______ ____
ROOT
ATOM      1  C   UNL     1       1.294   9.560  22.588  0.00  0.00    +0.000 C 
ATOM      2  N   UNL     1       0.617   9.470  21.297  0.00  0.00    +0.000 NA
ATOM      3  C   UNL     1      -0.377  10.545  21.158  0.00  0.00    +0.000 C 
ATOM      4  C   UNL     1      -0.900  10.700  19.751  0.00  0.00    +0.000 C 
ATOM      5  C   UNL     1      -0.346  10.077  18.692  0.00  0.00    +0.000 C 
ATOM      6  N   UNL     1      -0.902  10.290  17.451  0.00  0.00    +0.000 N 
ATOM      7  C   UNL     1      -1.947  11.131  17.262  0.00  0.00    +0.000 C 
ATOM      8  N   UNL     1      -2.307  11.267  15.964  0.00  0.00    +0.000 N 
ATOM      9  N   UNL     1      -2.571  11.789  18.171  0.00  0.00    +0.000 NA
ATOM     10  C   UNL     1      -2.068  11.663  19.563  0.00  0.00    +0.000 C 
ATOM     11  C   UNL     1       0.864   9.266  18.873  0.00  0.00    +0.000 C 
ATOM     12  C   UNL     1       1.282   8.354  17.972  0.00  0.00    +0.000 C 
ATOM     13  C   UNL     1       1.577   9.548  20.189  0.00  0.00    +0.000 C 
ATOM     14  H   UNL     1      -0.329  10.059  16.653  0.00  0.00    +0.000 HD
ATOM     15  H   UNL     1      -2.343  10.404  15.439  0.00  0.00    +0.000 HD
ATOM     16  H   UNL     1      -3.186  11.774  15.900  0.00  0.00    +0.000 HD
ENDROOT
BRANCH  10  17
ATOM     17  C   UNL     1      -1.687  13.050  20.064  0.00  0.00    +0.000 A 
ATOM     18  C   UNL     1      -2.409  13.647  21.116  0.00  0.00    +0.000 A 
ATOM     19  C   UNL     1      -2.124  14.950  21.518  0.00  0.00    +0.000 A 
ATOM     20  C   UNL     1      -1.114  15.659  20.878  0.00  0.00    +0.000 A 
ATOM     21  F   UNL     1      -0.860  16.919  21.251  0.00  0.00    +0.000 F 
ATOM     22  C   UNL     1      -0.379  15.087  19.848  0.00  0.00    +0.000 A 
ATOM     23  C   UNL     1      -0.671  13.789  19.448  0.00  0.00    +0.000 A 
ATOM     24  F   UNL     1       0.016  13.263  18.423  0.00  0.00    +0.000 F 
ENDBRANCH  10  17
BRANCH  12  25
ATOM     25  C   UNL     1       2.475   7.515  18.144  0.00  0.00    +0.000 A 
ATOM     26  C   UNL     1       3.569   7.682  17.285  0.00  0.00    +0.000 A 
ATOM     27  C   UNL     1       4.691   6.859  17.415  0.00  0.00    +0.000 A 
ATOM     28  C   UNL     1       4.715   5.875  18.400  0.00  0.00    +0.000 A 
ATOM     29  F   UNL     1       5.789   5.085  18.515  0.00  0.00    +0.000 F 
ATOM     30  C   UNL     1       3.640   5.697  19.262  0.00  0.00    +0.000 A 
ATOM     31  C   UNL     1       2.527   6.520  19.128  0.00  0.00    +0.000 A 
ATOM     32  F   UNL     1       1.488   6.336  19.956  0.00  0.00    +0.000 F 
ENDBRANCH  12  25
TORSDOF 2
ENDMDL
MODEL 6
REMARK VINA RESULT:      -7.5      2.739      7.908
REMARK  Name = 
REMARK  3 active torsions:
REMARK  status: ('A' for Active; 'I' for Inactive)
REMARK    1  A    between atoms: C_1  and  N_2
REMARK    2  A    between atoms: C_10  and  C_11
REMARK    3  A    between atoms: C_20  and  C_21
REMARK                            x       y       z     vdW  Elec       q    Type
REMARK                         _______ _______ _______ _____ _____    ______ ____
ROOT
ATOM      1  C   UNL     1       3.164   7.958  16.729  0.00  0.00    +0.000 C 
ATOM      2  N   UNL     1       2.831   7.990  18.150  0.00  0.00    +0.000 NA
ATOM      3  C   UNL     1       2.055   9.196  18.473  0.00  0.00    +0.000 C 
ATOM      4  C   UNL     1       1.423   9.154  19.843  0.00  0.00    +0.000 C 
ATOM      5  C   UNL     1       1.382   8.036  20.596  0.00  0.00    +0.000 C 
ATOM      6  N   UNL     1       0.780   8.109  21.831  0.00  0.00    +0.000 N 
ATOM      7  C   UNL     1       0.197   9.244  22.285  0.00  0.00    +0.000 C 
ATOM      8  N   UNL     1      -0.407   9.101  23.489  0.00  0.00    +0.000 N 
ATOM      9  N   UNL     1       0.158  10.376  21.681  0.00  0.00    +0.000 NA
ATOM     10  C   UNL     1       0.762  10.441  20.326  0.00  0.00    +0.000 C 
ATOM     11  C   UNL     1       1.899   6.773  20.055  0.00  0.00    +0.000 C 
ATOM     12  C   UNL     1       2.210   5.712  20.828  0.00  0.00    +0.000 C 
ATOM     13  C   UNL     1       2.067   6.799  18.542  0.00  0.00    +0.000 C 
ATOM     14  H   UNL     1       0.507   7.233  22.253  0.00  0.00    +0.000 HD
ATOM     15  H   UNL     1       0.126   8.582  24.173  0.00  0.00    +0.000 HD
ATOM     16  H   UNL     1      -0.681  10.010  23.849  0.00  0.00    +0.000 HD
ENDROOT
BRANCH  10  17
ATOM     17  C   UNL     1      -0.315  10.875  19.341  0.00  0.00    +0.000 A 
ATOM     18  C   UNL     1      -1.343   9.984  18.974  0.00  0.00    +0.000 A 
ATOM     19  C   UNL     1      -2.279  10.343  18.007  0.00  0.00    +0.000 A 
ATOM     20  C   UNL     1      -2.198  11.595  17.408  0.00  0.00    +0.000 A 
ATOM     21  F   UNL     1      -3.085  11.928  16.462  0.00  0.00    +0.000 F 
ATOM     22  C   UNL     1      -1.204  12.498  17.763  0.00  0.00    +0.000 A 
ATOM     23  C   UNL     1      -0.270  12.131  18.724  0.00  0.00    +0.000 A 
ATOM     24  F   UNL     1       0.712  12.993  19.027  0.00  0.00    +0.000 F 
ENDBRANCH  10  17
BRANCH  12  25
ATOM     25  C   UNL     1       2.750   4.449  20.312  0.00  0.00    +0.000 A 
ATOM     26  C   UNL     1       1.959   3.293  20.338  0.00  0.00    +0.000 A 
ATOM     27  C   UNL     1       2.481   2.078  19.888  0.00  0.00    +0.000 A 
ATOM     28  C   UNL     1       3.789   2.022  19.415  0.00  0.00    +0.000 A 
ATOM     29  F   UNL     1       4.286   0.854  18.992  0.00  0.00    +0.000 F 
ATOM     30  C   UNL     1       4.587   3.158  19.379  0.00  0.00    +0.000 A 
ATOM     31  C   UNL     1       4.062   4.365  19.828  0.00  0.00    +0.000 A 
ATOM     32  F   UNL     1       4.842   5.455  19.801  0.00  0.00    +0.000 F 
ENDBRANCH  12  25
TORSDOF 2
ENDMDL
MODEL 7
REMARK VINA RESULT:      -7.3      1.335      1.853
REMARK  Name = 
REMARK  3 active torsions:
REMARK  status: ('A' for Active; 'I' for Inactive)
REMARK    1  A    between atoms: C_1  and  N_2
REMARK    2  A    between atoms: C_10  and  C_11
REMARK    3  A    between atoms: C_20  and  C_21
REMARK                            x       y       z     vdW  Elec       q    Type
REMARK                         _______ _______ _______ _____ _____    ______ ____
ROOT
ATOM      1  C   UNL     1       2.488   9.565  17.443  0.00  0.00    +0.000 C 
ATOM      2  N   UNL     1       1.895   8.405  18.103  0.00  0.00    +0.000 NA
ATOM      3  C   UNL     1       2.564   7.168  17.676  0.00  0.00    +0.000 C 
ATOM      4  C   UNL     1       2.214   5.972  18.527  0.00  0.00    +0.000 C 
ATOM      5  C   UNL     1       1.544   6.075  19.693  0.00  0.00    +0.000 C 
ATOM      6  N   UNL     1       1.277   4.919  20.391  0.00  0.00    +0.000 N 
ATOM      7  C   UNL     1       1.703   3.705  19.968  0.00  0.00    +0.000 C 
ATOM      8  N   UNL     1       1.410   2.697  20.824  0.00  0.00    +0.000 N 
ATOM      9  N   UNL     1       2.349   3.457  18.886  0.00  0.00    +0.000 NA
ATOM     10  C   UNL     1       2.717   4.618  18.036  0.00  0.00    +0.000 C 
ATOM     11  C   UNL     1       1.192   7.399  20.217  0.00  0.00    +0.000 C 
ATOM     12  C   UNL     1       0.252   7.591  21.166  0.00  0.00    +0.000 C 
ATOM     13  C   UNL     1       1.980   8.526  19.563  0.00  0.00    +0.000 C 
ATOM     14  H   UNL     1       1.038   5.025  21.366  0.00  0.00    +0.000 HD
ATOM     15  H   UNL     1       0.474   2.721  21.204  0.00  0.00    +0.000 HD
ATOM     16  H   UNL     1       1.606   1.802  20.385  0.00  0.00    +0.000 HD
ENDROOT
BRANCH  10  17
ATOM     17  C   UNL     1       4.232   4.646  17.890  0.00  0.00    +0.000 A 
ATOM     18  C   UNL     1       4.836   4.241  16.684  0.00  0.00    +0.000 A 
ATOM     19  C   UNL     1       6.223   4.178  16.573  0.00  0.00    +0.000 A 
ATOM     20  C   UNL     1       7.013   4.526  17.664  0.00  0.00    +0.000 A 
ATOM     21  F   UNL     1       8.345   4.442  17.561  0.00  0.00    +0.000 F 
ATOM     22  C   UNL     1       6.443   4.943  18.859  0.00  0.00    +0.000 A 
ATOM     23  C   UNL     1       5.058   4.998  18.964  0.00  0.00    +0.000 A 
ATOM     24  F   UNL     1       4.517   5.359  20.137  0.00  0.00    +0.000 F 
ENDBRANCH  10  17
BRANCH  12  25
ATOM     25  C   UNL     1      -0.133   8.908  21.689  0.00  0.00    +0.000 A 
ATOM     26  C   UNL     1      -0.053   9.159  23.065  0.00  0.00    +0.000 A 
ATOM     27  C   UNL     1      -0.457  10.395  23.574  0.00  0.00    +0.000 A 
ATOM     28  C   UNL     1      -0.939  11.374  22.709  0.00  0.00    +0.000 A 
ATOM     29  F   UNL     1      -1.332  12.553  23.204  0.00  0.00    +0.000 F 
ATOM     30  C   UNL     1      -1.023  11.144  21.342  0.00  0.00    +0.000 A 
ATOM     31  C   UNL     1      -0.618   9.911  20.841  0.00  0.00    +0.000 A 
ATOM     32  F   UNL     1      -0.712   9.692  19.521  0.00  0.00    +0.000 F 
ENDBRANCH  12  25
TORSDOF 2
ENDMDL
MODEL 8
REMARK VINA RESULT:      -7.2      4.192     10.089
REMARK  Name = 
REMARK  3 active torsions:
REMARK  status: ('A' for Active; 'I' for Inactive)
REMARK    1  A    between atoms: C_1  and  N_2
REMARK    2  A    between atoms: C_10  and  C_11
REMARK    3  A    between atoms: C_20  and  C_21
REMARK                            x       y       z     vdW  Elec       q    Type
REMARK                         _______ _______ _______ _____ _____    ______ ____
ROOT
ATOM      1  C   UNL     1      -3.221   9.984  17.642  0.00  0.00    +0.000 C 
ATOM      2  N   UNL     1      -2.305  10.889  18.330  0.00  0.00    +0.000 NA
ATOM      3  C   UNL     1      -3.049  11.961  19.007  0.00  0.00    +0.000 C 
ATOM      4  C   UNL     1      -2.207  12.756  19.976  0.00  0.00    +0.000 C 
ATOM      5  C   UNL     1      -0.969  12.376  20.352  0.00  0.00    +0.000 C 
ATOM      6  N   UNL     1      -0.289  13.175  21.243  0.00  0.00    +0.000 N 
ATOM      7  C   UNL     1      -0.839  14.291  21.778  0.00  0.00    +0.000 C 
ATOM      8  N   UNL     1      -0.047  14.903  22.690  0.00  0.00    +0.000 N 
ATOM      9  N   UNL     1      -2.001  14.770  21.517  0.00  0.00    +0.000 NA
ATOM     10  C   UNL     1      -2.854  14.000  20.576  0.00  0.00    +0.000 C 
ATOM     11  C   UNL     1      -0.420  11.102  19.872  0.00  0.00    +0.000 C 
ATOM     12  C   UNL     1       0.895  10.806  19.910  0.00  0.00    +0.000 C 
ATOM     13  C   UNL     1      -1.485  10.169  19.312  0.00  0.00    +0.000 C 
ATOM     14  H   UNL     1       0.491  12.752  21.724  0.00  0.00    +0.000 HD
ATOM     15  H   UNL     1       0.926  14.982  22.424  0.00  0.00    +0.000 HD
ATOM     16  H   UNL     1      -0.436  15.810  22.934  0.00  0.00    +0.000 HD
ENDROOT
BRANCH  10  17
ATOM     17  C   UNL     1      -4.143  13.624  21.294  0.00  0.00    +0.000 A 
ATOM     18  C   UNL     1      -4.096  13.026  22.569  0.00  0.00    +0.000 A 
ATOM     19  C   UNL     1      -5.266  12.599  23.193  0.00  0.00    +0.000 A 
ATOM     20  C   UNL     1      -6.487  12.772  22.550  0.00  0.00    +0.000 A 
ATOM     21  F   UNL     1      -7.606  12.338  23.142  0.00  0.00    +0.000 F 
ATOM     22  C   UNL     1      -6.561  13.372  21.300  0.00  0.00    +0.000 A 
ATOM     23  C   UNL     1      -5.390  13.792  20.681  0.00  0.00    +0.000 A 
ATOM     24  F   UNL     1      -5.469  14.330  19.455  0.00  0.00    +0.000 F 
ENDBRANCH  10  17
BRANCH  12  25
ATOM     25  C   UNL     1       1.469   9.548  19.414  0.00  0.00    +0.000 A 
ATOM     26  C   UNL     1       1.848   9.441  18.070  0.00  0.00    +0.000 A 
ATOM     27  C   UNL     1       2.356   8.235  17.582  0.00  0.00    +0.000 A 
ATOM     28  C   UNL     1       2.483   7.143  18.436  0.00  0.00    +0.000 A 
ATOM     29  F   UNL     1       2.963   5.988  17.960  0.00  0.00    +0.000 F 
ATOM     30  C   UNL     1       2.116   7.232  19.772  0.00  0.00    +0.000 A 
ATOM     31  C   UNL     1       1.612   8.435  20.253  0.00  0.00    +0.000 A 
ATOM     32  F   UNL     1       1.248   8.511  21.542  0.00  0.00    +0.000 F 
ENDBRANCH  12  25
TORSDOF 2
ENDMDL
MODEL 9
REMARK VINA RESULT:      -7.2      7.325     11.444
REMARK  Name = 
REMARK  3 active torsions:
REMARK  status: ('A' for Active; 'I' for Inactive)
REMARK    1  A    between atoms: C_1  and  N_2
REMARK    2  A    between atoms: C_10  and  C_11
REMARK    3  A    between atoms: C_20  and  C_21
REMARK                            x       y       z     vdW  Elec       q    Type
REMARK                         _______ _______ _______ _____ _____    ______ ____
ROOT
ATOM      1  C   UNL     1      -0.304  12.242  20.991  0.00  0.00    +0.000 C 
ATOM      2  N   UNL     1      -1.750  12.118  21.152  0.00  0.00    +0.000 NA
ATOM      3  C   UNL     1      -2.206  12.875  22.327  0.00  0.00    +0.000 C 
ATOM      4  C   UNL     1      -3.706  13.041  22.388  0.00  0.00    +0.000 C 
ATOM      5  C   UNL     1      -4.518  12.732  21.358  0.00  0.00    +0.000 C 
ATOM      6  N   UNL     1      -5.871  12.924  21.521  0.00  0.00    +0.000 N 
ATOM      7  C   UNL     1      -6.396  13.450  22.653  0.00  0.00    +0.000 C 
ATOM      8  N   UNL     1      -7.736  13.632  22.598  0.00  0.00    +0.000 N 
ATOM      9  N   UNL     1      -5.747  13.791  23.708  0.00  0.00    +0.000 NA
ATOM     10  C   UNL     1      -4.269  13.649  23.669  0.00  0.00    +0.000 C 
ATOM     11  C   UNL     1      -3.943  12.282  20.085  0.00  0.00    +0.000 C 
ATOM     12  C   UNL     1      -4.659  11.639  19.139  0.00  0.00    +0.000 C 
ATOM     13  C   UNL     1      -2.459  12.596  19.959  0.00  0.00    +0.000 C 
ATOM     14  H   UNL     1      -6.427  12.961  20.679  0.00  0.00    +0.000 HD
ATOM     15  H   UNL     1      -8.254  12.863  22.196  0.00  0.00    +0.000 HD
ATOM     16  H   UNL     1      -8.092  13.873  23.519  0.00  0.00    +0.000 HD
ENDROOT
BRANCH  10  17
ATOM     17  C   UNL     1      -3.648  15.017  23.916  0.00  0.00    +0.000 A 
ATOM     18  C   UNL     1      -3.631  15.983  22.890  0.00  0.00    +0.000 A 
ATOM     19  C   UNL     1      -2.986  17.204  23.080  0.00  0.00    +0.000 A 
ATOM     20  C   UNL     1      -2.363  17.467  24.295  0.00  0.00    +0.000 A 
ATOM     21  F   UNL     1      -1.724  18.631  24.465  0.00  0.00    +0.000 F 
ATOM     22  C   UNL     1      -2.379  16.537  25.326  0.00  0.00    +0.000 A 
ATOM     23  C   UNL     1      -3.020  15.320  25.129  0.00  0.00    +0.000 A 
ATOM     24  F   UNL     1      -2.991  14.412  26.116  0.00  0.00    +0.000 F 
ENDBRANCH  10  17
BRANCH  12  25
ATOM     25  C   UNL     1      -4.100  11.159  17.869  0.00  0.00    +0.000 A 
ATOM     26  C   UNL     1      -3.082  10.197  17.879  0.00  0.00    +0.000 A 
ATOM     27  C   UNL     1      -2.516   9.766  16.676  0.00  0.00    +0.000 A 
ATOM     28  C   UNL     1      -2.968  10.298  15.472  0.00  0.00    +0.000 A 
ATOM     29  F   UNL     1      -2.417   9.886  14.324  0.00  0.00    +0.000 F 
ATOM     30  C   UNL     1      -3.979  11.250  15.443  0.00  0.00    +0.000 A 
ATOM     31  C   UNL     1      -4.539  11.674  16.643  0.00  0.00    +0.000 A 
ATOM     32  F   UNL     1      -5.506  12.602  16.608  0.00  0.00    +0.000 F 
ENDBRANCH  12  25
TORSDOF 2
ENDMDL
