MODEL 1
REMARK VINA RESULT:      -7.6      0.000      0.000
REMARK  Name = 
REMARK  6 active torsions:
REMARK  status: ('A' for Active; 'I' for Inactive)
REMARK    1  A    between atoms: C_3  and  O_4
REMARK    2  A    between atoms: O_4  and  C_5
REMARK    3  A    between atoms: C_5  and  C_6
REMARK    4  A    between atoms: N_8  and  C_9
REMARK    5  A    between atoms: C_19  and  C_20
REMARK    6  A    between atoms: C_20  and  N_21
REMARK                            x       y       z     vdW  Elec       q    Type
REMARK                         _______ _______ _______ _____ _____    ______ ____
ROOT
ATOM      1  C   UNL     1       3.007   7.038  18.277  0.00  0.00    +0.000 A 
ATOM      2  C   UNL     1       2.231   7.742  19.175  0.00  0.00    +0.000 A 
ATOM      3  C   UNL     1       1.676   7.121  20.294  0.00  0.00    +0.000 A 
ATOM      4  C   UNL     1       1.933   5.764  20.507  0.00  0.00    +0.000 A 
ATOM      5  C   UNL     1       2.707   5.038  19.586  0.00  0.00    +0.000 A 
ATOM      6  C   UNL     1       3.234   5.670  18.450  0.00  0.00    +0.000 A 
ENDROOT
BRANCH   3   7
ATOM      7  O   UNL     1       0.886   7.776  21.209  0.00  0.00    +0.000 OA
BRANCH   7   8
ATOM      8  C   UNL     1       1.200   9.169  21.321  0.00  0.00    +0.000 C 
BRANCH   8   9
ATOM      9  C   UNL     1       0.060  10.061  20.878  0.00  0.00    +0.000 C 
ATOM     10  C   UNL     1       0.426  10.896  19.642  0.00  0.00    +0.000 C 
ATOM     11  N   UNL     1      -0.741  11.686  19.173  0.00  0.00    +0.000 NA
ATOM     12  C   UNL     1      -1.162  12.543  20.309  0.00  0.00    +0.000 C 
ATOM     13  C   UNL     1      -1.370  11.794  21.641  0.00  0.00    +0.000 C 
ATOM     14  O   UNL     1      -0.264  10.944  21.973  0.00  0.00    +0.000 OA
BRANCH  11  15
ATOM     15  C   UNL     1      -1.825  10.814  18.679  0.00  0.00    +0.000 C 
ATOM     16  C   UNL     1      -3.097  11.560  18.284  0.00  0.00    +0.000 C 
ATOM     17  C   UNL     1      -3.829  10.537  17.427  0.00  0.00    +0.000 C 
ATOM     18  C   UNL     1      -2.734   9.906  16.583  0.00  0.00    +0.000 C 
ATOM     19  C   UNL     1      -1.455  10.015  17.411  0.00  0.00    +0.000 C 
ENDBRANCH  11  15
ENDBRANCH   8   9
ENDBRANCH   7   8
ENDBRANCH   3   7
BRANCH   6  20
ATOM     20  C   UNL     1       4.074   4.968  17.414  0.00  0.00    +0.000 C 
BRANCH  20  21
ATOM     21  N   UNL     1       5.224   5.681  16.862  0.00  0.00    +0.000 NA
ATOM     22  C   UNL     1       5.596   5.416  15.464  0.00  0.00    +0.000 C 
ATOM     23  C   UNL     1       6.673   4.334  15.264  0.00  0.00    +0.000 C 
ATOM     24  O   UNL     1       7.822   4.578  16.089  0.00  0.00    +0.000 OA
ATOM     25  C   UNL     1       7.442   4.631  17.468  0.00  0.00    +0.000 C 
ATOM     26  C   UNL     1       6.407   5.734  17.723  0.00  0.00    +0.000 C 
ENDBRANCH  20  21
ENDBRANCH   6  20
TORSDOF 6
ENDMDL
MODEL 2
REMARK VINA RESULT:      -7.3      6.439      9.792
REMARK  Name = 
REMARK  6 active torsions:
REMARK  status: ('A' for Active; 'I' for Inactive)
REMARK    1  A    between atoms: C_3  and  O_4
REMARK    2  A    between atoms: O_4  and  C_5
REMARK    3  A    between atoms: C_5  and  C_6
REMARK    4  A    between atoms: N_8  and  C_9
REMARK    5  A    between atoms: C_19  and  C_20
REMARK    6  A    between atoms: C_20  and  N_21
REMARK                            x       y       z     vdW  Elec       q    Type
REMARK                         _______ _______ _______ _____ _____    ______ ____
ROOT
ATOM      1  C   UNL     1      10.004  11.203  20.244  0.00  0.00    +0.000 A 
ATOM      2  C   UNL     1       9.088  10.283  19.777  0.00  0.00    +0.000 A 
ATOM      3  C   UNL     1       8.908  10.072  18.409  0.00  0.00    +0.000 A 
ATOM      4  C   UNL     1       9.690  10.800  17.507  0.00  0.00    +0.000 A 
ATOM      5  C   UNL     1      10.611  11.752  17.977  0.00  0.00    +0.000 A 
ATOM      6  C   UNL     1      10.760  11.973  19.354  0.00  0.00    +0.000 A 
ENDROOT
BRANCH   3   7
ATOM      7  O   UNL     1       8.000   9.178  17.894  0.00  0.00    +0.000 OA
BRANCH   7   8
ATOM      8  C   UNL     1       8.209   7.840  18.360  0.00  0.00    +0.000 C 
BRANCH   8   9
ATOM      9  C   UNL     1       7.234   6.852  17.756  0.00  0.00    +0.000 C 
ATOM     10  C   UNL     1       7.088   5.585  18.611  0.00  0.00    +0.000 C 
ATOM     11  N   UNL     1       6.053   4.682  18.046  0.00  0.00    +0.000 NA
ATOM     12  C   UNL     1       6.478   4.361  16.660  0.00  0.00    +0.000 C 
ATOM     13  C   UNL     1       6.824   5.587  15.791  0.00  0.00    +0.000 C 
ATOM     14  O   UNL     1       7.722   6.491  16.446  0.00  0.00    +0.000 OA
BRANCH  11  15
ATOM     15  C   UNL     1       4.708   5.286  18.110  0.00  0.00    +0.000 C 
ATOM     16  C   UNL     1       3.626   4.481  17.396  0.00  0.00    +0.000 C 
ATOM     17  C   UNL     1       2.344   5.054  17.982  0.00  0.00    +0.000 C 
ATOM     18  C   UNL     1       2.655   5.227  19.460  0.00  0.00    +0.000 C 
ATOM     19  C   UNL     1       4.164   5.448  19.545  0.00  0.00    +0.000 C 
ENDBRANCH  11  15
ENDBRANCH   8   9
ENDBRANCH   7   8
ENDBRANCH   3   7
BRANCH   6  20
ATOM     20  C   UNL     1      11.723  12.970  19.944  0.00  0.00    +0.000 C 
BRANCH  20  21
ATOM     21  N   UNL     1      11.367  14.386  19.892  0.00  0.00    +0.000 NA
ATOM     22  C   UNL     1       9.948  14.748  20.027  0.00  0.00    +0.000 C 
ATOM     23  C   UNL     1       9.183  14.915  18.700  0.00  0.00    +0.000 C 
ATOM     24  O   UNL     1       9.878  15.791  17.801  0.00  0.00    +0.000 OA
ATOM     25  C   UNL     1      11.194  15.293  17.539  0.00  0.00    +0.000 C 
ATOM     26  C   UNL     1      12.011  15.160  18.830  0.00  0.00    +0.000 C 
ENDBRANCH  20  21
ENDBRANCH   6  20
TORSDOF 6
ENDMDL
MODEL 3
REMARK VINA RESULT:      -7.1      0.853      1.298
REMARK  Name = 
REMARK  6 active torsions:
REMARK  status: ('A' for Active; 'I' for Inactive)
REMARK    1  A    between atoms: C_3  and  O_4
REMARK    2  A    between atoms: O_4  and  C_5
REMARK    3  A    between atoms: C_5  and  C_6
REMARK    4  A    between atoms: N_8  and  C_9
REMARK    5  A    between atoms: C_19  and  C_20
REMARK    6  A    between atoms: C_20  and  N_21
REMARK                            x       y       z     vdW  Elec       q    Type
REMARK                         _______ _______ _______ _____ _____    ______ ____
ROOT
ATOM      1  C   UNL     1       2.627   4.745  19.234  0.00  0.00    +0.000 A 
ATOM      2  C   UNL     1       1.853   5.314  20.225  0.00  0.00    +0.000 A 
ATOM      3  C   UNL     1       1.680   6.697  20.303  0.00  0.00    +0.000 A 
ATOM      4  C   UNL     1       2.294   7.506  19.343  0.00  0.00    +0.000 A 
ATOM      5  C   UNL     1       3.098   6.933  18.343  0.00  0.00    +0.000 A 
ATOM      6  C   UNL     1       3.285   5.544  18.295  0.00  0.00    +0.000 A 
ENDROOT
BRANCH   3   7
ATOM      7  O   UNL     1       0.931   7.312  21.277  0.00  0.00    +0.000 OA
BRANCH   7   8
ATOM      8  C   UNL     1       1.415   8.619  21.611  0.00  0.00    +0.000 C 
BRANCH   8   9
ATOM      9  C   UNL     1       0.369   9.696  21.418  0.00  0.00    +0.000 C 
ATOM     10  C   UNL     1       0.814  10.760  20.404  0.00  0.00    +0.000 C 
ATOM     11  N   UNL     1      -0.270  11.746  20.163  0.00  0.00    +0.000 NA
ATOM     12  C   UNL     1      -0.602  12.347  21.478  0.00  0.00    +0.000 C 
ATOM     13  C   UNL     1      -0.881  11.328  22.603  0.00  0.00    +0.000 C 
ATOM     14  O   UNL     1       0.135  10.322  22.698  0.00  0.00    +0.000 OA
BRANCH  11  15
ATOM     15  C   UNL     1      -1.436  11.123  19.505  0.00  0.00    +0.000 C 
ATOM     16  C   UNL     1      -2.561  12.100  19.170  0.00  0.00    +0.000 C 
ATOM     17  C   UNL     1      -3.378  11.326  18.146  0.00  0.00    +0.000 C 
ATOM     18  C   UNL     1      -2.336  10.657  17.265  0.00  0.00    +0.000 C 
ATOM     19  C   UNL     1      -1.107  10.457  18.152  0.00  0.00    +0.000 C 
ENDBRANCH  11  15
ENDBRANCH   8   9
ENDBRANCH   7   8
ENDBRANCH   3   7
BRANCH   6  20
ATOM     20  C   UNL     1       4.128   4.847  17.259  0.00  0.00    +0.000 C 
BRANCH  20  21
ATOM     21  N   UNL     1       4.822   5.667  16.269  0.00  0.00    +0.000 NA
ATOM     22  C   UNL     1       5.371   5.000  15.079  0.00  0.00    +0.000 C 
ATOM     23  C   UNL     1       6.850   4.581  15.184  0.00  0.00    +0.000 C 
ATOM     24  O   UNL     1       7.675   5.673  15.618  0.00  0.00    +0.000 OA
ATOM     25  C   UNL     1       7.223   6.167  16.883  0.00  0.00    +0.000 C 
ATOM     26  C   UNL     1       5.767   6.645  16.811  0.00  0.00    +0.000 C 
ENDBRANCH  20  21
ENDBRANCH   6  20
TORSDOF 6
ENDMDL
MODEL 4
REMARK VINA RESULT:      -7.1      5.995      8.986
REMARK  Name = 
REMARK  6 active torsions:
REMARK  status: ('A' for Active; 'I' for Inactive)
REMARK    1  A    between atoms: C_3  and  O_4
REMARK    2  A    between atoms: O_4  and  C_5
REMARK    3  A    between atoms: C_5  and  C_6
REMARK    4  A    between atoms: N_8  and  C_9
REMARK    5  A    between atoms: C_19  and  C_20
REMARK    6  A    between atoms: C_20  and  N_21
REMARK                            x       y       z     vdW  Elec       q    Type
REMARK                         _______ _______ _______ _____ _____    ______ ____
ROOT
ATOM      1  C   UNL     1       5.855   6.616  17.087  0.00  0.00    +0.000 A 
ATOM      2  C   UNL     1       6.743   7.630  17.381  0.00  0.00    +0.000 A 
ATOM      3  C   UNL     1       7.810   7.425  18.258  0.00  0.00    +0.000 A 
ATOM      4  C   UNL     1       7.980   6.159  18.825  0.00  0.00    +0.000 A 
ATOM      5  C   UNL     1       7.067   5.129  18.543  0.00  0.00    +0.000 A 
ATOM      6  C   UNL     1       5.983   5.359  17.683  0.00  0.00    +0.000 A 
ENDROOT
BRANCH   3   7
ATOM      7  O   UNL     1       8.713   8.405  18.593  0.00  0.00    +0.000 OA
BRANCH   7   8
ATOM      8  C   UNL     1       8.393   9.679  18.020  0.00  0.00    +0.000 C 
BRANCH   8   9
ATOM      9  C   UNL     1       9.125  10.821  18.691  0.00  0.00    +0.000 C 
ATOM     10  C   UNL     1      10.501  11.078  18.061  0.00  0.00    +0.000 C 
ATOM     11  N   UNL     1      11.151  12.265  18.673  0.00  0.00    +0.000 NA
ATOM     12  C   UNL     1      11.257  11.990  20.128  0.00  0.00    +0.000 C 
ATOM     13  C   UNL     1       9.942  11.543  20.799  0.00  0.00    +0.000 C 
ATOM     14  O   UNL     1       9.293  10.483  20.085  0.00  0.00    +0.000 OA
BRANCH  11  15
ATOM     15  C   UNL     1      10.409  13.506  18.375  0.00  0.00    +0.000 C 
ATOM     16  C   UNL     1      10.619  14.621  19.397  0.00  0.00    +0.000 C 
ATOM     17  C   UNL     1      10.144  15.855  18.644  0.00  0.00    +0.000 C 
ATOM     18  C   UNL     1      10.690  15.667  17.237  0.00  0.00    +0.000 C 
ATOM     19  C   UNL     1      10.796  14.157  17.030  0.00  0.00    +0.000 C 
ENDBRANCH  11  15
ENDBRANCH   8   9
ENDBRANCH   7   8
ENDBRANCH   3   7
BRANCH   6  20
ATOM     20  C   UNL     1       4.961   4.312  17.325  0.00  0.00    +0.000 C 
BRANCH  20  21
ATOM     21  N   UNL     1       4.134   3.762  18.396  0.00  0.00    +0.000 NA
ATOM     22  C   UNL     1       2.967   2.948  18.022  0.00  0.00    +0.000 C 
ATOM     23  C   UNL     1       1.634   3.715  17.927  0.00  0.00    +0.000 C 
ATOM     24  O   UNL     1       1.391   4.493  19.108  0.00  0.00    +0.000 OA
ATOM     25  C   UNL     1       2.463   5.416  19.326  0.00  0.00    +0.000 C 
ATOM     26  C   UNL     1       3.806   4.690  19.480  0.00  0.00    +0.000 C 
ENDBRANCH  20  21
ENDBRANCH   6  20
TORSDOF 6
ENDMDL
MODEL 5
REMARK VINA RESULT:      -7.1      2.295      2.902
REMARK  Name = 
REMARK  6 active torsions:
REMARK  status: ('A' for Active; 'I' for Inactive)
REMARK    1  A    between atoms: C_3  and  O_4
REMARK    2  A    between atoms: O_4  and  C_5
REMARK    3  A    between atoms: C_5  and  C_6
REMARK    4  A    between atoms: N_8  and  C_9
REMARK    5  A    between atoms: C_19  and  C_20
REMARK    6  A    between atoms: C_20  and  N_21
REMARK                            x       y       z     vdW  Elec       q    Type
REMARK                         _______ _______ _______ _____ _____    ______ ____
ROOT
ATOM      1  C   UNL     1       3.986   6.540  17.722  0.00  0.00    +0.000 A 
ATOM      2  C   UNL     1       3.178   7.654  17.623  0.00  0.00    +0.000 A 
ATOM      3  C   UNL     1       2.284   7.992  18.640  0.00  0.00    +0.000 A 
ATOM      4  C   UNL     1       2.230   7.189  19.783  0.00  0.00    +0.000 A 
ATOM      5  C   UNL     1       3.038   6.043  19.881  0.00  0.00    +0.000 A 
ATOM      6  C   UNL     1       3.910   5.701  18.837  0.00  0.00    +0.000 A 
ENDROOT
BRANCH   3   7
ATOM      7  O   UNL     1       1.449   9.083  18.582  0.00  0.00    +0.000 OA
BRANCH   7   8
ATOM      8  C   UNL     1       0.967   9.485  19.870  0.00  0.00    +0.000 C 
BRANCH   8   9
ATOM      9  C   UNL     1      -0.270  10.355  19.785  0.00  0.00    +0.000 C 
ATOM     10  C   UNL     1      -0.174  11.389  18.654  0.00  0.00    +0.000 C 
ATOM     11  N   UNL     1      -1.438  12.158  18.533  0.00  0.00    +0.000 NA
ATOM     12  C   UNL     1      -1.673  12.805  19.848  0.00  0.00    +0.000 C 
ATOM     13  C   UNL     1      -1.598  11.852  21.059  0.00  0.00    +0.000 C 
ATOM     14  O   UNL     1      -0.418  11.038  21.047  0.00  0.00    +0.000 OA
BRANCH  11  15
ATOM     15  C   UNL     1      -2.561  11.299  18.107  0.00  0.00    +0.000 C 
ATOM     16  C   UNL     1      -3.941  11.883  18.396  0.00  0.00    +0.000 C 
ATOM     17  C   UNL     1      -4.846  11.061  17.491  0.00  0.00    +0.000 C 
ATOM     18  C   UNL     1      -4.062  10.934  16.194  0.00  0.00    +0.000 C 
ATOM     19  C   UNL     1      -2.588  11.015  16.590  0.00  0.00    +0.000 C 
ENDBRANCH  11  15
ENDBRANCH   8   9
ENDBRANCH   7   8
ENDBRANCH   3   7
BRANCH   6  20
ATOM     20  C   UNL     1       4.811   4.493  18.860  0.00  0.00    +0.000 C 
BRANCH  20  21
ATOM     21  N   UNL     1       4.209   3.180  18.646  0.00  0.00    +0.000 NA
ATOM     22  C   UNL     1       3.122   3.069  17.661  0.00  0.00    +0.000 C 
ATOM     23  C   UNL     1       1.699   3.188  18.236  0.00  0.00    +0.000 C 
ATOM     24  O   UNL     1       1.507   2.303  19.350  0.00  0.00    +0.000 OA
ATOM     25  C   UNL     1       2.466   2.579  20.376  0.00  0.00    +0.000 C 
ATOM     26  C   UNL     1       3.902   2.421  19.859  0.00  0.00    +0.000 C 
ENDBRANCH  20  21
ENDBRANCH   6  20
TORSDOF 6
ENDMDL
MODEL 6
REMARK VINA RESULT:      -7.0      6.038      9.678
REMARK  Name = 
REMARK  6 active torsions:
REMARK  status: ('A' for Active; 'I' for Inactive)
REMARK    1  A    between atoms: C_3  and  O_4
REMARK    2  A    between atoms: O_4  and  C_5
REMARK    3  A    between atoms: C_5  and  C_6
REMARK    4  A    between atoms: N_8  and  C_9
REMARK    5  A    between atoms: C_19  and  C_20
REMARK    6  A    between atoms: C_20  and  N_21
REMARK                            x       y       z     vdW  Elec       q    Type
REMARK                         _______ _______ _______ _____ _____    ______ ____
ROOT
ATOM      1  C   UNL     1      10.312  10.981  19.427  0.00  0.00    +0.000 A 
ATOM      2  C   UNL     1       9.452   9.964  19.064  0.00  0.00    +0.000 A 
ATOM      3  C   UNL     1       8.431  10.177  18.136  0.00  0.00    +0.000 A 
ATOM      4  C   UNL     1       8.301  11.443  17.559  0.00  0.00    +0.000 A 
ATOM      5  C   UNL     1       9.162  12.487  17.939  0.00  0.00    +0.000 A 
ATOM      6  C   UNL     1      10.165  12.264  18.894  0.00  0.00    +0.000 A 
ENDROOT
BRANCH   3   7
ATOM      7  O   UNL     1       7.542   9.202  17.753  0.00  0.00    +0.000 OA
BRANCH   7   8
ATOM      8  C   UNL     1       8.044   7.876  17.957  0.00  0.00    +0.000 C 
BRANCH   8   9
ATOM      9  C   UNL     1       7.091   6.808  17.466  0.00  0.00    +0.000 C 
ATOM     10  C   UNL     1       6.960   5.646  18.461  0.00  0.00    +0.000 C 
ATOM     11  N   UNL     1       5.946   4.665  17.998  0.00  0.00    +0.000 NA
ATOM     12  C   UNL     1       6.386   4.194  16.661  0.00  0.00    +0.000 C 
ATOM     13  C   UNL     1       6.718   5.318  15.657  0.00  0.00    +0.000 C 
ATOM     14  O   UNL     1       7.596   6.307  16.209  0.00  0.00    +0.000 OA
BRANCH  11  15
ATOM     15  C   UNL     1       4.590   5.249  17.983  0.00  0.00    +0.000 C 
ATOM     16  C   UNL     1       3.516   4.322  17.419  0.00  0.00    +0.000 C 
ATOM     17  C   UNL     1       2.229   4.958  17.925  0.00  0.00    +0.000 C 
ATOM     18  C   UNL     1       2.552   5.367  19.353  0.00  0.00    +0.000 C 
ATOM     19  C   UNL     1       4.057   5.625  19.382  0.00  0.00    +0.000 C 
ENDBRANCH  11  15
ENDBRANCH   8   9
ENDBRANCH   7   8
ENDBRANCH   3   7
BRANCH   6  20
ATOM     20  C   UNL     1      11.131  13.324  19.357  0.00  0.00    +0.000 C 
BRANCH  20  21
ATOM     21  N   UNL     1      10.699  14.236  20.413  0.00  0.00    +0.000 NA
ATOM     22  C   UNL     1       9.869  13.694  21.499  0.00  0.00    +0.000 C 
ATOM     23  C   UNL     1       8.348  13.839  21.299  0.00  0.00    +0.000 C 
ATOM     24  O   UNL     1       7.989  15.189  20.970  0.00  0.00    +0.000 OA
ATOM     25  C   UNL     1       8.673  15.612  19.786  0.00  0.00    +0.000 C 
ATOM     26  C   UNL     1      10.195  15.533  19.959  0.00  0.00    +0.000 C 
ENDBRANCH  20  21
ENDBRANCH   6  20
TORSDOF 6
ENDMDL
MODEL 7
REMARK VINA RESULT:      -7.0      5.685      8.128
REMARK  Name = 
REMARK  6 active torsions:
REMARK  status: ('A' for Active; 'I' for Inactive)
REMARK    1  A    between atoms: C_3  and  O_4
REMARK    2  A    between atoms: O_4  and  C_5
REMARK    3  A    between atoms: C_5  and  C_6
REMARK    4  A    between atoms: N_8  and  C_9
REMARK    5  A    between atoms: C_19  and  C_20
REMARK    6  A    between atoms: C_20  and  N_21
REMARK                            x       y       z     vdW  Elec       q    Type
REMARK                         _______ _______ _______ _____ _____    ______ ____
ROOT
ATOM      1  C   UNL     1       7.012   4.926  18.396  0.00  0.00    +0.000 A 
ATOM      2  C   UNL     1       7.839   5.929  18.858  0.00  0.00    +0.000 A 
ATOM      3  C   UNL     1       7.839   7.195  18.270  0.00  0.00    +0.000 A 
ATOM      4  C   UNL     1       6.966   7.443  17.207  0.00  0.00    +0.000 A 
ATOM      5  C   UNL     1       6.135   6.419  16.721  0.00  0.00    +0.000 A 
ATOM      6  C   UNL     1       6.167   5.144  17.303  0.00  0.00    +0.000 A 
ENDROOT
BRANCH   3   7
ATOM      7  O   UNL     1       8.653   8.222  18.685  0.00  0.00    +0.000 OA
BRANCH   7   8
ATOM      8  C   UNL     1       8.437   9.435  17.955  0.00  0.00    +0.000 C 
BRANCH   8   9
ATOM      9  C   UNL     1       8.762  10.671  18.766  0.00  0.00    +0.000 C 
ATOM     10  C   UNL     1       9.567  11.699  17.959  0.00  0.00    +0.000 C 
ATOM     11  N   UNL     1       9.784  12.938  18.748  0.00  0.00    +0.000 NA
ATOM     12  C   UNL     1      10.495  12.536  19.987  0.00  0.00    +0.000 C 
ATOM     13  C   UNL     1       9.839  11.374  20.760  0.00  0.00    +0.000 C 
ATOM     14  O   UNL     1       9.530  10.257  19.916  0.00  0.00    +0.000 OA
BRANCH  11  15
ATOM     15  C   UNL     1       8.515  13.643  19.015  0.00  0.00    +0.000 C 
ATOM     16  C   UNL     1       8.686  15.013  19.668  0.00  0.00    +0.000 C 
ATOM     17  C   UNL     1       7.337  15.670  19.417  0.00  0.00    +0.000 C 
ATOM     18  C   UNL     1       6.989  15.275  17.990  0.00  0.00    +0.000 C 
ATOM     19  C   UNL     1       7.685  13.937  17.748  0.00  0.00    +0.000 C 
ENDBRANCH  11  15
ENDBRANCH   8   9
ENDBRANCH   7   8
ENDBRANCH   3   7
BRANCH   6  20
ATOM     20  C   UNL     1       5.310   3.992  16.847  0.00  0.00    +0.000 C 
BRANCH  20  21
ATOM     21  N   UNL     1       3.940   3.911  17.348  0.00  0.00    +0.000 NA
ATOM     22  C   UNL     1       3.403   5.066  18.084  0.00  0.00    +0.000 C 
ATOM     23  C   UNL     1       3.545   4.992  19.616  0.00  0.00    +0.000 C 
ATOM     24  O   UNL     1       3.048   3.748  20.130  0.00  0.00    +0.000 OA
ATOM     25  C   UNL     1       3.739   2.649  19.529  0.00  0.00    +0.000 C 
ATOM     26  C   UNL     1       3.581   2.653  18.003  0.00  0.00    +0.000 C 
ENDBRANCH  20  21
ENDBRANCH   6  20
TORSDOF 6
ENDMDL
MODEL 8
REMARK VINA RESULT:      -7.0      1.288      1.898
REMARK  Name = 
REMARK  6 active torsions:
REMARK  status: ('A' for Active; 'I' for Inactive)
REMARK    1  A    between atoms: C_3  and  O_4
REMARK    2  A    between atoms: O_4  and  C_5
REMARK    3  A    between atoms: C_5  and  C_6
REMARK    4  A    between atoms: N_8  and  C_9
REMARK    5  A    between atoms: C_19  and  C_20
REMARK    6  A    between atoms: C_20  and  N_21
REMARK                            x       y       z     vdW  Elec       q    Type
REMARK                         _______ _______ _______ _____ _____    ______ ____
ROOT
ATOM      1  C   UNL     1       2.800   6.034  19.485  0.00  0.00    +0.000 A 
ATOM      2  C   UNL     1       2.023   6.877  20.252  0.00  0.00    +0.000 A 
ATOM      3  C   UNL     1       1.690   8.158  19.808  0.00  0.00    +0.000 A 
ATOM      4  C   UNL     1       2.144   8.573  18.553  0.00  0.00    +0.000 A 
ATOM      5  C   UNL     1       2.951   7.725  17.776  0.00  0.00    +0.000 A 
ATOM      6  C   UNL     1       3.301   6.451  18.249  0.00  0.00    +0.000 A 
ENDROOT
BRANCH   3   7
ATOM      7  O   UNL     1       0.931   9.039  20.540  0.00  0.00    +0.000 OA
BRANCH   7   8
ATOM      8  C   UNL     1       0.925  10.362  19.989  0.00  0.00    +0.000 C 
BRANCH   8   9
ATOM      9  C   UNL     1      -0.188  11.222  20.548  0.00  0.00    +0.000 C 
ATOM     10  C   UNL     1      -0.500  12.424  19.645  0.00  0.00    +0.000 C 
ATOM     11  N   UNL     1      -1.659  13.192  20.167  0.00  0.00    +0.000 NA
ATOM     12  C   UNL     1      -1.304  13.617  21.544  0.00  0.00    +0.000 C 
ATOM     13  C   UNL     1      -0.800  12.484  22.461  0.00  0.00    +0.000 C 
ATOM     14  O   UNL     1       0.226  11.694  21.847  0.00  0.00    +0.000 OA
BRANCH  11  15
ATOM     15  C   UNL     1      -2.905  12.401  20.114  0.00  0.00    +0.000 C 
ATOM     16  C   UNL     1      -4.164  13.194  20.453  0.00  0.00    +0.000 C 
ATOM     17  C   UNL     1      -5.272  12.310  19.899  0.00  0.00    +0.000 C 
ATOM     18  C   UNL     1      -4.725  11.817  18.569  0.00  0.00    +0.000 C 
ATOM     19  C   UNL     1      -3.205  11.804  18.723  0.00  0.00    +0.000 C 
ENDBRANCH  11  15
ENDBRANCH   8   9
ENDBRANCH   7   8
ENDBRANCH   3   7
BRANCH   6  20
ATOM     20  C   UNL     1       4.159   5.479  17.482  0.00  0.00    +0.000 C 
BRANCH  20  21
ATOM     21  N   UNL     1       5.389   5.978  16.871  0.00  0.00    +0.000 NA
ATOM     22  C   UNL     1       5.743   5.489  15.530  0.00  0.00    +0.000 C 
ATOM     23  C   UNL     1       6.691   4.276  15.502  0.00  0.00    +0.000 C 
ATOM     24  O   UNL     1       7.851   4.497  16.317  0.00  0.00    +0.000 OA
ATOM     25  C   UNL     1       7.465   4.775  17.667  0.00  0.00    +0.000 C 
ATOM     26  C   UNL     1       6.560   6.011  17.748  0.00  0.00    +0.000 C 
ENDBRANCH  20  21
ENDBRANCH   6  20
TORSDOF 6
ENDMDL
MODEL 9
REMARK VINA RESULT:      -6.9      5.736      8.067
REMARK  Name = 
REMARK  6 active torsions:
REMARK  status: ('A' for Active; 'I' for Inactive)
REMARK    1  A    between atoms: C_3  and  O_4
REMARK    2  A    between atoms: O_4  and  C_5
REMARK    3  A    between atoms: C_5  and  C_6
REMARK    4  A    between atoms: N_8  and  C_9
REMARK    5  A    between atoms: C_19  and  C_20
REMARK    6  A    between atoms: C_20  and  N_21
REMARK                            x       y       z     vdW  Elec       q    Type
REMARK                         _______ _______ _______ _____ _____    ______ ____
ROOT
ATOM      1  C   UNL     1       5.728   6.279  16.640  0.00  0.00    +0.000 A 
ATOM      2  C   UNL     1       6.572   7.281  17.072  0.00  0.00    +0.000 A 
ATOM      3  C   UNL     1       7.550   7.038  18.038  0.00  0.00    +0.000 A 
ATOM      4  C   UNL     1       7.678   5.745  18.554  0.00  0.00    +0.000 A 
ATOM      5  C   UNL     1       6.809   4.725  18.130  0.00  0.00    +0.000 A 
ATOM      6  C   UNL     1       5.812   4.993  17.180  0.00  0.00    +0.000 A 
ENDROOT
BRANCH   3   7
ATOM      7  O   UNL     1       8.404   8.005  18.511  0.00  0.00    +0.000 OA
BRANCH   7   8
ATOM      8  C   UNL     1       8.290   9.245  17.803  0.00  0.00    +0.000 C 
BRANCH   8   9
ATOM      9  C   UNL     1       8.644  10.442  18.660  0.00  0.00    +0.000 C 
ATOM     10  C   UNL     1       9.553  11.435  17.922  0.00  0.00    +0.000 C 
ATOM     11  N   UNL     1       9.801  12.642  18.751  0.00  0.00    +0.000 NA
ATOM     12  C   UNL     1      10.417  12.171  20.017  0.00  0.00    +0.000 C 
ATOM     13  C   UNL     1       9.651  11.035  20.725  0.00  0.00    +0.000 C 
ATOM     14  O   UNL     1       9.321   9.958  19.839  0.00  0.00    +0.000 OA
BRANCH  11  15
ATOM     15  C   UNL     1       8.563  13.418  18.967  0.00  0.00    +0.000 C 
ATOM     16  C   UNL     1       8.776  14.744  19.693  0.00  0.00    +0.000 C 
ATOM     17  C   UNL     1       7.492  15.500  19.385  0.00  0.00    +0.000 C 
ATOM     18  C   UNL     1       7.218  15.189  17.921  0.00  0.00    +0.000 C 
ATOM     19  C   UNL     1       7.842  13.819  17.663  0.00  0.00    +0.000 C 
ENDBRANCH  11  15
ENDBRANCH   8   9
ENDBRANCH   7   8
ENDBRANCH   3   7
BRANCH   6  20
ATOM     20  C   UNL     1       4.842   3.960  16.669  0.00  0.00    +0.000 C 
BRANCH  20  21
ATOM     21  N   UNL     1       3.524   3.884  17.295  0.00  0.00    +0.000 NA
ATOM     22  C   UNL     1       3.159   4.923  18.270  0.00  0.00    +0.000 C 
ATOM     23  C   UNL     1       3.440   4.569  19.743  0.00  0.00    +0.000 C 
ATOM     24  O   UNL     1       2.890   3.289  20.089  0.00  0.00    +0.000 OA
ATOM     25  C   UNL     1       3.425   2.270  19.238  0.00  0.00    +0.000 C 
ATOM     26  C   UNL     1       3.123   2.556  17.762  0.00  0.00    +0.000 C 
ENDBRANCH  20  21
ENDBRANCH   6  20
TORSDOF 6
ENDMDL
