MODEL 1
REMARK VINA RESULT:      -7.8      0.000      0.000
REMARK  Name = 
REMARK  9 active torsions:
REMARK  status: ('A' for Active; 'I' for Inactive)
REMARK    1  A    between atoms: C_1  and  C_2
REMARK    2  A    between atoms: C_2  and  C_3
REMARK    3  A    between atoms: C_3  and  C_4
REMARK    4  A    between atoms: C_4  and  C_5
REMARK    5  A    between atoms: C_5  and  C_6
REMARK    6  A    between atoms: C_6  and  C_7
REMARK    7  A    between atoms: C_7  and  N_8
REMARK    8  A    between atoms: C_10  and  C_11
REMARK    9  A    between atoms: C_13  and  C_14
REMARK                            x       y       z     vdW  Elec       q    Type
REMARK                         _______ _______ _______ _____ _____    ______ ____
ROOT
ATOM      1  N   UNL     1       4.709   5.114  17.611  0.00  0.00    +0.000 N 
ATOM      2  N   UNL     1       4.175   6.358  17.608  0.00  0.00    +0.000 NA
ATOM      3  C   UNL     1       3.202   6.278  18.531  0.00  0.00    +0.000 A 
ATOM      4  C   UNL     1       3.054   4.970  19.056  0.00  0.00    +0.000 A 
ATOM      5  C   UNL     1       2.213   4.275  19.933  0.00  0.00    +0.000 A 
ATOM      6  N   UNL     1       1.113   4.825  20.573  0.00  0.00    +0.000 N 
ATOM      7  N   UNL     1       2.462   2.968  20.163  0.00  0.00    +0.000 NA
ATOM      8  C   UNL     1       3.490   2.385  19.519  0.00  0.00    +0.000 A 
ATOM      9  N   UNL     1       4.343   2.942  18.642  0.00  0.00    +0.000 NA
ATOM     10  C   UNL     1       4.065   4.243  18.449  0.00  0.00    +0.000 A 
ATOM     11  H   UNL     1       1.157   5.833  20.714  0.00  0.00    +0.000 HD
ATOM     12  H   UNL     1       0.821   4.274  21.370  0.00  0.00    +0.000 HD
ENDROOT
BRANCH   3  13
ATOM     13  C   UNL     1       2.387   7.430  18.929  0.00  0.00    +0.000 A 
ATOM     14  C   UNL     1       1.922   8.428  18.049  0.00  0.00    +0.000 A 
ATOM     15  C   UNL     1       1.182   9.260  18.852  0.00  0.00    +0.000 A 
ATOM     16  O   UNL     1       1.235   8.811  20.136  0.00  0.00    +0.000 OA
ATOM     17  N   UNL     1       1.993   7.657  20.190  0.00  0.00    +0.000 NA
BRANCH  15  18
ATOM     18  C   UNL     1       0.408  10.479  18.399  0.00  0.00    +0.000 C 
ATOM     19  C   UNL     1      -1.077  10.311  18.147  0.00  0.00    +0.000 C 
ATOM     20  C   UNL     1      -0.616  11.066  19.346  0.00  0.00    +0.000 C 
ENDBRANCH  15  18
ENDBRANCH   3  13
BRANCH   1  21
ATOM     21  C   UNL     1       5.823   4.808  16.732  0.00  0.00    +0.000 C 
BRANCH  21  22
ATOM     22  C   UNL     1       5.720   5.514  15.379  0.00  0.00    +0.000 C 
BRANCH  22  23
ATOM     23  C   UNL     1       6.691   4.916  14.360  0.00  0.00    +0.000 C 
BRANCH  23  24
ATOM     24  C   UNL     1       6.153   3.602  13.791  0.00  0.00    +0.000 C 
BRANCH  24  25
ATOM     25  C   UNL     1       6.284   3.557  12.268  0.00  0.00    +0.000 C 
BRANCH  25  27
ATOM     26  C   UNL     1       4.024   3.268  11.194  0.00  0.00    +0.000 C 
ATOM     27  C   UNL     1       5.294   2.569  11.653  0.00  0.00    +0.000 C 
ENDBRANCH  25  27
ENDBRANCH  24  25
ENDBRANCH  23  24
ENDBRANCH  22  23
ENDBRANCH  21  22
ENDBRANCH   1  21
TORSDOF 8
ENDMDL
MODEL 2
REMARK VINA RESULT:      -7.5      0.828      1.075
REMARK  Name = 
REMARK  9 active torsions:
REMARK  status: ('A' for Active; 'I' for Inactive)
REMARK    1  A    between atoms: C_1  and  C_2
REMARK    2  A    between atoms: C_2  and  C_3
REMARK    3  A    between atoms: C_3  and  C_4
REMARK    4  A    between atoms: C_4  and  C_5
REMARK    5  A    between atoms: C_5  and  C_6
REMARK    6  A    between atoms: C_6  and  C_7
REMARK    7  A    between atoms: C_7  and  N_8
REMARK    8  A    between atoms: C_10  and  C_11
REMARK    9  A    between atoms: C_13  and  C_14
REMARK                            x       y       z     vdW  Elec       q    Type
REMARK                         _______ _______ _______ _____ _____    ______ ____
ROOT
ATOM      1  N   UNL     1       4.920   4.756  17.337  0.00  0.00    +0.000 N 
ATOM      2  N   UNL     1       4.492   6.032  17.483  0.00  0.00    +0.000 NA
ATOM      3  C   UNL     1       3.397   5.903  18.250  0.00  0.00    +0.000 A 
ATOM      4  C   UNL     1       3.073   4.550  18.518  0.00  0.00    +0.000 A 
ATOM      5  C   UNL     1       2.066   3.812  19.151  0.00  0.00    +0.000 A 
ATOM      6  N   UNL     1       0.935   4.361  19.734  0.00  0.00    +0.000 N 
ATOM      7  N   UNL     1       2.175   2.467  19.179  0.00  0.00    +0.000 NA
ATOM      8  C   UNL     1       3.233   1.893  18.577  0.00  0.00    +0.000 A 
ATOM      9  N   UNL     1       4.242   2.494  17.922  0.00  0.00    +0.000 NA
ATOM     10  C   UNL     1       4.098   3.831  17.925  0.00  0.00    +0.000 A 
ATOM     11  H   UNL     1       1.039   5.324  20.053  0.00  0.00    +0.000 HD
ATOM     12  H   UNL     1       0.492   3.722  20.381  0.00  0.00    +0.000 HD
ENDROOT
BRANCH   3  13
ATOM     13  C   UNL     1       2.629   7.053  18.737  0.00  0.00    +0.000 A 
ATOM     14  C   UNL     1       2.238   8.153  17.947  0.00  0.00    +0.000 A 
ATOM     15  C   UNL     1       1.518   8.942  18.808  0.00  0.00    +0.000 A 
ATOM     16  O   UNL     1       1.513   8.372  20.044  0.00  0.00    +0.000 OA
ATOM     17  N   UNL     1       2.211   7.180  20.005  0.00  0.00    +0.000 NA
BRANCH  15  18
ATOM     18  C   UNL     1       0.817  10.236  18.456  0.00  0.00    +0.000 C 
ATOM     19  C   UNL     1      -0.674  10.319  18.715  0.00  0.00    +0.000 C 
ATOM     20  C   UNL     1       0.266  11.079  19.586  0.00  0.00    +0.000 C 
ENDBRANCH  15  18
ENDBRANCH   3  13
BRANCH   1  21
ATOM     21  C   UNL     1       6.118   4.483  16.562  0.00  0.00    +0.000 C 
BRANCH  21  22
ATOM     22  C   UNL     1       5.939   4.779  15.073  0.00  0.00    +0.000 C 
BRANCH  22  23
ATOM     23  C   UNL     1       5.950   3.496  14.241  0.00  0.00    +0.000 C 
BRANCH  23  24
ATOM     24  C   UNL     1       6.309   3.786  12.783  0.00  0.00    +0.000 C 
BRANCH  24  25
ATOM     25  C   UNL     1       5.312   3.137  11.821  0.00  0.00    +0.000 C 
BRANCH  25  27
ATOM     26  C   UNL     1       7.224   1.752  10.944  0.00  0.00    +0.000 C 
ATOM     27  C   UNL     1       5.773   1.743  11.399  0.00  0.00    +0.000 C 
ENDBRANCH  25  27
ENDBRANCH  24  25
ENDBRANCH  23  24
ENDBRANCH  22  23
ENDBRANCH  21  22
ENDBRANCH   1  21
TORSDOF 8
ENDMDL
MODEL 3
REMARK VINA RESULT:      -7.5      2.779      4.212
REMARK  Name = 
REMARK  9 active torsions:
REMARK  status: ('A' for Active; 'I' for Inactive)
REMARK    1  A    between atoms: C_1  and  C_2
REMARK    2  A    between atoms: C_2  and  C_3
REMARK    3  A    between atoms: C_3  and  C_4
REMARK    4  A    between atoms: C_4  and  C_5
REMARK    5  A    between atoms: C_5  and  C_6
REMARK    6  A    between atoms: C_6  and  C_7
REMARK    7  A    between atoms: C_7  and  N_8
REMARK    8  A    between atoms: C_10  and  C_11
REMARK    9  A    between atoms: C_13  and  C_14
REMARK                            x       y       z     vdW  Elec       q    Type
REMARK                         _______ _______ _______ _____ _____    ______ ____
ROOT
ATOM      1  N   UNL     1       5.223   5.400  18.413  0.00  0.00    +0.000 N 
ATOM      2  N   UNL     1       4.580   6.583  18.270  0.00  0.00    +0.000 NA
ATOM      3  C   UNL     1       3.459   6.413  18.990  0.00  0.00    +0.000 A 
ATOM      4  C   UNL     1       3.341   5.102  19.515  0.00  0.00    +0.000 A 
ATOM      5  C   UNL     1       2.417   4.334  20.234  0.00  0.00    +0.000 A 
ATOM      6  N   UNL     1       1.166   4.775  20.634  0.00  0.00    +0.000 N 
ATOM      7  N   UNL     1       2.744   3.062  20.545  0.00  0.00    +0.000 NA
ATOM      8  C   UNL     1       3.930   2.579  20.129  0.00  0.00    +0.000 A 
ATOM      9  N   UNL     1       4.878   3.212  19.417  0.00  0.00    +0.000 NA
ATOM     10  C   UNL     1       4.517   4.476  19.136  0.00  0.00    +0.000 A 
ATOM     11  H   UNL     1       1.082   5.784  20.751  0.00  0.00    +0.000 HD
ATOM     12  H   UNL     1       0.779   4.205  21.375  0.00  0.00    +0.000 HD
ENDROOT
BRANCH   3  13
ATOM     13  C   UNL     1       2.474   7.480  19.190  0.00  0.00    +0.000 A 
ATOM     14  C   UNL     1       2.052   8.382  18.193  0.00  0.00    +0.000 A 
ATOM     15  C   UNL     1       1.109   9.156  18.823  0.00  0.00    +0.000 A 
ATOM     16  O   UNL     1       1.003   8.768  20.123  0.00  0.00    +0.000 OA
ATOM     17  N   UNL     1       1.860   7.711  20.360  0.00  0.00    +0.000 NA
BRANCH  15  18
ATOM     18  C   UNL     1       0.292  10.260  18.185  0.00  0.00    +0.000 C 
ATOM     19  C   UNL     1      -1.096   9.906  17.688  0.00  0.00    +0.000 C 
ATOM     20  C   UNL     1      -0.944  10.742  18.912  0.00  0.00    +0.000 C 
ENDBRANCH  15  18
ENDBRANCH   3  13
BRANCH   1  21
ATOM     21  C   UNL     1       6.511   5.201  17.773  0.00  0.00    +0.000 C 
BRANCH  21  22
ATOM     22  C   UNL     1       7.063   6.480  17.143  0.00  0.00    +0.000 C 
BRANCH  22  23
ATOM     23  C   UNL     1       7.921   7.268  18.134  0.00  0.00    +0.000 C 
BRANCH  23  24
ATOM     24  C   UNL     1       8.007   8.743  17.738  0.00  0.00    +0.000 C 
BRANCH  24  25
ATOM     25  C   UNL     1       8.908   9.527  18.694  0.00  0.00    +0.000 C 
BRANCH  25  27
ATOM     26  C   UNL     1      10.411  11.362  17.847  0.00  0.00    +0.000 C 
ATOM     27  C   UNL     1       9.003  10.997  18.290  0.00  0.00    +0.000 C 
ENDBRANCH  25  27
ENDBRANCH  24  25
ENDBRANCH  23  24
ENDBRANCH  22  23
ENDBRANCH  21  22
ENDBRANCH   1  21
TORSDOF 8
ENDMDL
MODEL 4
REMARK VINA RESULT:      -7.5      0.825      1.012
REMARK  Name = 
REMARK  9 active torsions:
REMARK  status: ('A' for Active; 'I' for Inactive)
REMARK    1  A    between atoms: C_1  and  C_2
REMARK    2  A    between atoms: C_2  and  C_3
REMARK    3  A    between atoms: C_3  and  C_4
REMARK    4  A    between atoms: C_4  and  C_5
REMARK    5  A    between atoms: C_5  and  C_6
REMARK    6  A    between atoms: C_6  and  C_7
REMARK    7  A    between atoms: C_7  and  N_8
REMARK    8  A    between atoms: C_10  and  C_11
REMARK    9  A    between atoms: C_13  and  C_14
REMARK                            x       y       z     vdW  Elec       q    Type
REMARK                         _______ _______ _______ _____ _____    ______ ____
ROOT
ATOM      1  N   UNL     1       4.909   5.903  17.355  0.00  0.00    +0.000 N 
ATOM      2  N   UNL     1       4.165   7.035  17.331  0.00  0.00    +0.000 NA
ATOM      3  C   UNL     1       3.286   6.847  18.328  0.00  0.00    +0.000 A 
ATOM      4  C   UNL     1       3.404   5.569  18.928  0.00  0.00    +0.000 A 
ATOM      5  C   UNL     1       2.759   4.797  19.901  0.00  0.00    +0.000 A 
ATOM      6  N   UNL     1       1.625   5.190  20.595  0.00  0.00    +0.000 N 
ATOM      7  N   UNL     1       3.247   3.569  20.176  0.00  0.00    +0.000 NA
ATOM      8  C   UNL     1       4.316   3.130  19.485  0.00  0.00    +0.000 A 
ATOM      9  N   UNL     1       4.998   3.769  18.519  0.00  0.00    +0.000 NA
ATOM     10  C   UNL     1       4.485   4.989  18.283  0.00  0.00    +0.000 A 
ATOM     11  H   UNL     1       1.501   6.197  20.682  0.00  0.00    +0.000 HD
ATOM     12  H   UNL     1       1.488   4.648  21.438  0.00  0.00    +0.000 HD
ENDROOT
BRANCH   3  13
ATOM     13  C   UNL     1       2.311   7.865  18.729  0.00  0.00    +0.000 A 
ATOM     14  C   UNL     1       1.692   8.777  17.850  0.00  0.00    +0.000 A 
ATOM     15  C   UNL     1       0.843   9.493  18.657  0.00  0.00    +0.000 A 
ATOM     16  O   UNL     1       0.975   9.065  19.942  0.00  0.00    +0.000 OA
ATOM     17  N   UNL     1       1.899   8.038  19.993  0.00  0.00    +0.000 NA
BRANCH  15  18
ATOM     18  C   UNL     1      -0.110  10.578  18.206  0.00  0.00    +0.000 C 
ATOM     19  C   UNL     1      -1.480  10.150  17.718  0.00  0.00    +0.000 C 
ATOM     20  C   UNL     1      -1.350  10.829  19.037  0.00  0.00    +0.000 C 
ENDBRANCH  15  18
ENDBRANCH   3  13
BRANCH   1  21
ATOM     21  C   UNL     1       5.997   5.737  16.409  0.00  0.00    +0.000 C 
BRANCH  21  22
ATOM     22  C   UNL     1       5.511   5.368  15.006  0.00  0.00    +0.000 C 
BRANCH  22  23
ATOM     23  C   UNL     1       5.824   3.910  14.670  0.00  0.00    +0.000 C 
BRANCH  23  24
ATOM     24  C   UNL     1       6.273   3.763  13.215  0.00  0.00    +0.000 C 
BRANCH  24  25
ATOM     25  C   UNL     1       5.122   3.300  12.320  0.00  0.00    +0.000 C 
BRANCH  25  27
ATOM     26  C   UNL     1       7.087   2.069  11.335  0.00  0.00    +0.000 C 
ATOM     27  C   UNL     1       5.572   2.201  11.358  0.00  0.00    +0.000 C 
ENDBRANCH  25  27
ENDBRANCH  24  25
ENDBRANCH  23  24
ENDBRANCH  22  23
ENDBRANCH  21  22
ENDBRANCH   1  21
TORSDOF 8
ENDMDL
MODEL 5
REMARK VINA RESULT:      -7.4      3.883      5.057
REMARK  Name = 
REMARK  9 active torsions:
REMARK  status: ('A' for Active; 'I' for Inactive)
REMARK    1  A    between atoms: C_1  and  C_2
REMARK    2  A    between atoms: C_2  and  C_3
REMARK    3  A    between atoms: C_3  and  C_4
REMARK    4  A    between atoms: C_4  and  C_5
REMARK    5  A    between atoms: C_5  and  C_6
REMARK    6  A    between atoms: C_6  and  C_7
REMARK    7  A    between atoms: C_7  and  N_8
REMARK    8  A    between atoms: C_10  and  C_11
REMARK    9  A    between atoms: C_13  and  C_14
REMARK                            x       y       z     vdW  Elec       q    Type
REMARK                         _______ _______ _______ _____ _____    ______ ____
ROOT
ATOM      1  N   UNL     1       5.861   4.814  15.178  0.00  0.00    +0.000 N 
ATOM      2  N   UNL     1       4.949   3.879  15.534  0.00  0.00    +0.000 NA
ATOM      3  C   UNL     1       4.915   3.977  16.873  0.00  0.00    +0.000 A 
ATOM      4  C   UNL     1       5.861   4.902  17.378  0.00  0.00    +0.000 A 
ATOM      5  C   UNL     1       6.336   5.357  18.614  0.00  0.00    +0.000 A 
ATOM      6  N   UNL     1       5.915   4.877  19.844  0.00  0.00    +0.000 N 
ATOM      7  N   UNL     1       7.290   6.311  18.625  0.00  0.00    +0.000 NA
ATOM      8  C   UNL     1       7.762   6.765  17.449  0.00  0.00    +0.000 A 
ATOM      9  N   UNL     1       7.403   6.388  16.210  0.00  0.00    +0.000 NA
ATOM     10  C   UNL     1       6.446   5.444  16.245  0.00  0.00    +0.000 A 
ATOM     11  H   UNL     1       4.977   4.481  19.855  0.00  0.00    +0.000 HD
ATOM     12  H   UNL     1       6.140   5.514  20.598  0.00  0.00    +0.000 HD
ENDROOT
BRANCH   3  13
ATOM     13  C   UNL     1       3.995   3.193  17.703  0.00  0.00    +0.000 A 
ATOM     14  C   UNL     1       2.969   3.738  18.501  0.00  0.00    +0.000 A 
ATOM     15  C   UNL     1       2.357   2.639  19.051  0.00  0.00    +0.000 A 
ATOM     16  O   UNL     1       3.001   1.512  18.642  0.00  0.00    +0.000 OA
ATOM     17  N   UNL     1       4.034   1.856  17.791  0.00  0.00    +0.000 NA
BRANCH  15  18
ATOM     18  C   UNL     1       1.146   2.656  19.959  0.00  0.00    +0.000 C 
ATOM     19  C   UNL     1       1.391   2.736  21.453  0.00  0.00    +0.000 C 
ATOM     20  C   UNL     1       0.851   3.923  20.732  0.00  0.00    +0.000 C 
ENDBRANCH  15  18
ENDBRANCH   3  13
BRANCH   1  21
ATOM     21  C   UNL     1       6.168   5.021  13.774  0.00  0.00    +0.000 C 
BRANCH  21  22
ATOM     22  C   UNL     1       7.009   3.890  13.180  0.00  0.00    +0.000 C 
BRANCH  22  23
ATOM     23  C   UNL     1       6.374   3.331  11.905  0.00  0.00    +0.000 C 
BRANCH  23  24
ATOM     24  C   UNL     1       4.867   3.588  11.881  0.00  0.00    +0.000 C 
BRANCH  24  25
ATOM     25  C   UNL     1       4.141   2.573  10.996  0.00  0.00    +0.000 C 
BRANCH  25  27
ATOM     26  C   UNL     1       3.066   4.384   9.615  0.00  0.00    +0.000 C 
ATOM     27  C   UNL     1       2.829   3.141  10.458  0.00  0.00    +0.000 C 
ENDBRANCH  25  27
ENDBRANCH  24  25
ENDBRANCH  23  24
ENDBRANCH  22  23
ENDBRANCH  21  22
ENDBRANCH   1  21
TORSDOF 8
ENDMDL
MODEL 6
REMARK VINA RESULT:      -7.4      4.388      7.062
REMARK  Name = 
REMARK  9 active torsions:
REMARK  status: ('A' for Active; 'I' for Inactive)
REMARK    1  A    between atoms: C_1  and  C_2
REMARK    2  A    between atoms: C_2  and  C_3
REMARK    3  A    between atoms: C_3  and  C_4
REMARK    4  A    between atoms: C_4  and  C_5
REMARK    5  A    between atoms: C_5  and  C_6
REMARK    6  A    between atoms: C_6  and  C_7
REMARK    7  A    between atoms: C_7  and  N_8
REMARK    8  A    between atoms: C_10  and  C_11
REMARK    9  A    between atoms: C_13  and  C_14
REMARK                            x       y       z     vdW  Elec       q    Type
REMARK                         _______ _______ _______ _____ _____    ______ ____
ROOT
ATOM      1  N   UNL     1       7.313   6.522  17.499  0.00  0.00    +0.000 N 
ATOM      2  N   UNL     1       6.560   6.240  18.588  0.00  0.00    +0.000 NA
ATOM      3  C   UNL     1       5.869   5.152  18.211  0.00  0.00    +0.000 A 
ATOM      4  C   UNL     1       6.109   4.793  16.862  0.00  0.00    +0.000 A 
ATOM      5  C   UNL     1       5.654   3.861  15.921  0.00  0.00    +0.000 A 
ATOM      6  N   UNL     1       4.651   2.933  16.154  0.00  0.00    +0.000 N 
ATOM      7  N   UNL     1       6.201   3.872  14.688  0.00  0.00    +0.000 NA
ATOM      8  C   UNL     1       7.141   4.794  14.407  0.00  0.00    +0.000 A 
ATOM      9  N   UNL     1       7.636   5.747  15.216  0.00  0.00    +0.000 NA
ATOM     10  C   UNL     1       7.070   5.695  16.435  0.00  0.00    +0.000 A 
ATOM     11  H   UNL     1       4.529   2.666  17.129  0.00  0.00    +0.000 HD
ATOM     12  H   UNL     1       4.670   2.175  15.482  0.00  0.00    +0.000 HD
ENDROOT
BRANCH   3  13
ATOM     13  C   UNL     1       4.962   4.435  19.112  0.00  0.00    +0.000 A 
ATOM     14  C   UNL     1       3.769   4.965  19.642  0.00  0.00    +0.000 A 
ATOM     15  C   UNL     1       3.247   3.934  20.384  0.00  0.00    +0.000 A 
ATOM     16  O   UNL     1       4.094   2.870  20.334  0.00  0.00    +0.000 OA
ATOM     17  N   UNL     1       5.177   3.180  19.533  0.00  0.00    +0.000 NA
BRANCH  15  18
ATOM     18  C   UNL     1       1.932   3.952  21.131  0.00  0.00    +0.000 C 
ATOM     19  C   UNL     1       0.737   3.301  20.463  0.00  0.00    +0.000 C 
ATOM     20  C   UNL     1       1.378   2.635  21.631  0.00  0.00    +0.000 C 
ENDBRANCH  15  18
ENDBRANCH   3  13
BRANCH   1  21
ATOM     21  C   UNL     1       8.224   7.653  17.528  0.00  0.00    +0.000 C 
BRANCH  21  22
ATOM     22  C   UNL     1       7.511   8.980  17.787  0.00  0.00    +0.000 C 
BRANCH  22  23
ATOM     23  C   UNL     1       8.509  10.122  17.989  0.00  0.00    +0.000 C 
BRANCH  23  24
ATOM     24  C   UNL     1       9.169  10.041  19.367  0.00  0.00    +0.000 C 
BRANCH  24  25
ATOM     25  C   UNL     1       9.925  11.327  19.701  0.00  0.00    +0.000 C 
BRANCH  25  27
ATOM     26  C   UNL     1      12.333  12.066  19.768  0.00  0.00    +0.000 C 
ATOM     27  C   UNL     1      11.243  11.413  18.932  0.00  0.00    +0.000 C 
ENDBRANCH  25  27
ENDBRANCH  24  25
ENDBRANCH  23  24
ENDBRANCH  22  23
ENDBRANCH  21  22
ENDBRANCH   1  21
TORSDOF 8
ENDMDL
MODEL 7
REMARK VINA RESULT:      -7.4      0.898      1.075
REMARK  Name = 
REMARK  9 active torsions:
REMARK  status: ('A' for Active; 'I' for Inactive)
REMARK    1  A    between atoms: C_1  and  C_2
REMARK    2  A    between atoms: C_2  and  C_3
REMARK    3  A    between atoms: C_3  and  C_4
REMARK    4  A    between atoms: C_4  and  C_5
REMARK    5  A    between atoms: C_5  and  C_6
REMARK    6  A    between atoms: C_6  and  C_7
REMARK    7  A    between atoms: C_7  and  N_8
REMARK    8  A    between atoms: C_10  and  C_11
REMARK    9  A    between atoms: C_13  and  C_14
REMARK                            x       y       z     vdW  Elec       q    Type
REMARK                         _______ _______ _______ _____ _____    ______ ____
ROOT
ATOM      1  N   UNL     1       5.419   4.994  18.544  0.00  0.00    +0.000 N 
ATOM      2  N   UNL     1       4.828   6.193  18.326  0.00  0.00    +0.000 NA
ATOM      3  C   UNL     1       3.676   6.098  19.009  0.00  0.00    +0.000 A 
ATOM      4  C   UNL     1       3.487   4.818  19.586  0.00  0.00    +0.000 A 
ATOM      5  C   UNL     1       2.509   4.118  20.303  0.00  0.00    +0.000 A 
ATOM      6  N   UNL     1       1.262   4.624  20.634  0.00  0.00    +0.000 N 
ATOM      7  N   UNL     1       2.773   2.850  20.681  0.00  0.00    +0.000 NA
ATOM      8  C   UNL     1       3.954   2.305  20.332  0.00  0.00    +0.000 A 
ATOM      9  N   UNL     1       4.952   2.868  19.630  0.00  0.00    +0.000 NA
ATOM     10  C   UNL     1       4.651   4.131  19.280  0.00  0.00    +0.000 A 
ATOM     11  H   UNL     1       1.214   5.640  20.704  0.00  0.00    +0.000 HD
ATOM     12  H   UNL     1       0.827   4.104  21.385  0.00  0.00    +0.000 HD
ENDROOT
BRANCH   3  13
ATOM     13  C   UNL     1       2.727   7.209  19.124  0.00  0.00    +0.000 A 
ATOM     14  C   UNL     1       2.380   8.083  18.074  0.00  0.00    +0.000 A 
ATOM     15  C   UNL     1       1.445   8.919  18.632  0.00  0.00    +0.000 A 
ATOM     16  O   UNL     1       1.275   8.593  19.943  0.00  0.00    +0.000 OA
ATOM     17  N   UNL     1       2.080   7.516  20.258  0.00  0.00    +0.000 NA
BRANCH  15  18
ATOM     18  C   UNL     1       0.698  10.023  17.917  0.00  0.00    +0.000 C 
ATOM     19  C   UNL     1      -0.814   9.920  17.854  0.00  0.00    +0.000 C 
ATOM     20  C   UNL     1      -0.183  10.938  18.740  0.00  0.00    +0.000 C 
ENDBRANCH  15  18
ENDBRANCH   3  13
BRANCH   1  21
ATOM     21  C   UNL     1       6.721   4.717  17.964  0.00  0.00    +0.000 C 
BRANCH  21  22
ATOM     22  C   UNL     1       6.727   4.840  16.439  0.00  0.00    +0.000 C 
BRANCH  22  23
ATOM     23  C   UNL     1       5.748   3.858  15.794  0.00  0.00    +0.000 C 
BRANCH  23  24
ATOM     24  C   UNL     1       5.366   4.307  14.382  0.00  0.00    +0.000 C 
BRANCH  24  25
ATOM     25  C   UNL     1       6.324   3.736  13.336  0.00  0.00    +0.000 C 
BRANCH  25  27
ATOM     26  C   UNL     1       6.462   2.227  11.324  0.00  0.00    +0.000 C 
ATOM     27  C   UNL     1       5.564   3.125  12.160  0.00  0.00    +0.000 C 
ENDBRANCH  25  27
ENDBRANCH  24  25
ENDBRANCH  23  24
ENDBRANCH  22  23
ENDBRANCH  21  22
ENDBRANCH   1  21
TORSDOF 8
ENDMDL
MODEL 8
REMARK VINA RESULT:      -7.4      1.922      3.227
REMARK  Name = 
REMARK  9 active torsions:
REMARK  status: ('A' for Active; 'I' for Inactive)
REMARK    1  A    between atoms: C_1  and  C_2
REMARK    2  A    between atoms: C_2  and  C_3
REMARK    3  A    between atoms: C_3  and  C_4
REMARK    4  A    between atoms: C_4  and  C_5
REMARK    5  A    between atoms: C_5  and  C_6
REMARK    6  A    between atoms: C_6  and  C_7
REMARK    7  A    between atoms: C_7  and  N_8
REMARK    8  A    between atoms: C_10  and  C_11
REMARK    9  A    between atoms: C_13  and  C_14
REMARK                            x       y       z     vdW  Elec       q    Type
REMARK                         _______ _______ _______ _____ _____    ______ ____
ROOT
ATOM      1  N   UNL     1       4.193   5.121  16.903  0.00  0.00    +0.000 N 
ATOM      2  N   UNL     1       3.794   6.374  17.224  0.00  0.00    +0.000 NA
ATOM      3  C   UNL     1       2.950   6.176  18.250  0.00  0.00    +0.000 A 
ATOM      4  C   UNL     1       2.739   4.802  18.525  0.00  0.00    +0.000 A 
ATOM      5  C   UNL     1       1.955   4.004  19.367  0.00  0.00    +0.000 A 
ATOM      6  N   UNL     1       1.013   4.488  20.261  0.00  0.00    +0.000 N 
ATOM      7  N   UNL     1       2.096   2.663  19.296  0.00  0.00    +0.000 NA
ATOM      8  C   UNL     1       2.964   2.152  18.403  0.00  0.00    +0.000 A 
ATOM      9  N   UNL     1       3.745   2.814  17.533  0.00  0.00    +0.000 NA
ATOM     10  C   UNL     1       3.580   4.144  17.642  0.00  0.00    +0.000 A 
ATOM     11  H   UNL     1       1.179   5.438  20.588  0.00  0.00    +0.000 HD
ATOM     12  H   UNL     1       0.774   3.807  20.970  0.00  0.00    +0.000 HD
ENDROOT
BRANCH   3  13
ATOM     13  C   UNL     1       2.319   7.276  18.984  0.00  0.00    +0.000 A 
ATOM     14  C   UNL     1       1.861   8.475  18.400  0.00  0.00    +0.000 A 
ATOM     15  C   UNL     1       1.318   9.171  19.451  0.00  0.00    +0.000 A 
ATOM     16  O   UNL     1       1.478   8.453  20.597  0.00  0.00    +0.000 OA
ATOM     17  N   UNL     1       2.107   7.258  20.308  0.00  0.00    +0.000 NA
BRANCH  15  18
ATOM     18  C   UNL     1       0.631  10.516  19.368  0.00  0.00    +0.000 C 
ATOM     19  C   UNL     1       1.150  11.624  20.263  0.00  0.00    +0.000 C 
ATOM     20  C   UNL     1       1.411  11.681  18.798  0.00  0.00    +0.000 C 
ENDBRANCH  15  18
ENDBRANCH   3  13
BRANCH   1  21
ATOM     21  C   UNL     1       5.142   4.923  15.822  0.00  0.00    +0.000 C 
BRANCH  21  22
ATOM     22  C   UNL     1       6.296   3.998  16.211  0.00  0.00    +0.000 C 
BRANCH  22  23
ATOM     23  C   UNL     1       7.535   4.792  16.628  0.00  0.00    +0.000 C 
BRANCH  23  24
ATOM     24  C   UNL     1       7.669   4.847  18.151  0.00  0.00    +0.000 C 
BRANCH  24  25
ATOM     25  C   UNL     1       7.628   6.287  18.664  0.00  0.00    +0.000 C 
BRANCH  25  27
ATOM     26  C   UNL     1       8.085   8.637  17.879  0.00  0.00    +0.000 C 
ATOM     27  C   UNL     1       7.495   7.284  17.513  0.00  0.00    +0.000 C 
ENDBRANCH  25  27
ENDBRANCH  24  25
ENDBRANCH  23  24
ENDBRANCH  22  23
ENDBRANCH  21  22
ENDBRANCH   1  21
TORSDOF 8
ENDMDL
MODEL 9
REMARK VINA RESULT:      -7.3      3.742      4.911
REMARK  Name = 
REMARK  9 active torsions:
REMARK  status: ('A' for Active; 'I' for Inactive)
REMARK    1  A    between atoms: C_1  and  C_2
REMARK    2  A    between atoms: C_2  and  C_3
REMARK    3  A    between atoms: C_3  and  C_4
REMARK    4  A    between atoms: C_4  and  C_5
REMARK    5  A    between atoms: C_5  and  C_6
REMARK    6  A    between atoms: C_6  and  C_7
REMARK    7  A    between atoms: C_7  and  N_8
REMARK    8  A    between atoms: C_10  and  C_11
REMARK    9  A    between atoms: C_13  and  C_14
REMARK                            x       y       z     vdW  Elec       q    Type
REMARK                         _______ _______ _______ _____ _____    ______ ____
ROOT
ATOM      1  N   UNL     1       5.925   4.270  15.306  0.00  0.00    +0.000 N 
ATOM      2  N   UNL     1       4.812   3.573  15.638  0.00  0.00    +0.000 NA
ATOM      3  C   UNL     1       4.461   4.101  16.821  0.00  0.00    +0.000 A 
ATOM      4  C   UNL     1       5.389   5.064  17.288  0.00  0.00    +0.000 A 
ATOM      5  C   UNL     1       5.607   5.856  18.421  0.00  0.00    +0.000 A 
ATOM      6  N   UNL     1       4.819   5.834  19.561  0.00  0.00    +0.000 N 
ATOM      7  N   UNL     1       6.671   6.686  18.431  0.00  0.00    +0.000 NA
ATOM      8  C   UNL     1       7.490   6.698  17.363  0.00  0.00    +0.000 A 
ATOM      9  N   UNL     1       7.395   5.969  16.237  0.00  0.00    +0.000 NA
ATOM     10  C   UNL     1       6.319   5.163  16.266  0.00  0.00    +0.000 A 
ATOM     11  H   UNL     1       3.856   5.536  19.414  0.00  0.00    +0.000 HD
ATOM     12  H   UNL     1       4.949   6.661  20.130  0.00  0.00    +0.000 HD
ENDROOT
BRANCH   3  13
ATOM     13  C   UNL     1       3.247   3.701  17.540  0.00  0.00    +0.000 A 
ATOM     14  C   UNL     1       3.139   3.596  18.941  0.00  0.00    +0.000 A 
ATOM     15  C   UNL     1       1.830   3.238  19.148  0.00  0.00    +0.000 A 
ATOM     16  O   UNL     1       1.206   3.098  17.947  0.00  0.00    +0.000 OA
ATOM     17  N   UNL     1       2.094   3.390  16.930  0.00  0.00    +0.000 NA
BRANCH  15  18
ATOM     18  C   UNL     1       1.163   3.042  20.492  0.00  0.00    +0.000 C 
ATOM     19  C   UNL     1       1.865   2.154  21.500  0.00  0.00    +0.000 C 
ATOM     20  C   UNL     1       1.835   3.628  21.715  0.00  0.00    +0.000 C 
ENDBRANCH  15  18
ENDBRANCH   3  13
BRANCH   1  21
ATOM     21  C   UNL     1       6.604   3.987  14.054  0.00  0.00    +0.000 C 
BRANCH  21  22
ATOM     22  C   UNL     1       5.642   3.884  12.869  0.00  0.00    +0.000 C 
BRANCH  22  23
ATOM     23  C   UNL     1       5.946   2.659  12.005  0.00  0.00    +0.000 C 
BRANCH  23  24
ATOM     24  C   UNL     1       4.805   2.378  11.025  0.00  0.00    +0.000 C 
BRANCH  24  25
ATOM     25  C   UNL     1       3.776   3.509  11.028  0.00  0.00    +0.000 C 
BRANCH  25  27
ATOM     26  C   UNL     1       2.597   4.749   9.179  0.00  0.00    +0.000 C 
ATOM     27  C   UNL     1       2.824   3.398   9.838  0.00  0.00    +0.000 C 
ENDBRANCH  25  27
ENDBRANCH  24  25
ENDBRANCH  23  24
ENDBRANCH  22  23
ENDBRANCH  21  22
ENDBRANCH   1  21
TORSDOF 8
ENDMDL
