MODEL 1
REMARK VINA RESULT:      -8.1      0.000      0.000
REMARK  Name = 
REMARK  3 active torsions:
REMARK  status: ('A' for Active; 'I' for Inactive)
REMARK    1  A    between atoms: O_1  and  C_2
REMARK    2  A    between atoms: C_9  and  C_10
REMARK    3  A    between atoms: C_11  and  C_12
REMARK                            x       y       z     vdW  Elec       q    Type
REMARK                         _______ _______ _______ _____ _____    ______ ____
ROOT
ATOM      1  C   UNL     1       3.663   2.511  20.569  0.00  0.00    +0.000 A 
ATOM      2  C   UNL     1       2.791   2.184  21.612  0.00  0.00    +0.000 A 
ATOM      3  C   UNL     1       1.527   2.763  21.658  0.00  0.00    +0.000 A 
ATOM      4  C   UNL     1       1.144   3.659  20.664  0.00  0.00    +0.000 A 
ATOM      5  C   UNL     1       2.022   3.983  19.617  0.00  0.00    +0.000 A 
ATOM      6  C   UNL     1       1.646   4.882  18.610  0.00  0.00    +0.000 A 
ATOM      7  C   UNL     1       2.534   5.183  17.585  0.00  0.00    +0.000 A 
ATOM      8  C   UNL     1       3.781   4.578  17.591  0.00  0.00    +0.000 A 
ATOM      9  N   UNL     1       4.164   3.710  18.551  0.00  0.00    +0.000 NA
ATOM     10  C   UNL     1       3.309   3.408  19.552  0.00  0.00    +0.000 A 
ENDROOT
BRANCH   1  11
ATOM     11  O   UNL     1       4.910   1.931  20.539  0.00  0.00    +0.000 OA
ATOM     12  H   UNL     1       4.920   1.156  21.119  0.00  0.00    +0.000 HD
ENDBRANCH   1  11
BRANCH   8  13
ATOM     13  C   UNL     1       4.751   4.877  16.529  0.00  0.00    +0.000 C 
ATOM     14  C   UNL     1       5.067   4.021  15.543  0.00  0.00    +0.000 C 
BRANCH  14  15
ATOM     15  C   UNL     1       6.042   4.315  14.485  0.00  0.00    +0.000 A 
ATOM     16  C   UNL     1       5.945   3.786  13.195  0.00  0.00    +0.000 A 
ATOM     17  C   UNL     1       6.894   4.116  12.232  0.00  0.00    +0.000 A 
ATOM     18  C   UNL     1       7.911   4.987  12.583  0.00  0.00    +0.000 A 
ATOM     19  N   UNL     1       8.032   5.542  13.806  0.00  0.00    +0.000 NA
ATOM     20  C   UNL     1       7.094   5.199  14.725  0.00  0.00    +0.000 A 
ENDBRANCH  14  15
ENDBRANCH   8  13
TORSDOF 3
ENDMDL
MODEL 2
REMARK VINA RESULT:      -8.1      1.192      1.244
REMARK  Name = 
REMARK  3 active torsions:
REMARK  status: ('A' for Active; 'I' for Inactive)
REMARK    1  A    between atoms: O_1  and  C_2
REMARK    2  A    between atoms: C_9  and  C_10
REMARK    3  A    between atoms: C_11  and  C_12
REMARK                            x       y       z     vdW  Elec       q    Type
REMARK                         _______ _______ _______ _____ _____    ______ ____
ROOT
ATOM      1  C   UNL     1       2.332   2.428  19.326  0.00  0.00    +0.000 A 
ATOM      2  C   UNL     1       1.601   2.225  20.501  0.00  0.00    +0.000 A 
ATOM      3  C   UNL     1       1.362   3.296  21.356  0.00  0.00    +0.000 A 
ATOM      4  C   UNL     1       1.851   4.558  21.031  0.00  0.00    +0.000 A 
ATOM      5  C   UNL     1       2.584   4.759  19.849  0.00  0.00    +0.000 A 
ATOM      6  C   UNL     1       3.078   6.025  19.512  0.00  0.00    +0.000 A 
ATOM      7  C   UNL     1       3.799   6.195  18.336  0.00  0.00    +0.000 A 
ATOM      8  C   UNL     1       4.008   5.091  17.523  0.00  0.00    +0.000 A 
ATOM      9  N   UNL     1       3.541   3.863  17.829  0.00  0.00    +0.000 NA
ATOM     10  C   UNL     1       2.838   3.685  18.969  0.00  0.00    +0.000 A 
ENDROOT
BRANCH   1  11
ATOM     11  O   UNL     1       2.560   1.358  18.493  0.00  0.00    +0.000 OA
ATOM     12  H   UNL     1       3.250   1.586  17.855  0.00  0.00    +0.000 HD
ENDBRANCH   1  11
BRANCH   8  13
ATOM     13  C   UNL     1       4.771   5.229  16.275  0.00  0.00    +0.000 C 
ATOM     14  C   UNL     1       5.419   4.213  15.679  0.00  0.00    +0.000 C 
BRANCH  14  15
ATOM     15  C   UNL     1       6.188   4.352  14.437  0.00  0.00    +0.000 A 
ATOM     16  C   UNL     1       5.874   3.652  13.268  0.00  0.00    +0.000 A 
ATOM     17  C   UNL     1       6.633   3.839  12.117  0.00  0.00    +0.000 A 
ATOM     18  C   UNL     1       7.683   4.740  12.161  0.00  0.00    +0.000 A 
ATOM     19  N   UNL     1       8.009   5.455  13.257  0.00  0.00    +0.000 NA
ATOM     20  C   UNL     1       7.253   5.250  14.364  0.00  0.00    +0.000 A 
ENDBRANCH  14  15
ENDBRANCH   8  13
TORSDOF 3
ENDMDL
MODEL 3
REMARK VINA RESULT:      -7.7      1.445      1.731
REMARK  Name = 
REMARK  3 active torsions:
REMARK  status: ('A' for Active; 'I' for Inactive)
REMARK    1  A    between atoms: O_1  and  C_2
REMARK    2  A    between atoms: C_9  and  C_10
REMARK    3  A    between atoms: C_11  and  C_12
REMARK                            x       y       z     vdW  Elec       q    Type
REMARK                         _______ _______ _______ _____ _____    ______ ____
ROOT
ATOM      1  C   UNL     1       2.269   2.502  19.206  0.00  0.00    +0.000 A 
ATOM      2  C   UNL     1       1.547   2.313  20.389  0.00  0.00    +0.000 A 
ATOM      3  C   UNL     1       1.383   3.377  21.271  0.00  0.00    +0.000 A 
ATOM      4  C   UNL     1       1.937   4.617  20.964  0.00  0.00    +0.000 A 
ATOM      5  C   UNL     1       2.659   4.802  19.774  0.00  0.00    +0.000 A 
ATOM      6  C   UNL     1       3.218   6.046  19.454  0.00  0.00    +0.000 A 
ATOM      7  C   UNL     1       3.927   6.202  18.270  0.00  0.00    +0.000 A 
ATOM      8  C   UNL     1       4.061   5.107  17.430  0.00  0.00    +0.000 A 
ATOM      9  N   UNL     1       3.531   3.900  17.718  0.00  0.00    +0.000 NA
ATOM     10  C   UNL     1       2.839   3.736  18.867  0.00  0.00    +0.000 A 
ENDROOT
BRANCH   1  11
ATOM     11  O   UNL     1       2.423   1.439  18.347  0.00  0.00    +0.000 OA
ATOM     12  H   UNL     1       2.315   0.611  18.834  0.00  0.00    +0.000 HD
ENDBRANCH   1  11
BRANCH   8  13
ATOM     13  C   UNL     1       4.809   5.229  16.172  0.00  0.00    +0.000 C 
ATOM     14  C   UNL     1       5.370   4.190  15.531  0.00  0.00    +0.000 C 
BRANCH  14  15
ATOM     15  C   UNL     1       6.125   4.312  14.278  0.00  0.00    +0.000 A 
ATOM     16  C   UNL     1       7.231   5.155  14.138  0.00  0.00    +0.000 A 
ATOM     17  C   UNL     1       7.914   5.215  12.927  0.00  0.00    +0.000 A 
ATOM     18  C   UNL     1       7.480   4.412  11.887  0.00  0.00    +0.000 A 
ATOM     19  N   UNL     1       6.434   3.566  11.982  0.00  0.00    +0.000 NA
ATOM     20  C   UNL     1       5.786   3.532  13.173  0.00  0.00    +0.000 A 
ENDBRANCH  14  15
ENDBRANCH   8  13
TORSDOF 3
ENDMDL
MODEL 4
REMARK VINA RESULT:      -7.7      6.055      7.575
REMARK  Name = 
REMARK  3 active torsions:
REMARK  status: ('A' for Active; 'I' for Inactive)
REMARK    1  A    between atoms: O_1  and  C_2
REMARK    2  A    between atoms: C_9  and  C_10
REMARK    3  A    between atoms: C_11  and  C_12
REMARK                            x       y       z     vdW  Elec       q    Type
REMARK                         _______ _______ _______ _____ _____    ______ ____
ROOT
ATOM      1  C   UNL     1       5.361   6.075  16.028  0.00  0.00    +0.000 A 
ATOM      2  C   UNL     1       4.726   4.828  16.025  0.00  0.00    +0.000 A 
ATOM      3  C   UNL     1       5.058   3.887  16.994  0.00  0.00    +0.000 A 
ATOM      4  C   UNL     1       6.016   4.197  17.956  0.00  0.00    +0.000 A 
ATOM      5  C   UNL     1       6.649   5.451  17.956  0.00  0.00    +0.000 A 
ATOM      6  C   UNL     1       7.612   5.774  18.920  0.00  0.00    +0.000 A 
ATOM      7  C   UNL     1       8.221   7.023  18.898  0.00  0.00    +0.000 A 
ATOM      8  C   UNL     1       7.853   7.921  17.907  0.00  0.00    +0.000 A 
ATOM      9  N   UNL     1       6.928   7.630  16.969  0.00  0.00    +0.000 NA
ATOM     10  C   UNL     1       6.328   6.419  16.981  0.00  0.00    +0.000 A 
ENDROOT
BRANCH   1  11
ATOM     11  O   UNL     1       5.021   6.993  15.062  0.00  0.00    +0.000 OA
ATOM     12  H   UNL     1       5.792   7.178  14.507  0.00  0.00    +0.000 HD
ENDBRANCH   1  11
BRANCH   8  13
ATOM     13  C   UNL     1       8.480   9.247  17.845  0.00  0.00    +0.000 C 
ATOM     14  C   UNL     1       9.055   9.853  18.898  0.00  0.00    +0.000 C 
BRANCH  14  15
ATOM     15  C   UNL     1       9.674  11.182  18.839  0.00  0.00    +0.000 A 
ATOM     16  C   UNL     1      10.904  11.474  19.437  0.00  0.00    +0.000 A 
ATOM     17  C   UNL     1      11.446  12.752  19.332  0.00  0.00    +0.000 A 
ATOM     18  C   UNL     1      10.747  13.705  18.611  0.00  0.00    +0.000 A 
ATOM     19  N   UNL     1       9.571  13.464  17.996  0.00  0.00    +0.000 NA
ATOM     20  C   UNL     1       9.066  12.211  18.119  0.00  0.00    +0.000 A 
ENDBRANCH  14  15
ENDBRANCH   8  13
TORSDOF 3
ENDMDL
MODEL 5
REMARK VINA RESULT:      -7.5      6.079      7.523
REMARK  Name = 
REMARK  3 active torsions:
REMARK  status: ('A' for Active; 'I' for Inactive)
REMARK    1  A    between atoms: O_1  and  C_2
REMARK    2  A    between atoms: C_9  and  C_10
REMARK    3  A    between atoms: C_11  and  C_12
REMARK                            x       y       z     vdW  Elec       q    Type
REMARK                         _______ _______ _______ _____ _____    ______ ____
ROOT
ATOM      1  C   UNL     1       5.348   6.065  16.157  0.00  0.00    +0.000 A 
ATOM      2  C   UNL     1       4.692   4.831  16.216  0.00  0.00    +0.000 A 
ATOM      3  C   UNL     1       5.023   3.926  17.219  0.00  0.00    +0.000 A 
ATOM      4  C   UNL     1       6.002   4.258  18.151  0.00  0.00    +0.000 A 
ATOM      5  C   UNL     1       6.657   5.500  18.088  0.00  0.00    +0.000 A 
ATOM      6  C   UNL     1       7.641   5.845  19.023  0.00  0.00    +0.000 A 
ATOM      7  C   UNL     1       8.272   7.080  18.938  0.00  0.00    +0.000 A 
ATOM      8  C   UNL     1       7.903   7.943  17.917  0.00  0.00    +0.000 A 
ATOM      9  N   UNL     1       6.957   7.630  17.006  0.00  0.00    +0.000 NA
ATOM     10  C   UNL     1       6.336   6.432  17.079  0.00  0.00    +0.000 A 
ENDROOT
BRANCH   1  11
ATOM     11  O   UNL     1       5.009   6.949  15.158  0.00  0.00    +0.000 OA
ATOM     12  H   UNL     1       5.446   7.797  15.315  0.00  0.00    +0.000 HD
ENDBRANCH   1  11
BRANCH   8  13
ATOM     13  C   UNL     1       8.551   9.254  17.789  0.00  0.00    +0.000 C 
ATOM     14  C   UNL     1       9.013   9.965  18.832  0.00  0.00    +0.000 C 
BRANCH  14  15
ATOM     15  C   UNL     1       9.654  11.279  18.706  0.00  0.00    +0.000 A 
ATOM     16  C   UNL     1       9.144  12.299  17.897  0.00  0.00    +0.000 A 
ATOM     17  C   UNL     1       9.790  13.529  17.832  0.00  0.00    +0.000 A 
ATOM     18  C   UNL     1      10.929  13.714  18.597  0.00  0.00    +0.000 A 
ATOM     19  N   UNL     1      11.445  12.770  19.411  0.00  0.00    +0.000 NA
ATOM     20  C   UNL     1      10.795  11.581  19.451  0.00  0.00    +0.000 A 
ENDBRANCH  14  15
ENDBRANCH   8  13
TORSDOF 3
ENDMDL
MODEL 6
REMARK VINA RESULT:      -7.5      5.424      7.328
REMARK  Name = 
REMARK  3 active torsions:
REMARK  status: ('A' for Active; 'I' for Inactive)
REMARK    1  A    between atoms: O_1  and  C_2
REMARK    2  A    between atoms: C_9  and  C_10
REMARK    3  A    between atoms: C_11  and  C_12
REMARK                            x       y       z     vdW  Elec       q    Type
REMARK                         _______ _______ _______ _____ _____    ______ ____
ROOT
ATOM      1  C   UNL     1       7.062   5.139  14.599  0.00  0.00    +0.000 A 
ATOM      2  C   UNL     1       6.240   4.176  14.005  0.00  0.00    +0.000 A 
ATOM      3  C   UNL     1       5.193   3.623  14.735  0.00  0.00    +0.000 A 
ATOM      4  C   UNL     1       4.975   4.035  16.047  0.00  0.00    +0.000 A 
ATOM      5  C   UNL     1       5.802   5.005  16.638  0.00  0.00    +0.000 A 
ATOM      6  C   UNL     1       5.590   5.429  17.956  0.00  0.00    +0.000 A 
ATOM      7  C   UNL     1       6.423   6.390  18.516  0.00  0.00    +0.000 A 
ATOM      8  C   UNL     1       7.453   6.904  17.742  0.00  0.00    +0.000 A 
ATOM      9  N   UNL     1       7.675   6.510  16.471  0.00  0.00    +0.000 NA
ATOM     10  C   UNL     1       6.871   5.577  15.916  0.00  0.00    +0.000 A 
ENDROOT
BRANCH   1  11
ATOM     11  O   UNL     1       8.094   5.674  13.863  0.00  0.00    +0.000 OA
ATOM     12  H   UNL     1       8.083   5.300  12.971  0.00  0.00    +0.000 HD
ENDBRANCH   1  11
BRANCH   8  13
ATOM     13  C   UNL     1       8.359   7.916  18.300  0.00  0.00    +0.000 C 
ATOM     14  C   UNL     1       8.223   9.237  18.094  0.00  0.00    +0.000 C 
BRANCH  14  15
ATOM     15  C   UNL     1       9.133  10.249  18.645  0.00  0.00    +0.000 A 
ATOM     16  C   UNL     1       9.945  11.057  17.843  0.00  0.00    +0.000 A 
ATOM     17  C   UNL     1      10.775  12.009  18.426  0.00  0.00    +0.000 A 
ATOM     18  C   UNL     1      10.760  12.140  19.804  0.00  0.00    +0.000 A 
ATOM     19  N   UNL     1       9.977  11.401  20.617  0.00  0.00    +0.000 NA
ATOM     20  C   UNL     1       9.180  10.479  20.020  0.00  0.00    +0.000 A 
ENDBRANCH  14  15
ENDBRANCH   8  13
TORSDOF 3
ENDMDL
MODEL 7
REMARK VINA RESULT:      -7.4      8.085     10.290
REMARK  Name = 
REMARK  3 active torsions:
REMARK  status: ('A' for Active; 'I' for Inactive)
REMARK    1  A    between atoms: O_1  and  C_2
REMARK    2  A    between atoms: C_9  and  C_10
REMARK    3  A    between atoms: C_11  and  C_12
REMARK                            x       y       z     vdW  Elec       q    Type
REMARK                         _______ _______ _______ _____ _____    ______ ____
ROOT
ATOM      1  C   UNL     1      11.111  13.625  17.365  0.00  0.00    +0.000 A 
ATOM      2  C   UNL     1      11.782  14.770  17.807  0.00  0.00    +0.000 A 
ATOM      3  C   UNL     1      11.900  15.013  19.172  0.00  0.00    +0.000 A 
ATOM      4  C   UNL     1      11.349  14.115  20.081  0.00  0.00    +0.000 A 
ATOM      5  C   UNL     1      10.676  12.966  19.633  0.00  0.00    +0.000 A 
ATOM      6  C   UNL     1      10.121  12.054  20.539  0.00  0.00    +0.000 A 
ATOM      7  C   UNL     1       9.462  10.925  20.068  0.00  0.00    +0.000 A 
ATOM      8  C   UNL     1       9.374  10.734  18.697  0.00  0.00    +0.000 A 
ATOM      9  N   UNL     1       9.902  11.600  17.807  0.00  0.00    +0.000 NA
ATOM     10  C   UNL     1      10.545  12.701  18.253  0.00  0.00    +0.000 A 
ENDROOT
BRANCH   1  11
ATOM     11  O   UNL     1      11.003  13.400  16.012  0.00  0.00    +0.000 OA
ATOM     12  H   UNL     1      10.071  13.427  15.753  0.00  0.00    +0.000 HD
ENDBRANCH   1  11
BRANCH   8  13
ATOM     13  C   UNL     1       8.679   9.557  18.160  0.00  0.00    +0.000 C 
ATOM     14  C   UNL     1       8.575   8.387  18.814  0.00  0.00    +0.000 C 
BRANCH  14  15
ATOM     15  C   UNL     1       7.888   7.207  18.274  0.00  0.00    +0.000 A 
ATOM     16  C   UNL     1       7.159   7.233  17.081  0.00  0.00    +0.000 A 
ATOM     17  C   UNL     1       6.543   6.076  16.615  0.00  0.00    +0.000 A 
ATOM     18  C   UNL     1       6.688   4.912  17.349  0.00  0.00    +0.000 A 
ATOM     19  N   UNL     1       7.401   4.832  18.492  0.00  0.00    +0.000 NA
ATOM     20  C   UNL     1       7.987   5.977  18.923  0.00  0.00    +0.000 A 
ENDBRANCH  14  15
ENDBRANCH   8  13
TORSDOF 3
ENDMDL
MODEL 8
REMARK VINA RESULT:      -7.3      1.492      1.838
REMARK  Name = 
REMARK  3 active torsions:
REMARK  status: ('A' for Active; 'I' for Inactive)
REMARK    1  A    between atoms: O_1  and  C_2
REMARK    2  A    between atoms: C_9  and  C_10
REMARK    3  A    between atoms: C_11  and  C_12
REMARK                            x       y       z     vdW  Elec       q    Type
REMARK                         _______ _______ _______ _____ _____    ______ ____
ROOT
ATOM      1  C   UNL     1       2.665   4.785  20.414  0.00  0.00    +0.000 A 
ATOM      2  C   UNL     1       1.988   4.342  21.555  0.00  0.00    +0.000 A 
ATOM      3  C   UNL     1       1.596   3.010  21.646  0.00  0.00    +0.000 A 
ATOM      4  C   UNL     1       1.882   2.135  20.603  0.00  0.00    +0.000 A 
ATOM      5  C   UNL     1       2.563   2.584  19.459  0.00  0.00    +0.000 A 
ATOM      6  C   UNL     1       2.858   1.711  18.404  0.00  0.00    +0.000 A 
ATOM      7  C   UNL     1       3.534   2.182  17.285  0.00  0.00    +0.000 A 
ATOM      8  C   UNL     1       3.899   3.520  17.247  0.00  0.00    +0.000 A 
ATOM      9  N   UNL     1       3.625   4.377  18.252  0.00  0.00    +0.000 NA
ATOM     10  C   UNL     1       2.969   3.931  19.345  0.00  0.00    +0.000 A 
ENDROOT
BRANCH   1  11
ATOM     11  O   UNL     1       3.044   6.105  20.339  0.00  0.00    +0.000 OA
ATOM     12  H   UNL     1       3.854   6.239  20.851  0.00  0.00    +0.000 HD
ENDBRANCH   1  11
BRANCH   8  13
ATOM     13  C   UNL     1       4.608   4.057  16.079  0.00  0.00    +0.000 C 
ATOM     14  C   UNL     1       5.693   3.482  15.532  0.00  0.00    +0.000 C 
BRANCH  14  15
ATOM     15  C   UNL     1       6.407   4.023  14.369  0.00  0.00    +0.000 A 
ATOM     16  C   UNL     1       6.212   3.546  13.070  0.00  0.00    +0.000 A 
ATOM     17  C   UNL     1       6.909   4.112  12.006  0.00  0.00    +0.000 A 
ATOM     18  C   UNL     1       7.775   5.159  12.271  0.00  0.00    +0.000 A 
ATOM     19  N   UNL     1       7.977   5.669  13.503  0.00  0.00    +0.000 NA
ATOM     20  C   UNL     1       7.286   5.095  14.519  0.00  0.00    +0.000 A 
ENDBRANCH  14  15
ENDBRANCH   8  13
TORSDOF 3
ENDMDL
MODEL 9
REMARK VINA RESULT:      -7.3      4.510      7.781
REMARK  Name = 
REMARK  3 active torsions:
REMARK  status: ('A' for Active; 'I' for Inactive)
REMARK    1  A    between atoms: O_1  and  C_2
REMARK    2  A    between atoms: C_9  and  C_10
REMARK    3  A    between atoms: C_11  and  C_12
REMARK                            x       y       z     vdW  Elec       q    Type
REMARK                         _______ _______ _______ _____ _____    ______ ____
ROOT
ATOM      1  C   UNL     1       1.679   3.199  19.334  0.00  0.00    +0.000 A 
ATOM      2  C   UNL     1       2.144   2.000  18.784  0.00  0.00    +0.000 A 
ATOM      3  C   UNL     1       3.185   2.025  17.861  0.00  0.00    +0.000 A 
ATOM      4  C   UNL     1       3.752   3.243  17.496  0.00  0.00    +0.000 A 
ATOM      5  C   UNL     1       3.283   4.445  18.053  0.00  0.00    +0.000 A 
ATOM      6  C   UNL     1       3.849   5.675  17.695  0.00  0.00    +0.000 A 
ATOM      7  C   UNL     1       3.366   6.849  18.261  0.00  0.00    +0.000 A 
ATOM      8  C   UNL     1       2.326   6.764  19.174  0.00  0.00    +0.000 A 
ATOM      9  N   UNL     1       1.767   5.590  19.533  0.00  0.00    +0.000 NA
ATOM     10  C   UNL     1       2.228   4.442  18.990  0.00  0.00    +0.000 A 
ENDROOT
BRANCH   1  11
ATOM     11  O   UNL     1       0.649   3.156  20.244  0.00  0.00    +0.000 OA
ATOM     12  H   UNL     1       0.876   2.548  20.961  0.00  0.00    +0.000 HD
ENDBRANCH   1  11
BRANCH   8  13
ATOM     13  C   UNL     1       1.784   7.983  19.789  0.00  0.00    +0.000 C 
ATOM     14  C   UNL     1       0.992   7.983  20.875  0.00  0.00    +0.000 C 
BRANCH  14  15
ATOM     15  C   UNL     1       0.443   9.200  21.486  0.00  0.00    +0.000 A 
ATOM     16  C   UNL     1      -0.445   9.174  22.565  0.00  0.00    +0.000 A 
ATOM     17  C   UNL     1      -0.918  10.364  23.110  0.00  0.00    +0.000 A 
ATOM     18  C   UNL     1      -0.474  11.557  22.567  0.00  0.00    +0.000 A 
ATOM     19  N   UNL     1       0.400  11.633  21.542  0.00  0.00    +0.000 NA
ATOM     20  C   UNL     1       0.841  10.457  21.031  0.00  0.00    +0.000 A 
ENDBRANCH  14  15
ENDBRANCH   8  13
TORSDOF 3
ENDMDL
