MODEL 1
REMARK VINA RESULT:      -8.2      0.000      0.000
REMARK  Name = 
REMARK  9 active torsions:
REMARK  status: ('A' for Active; 'I' for Inactive)
REMARK    1  A    between atoms: C_1  and  C_2
REMARK    2  A    between atoms: C_2  and  C_3
REMARK    3  A    between atoms: C_3  and  O_5
REMARK    4  A    between atoms: O_5  and  C_6
REMARK    5  A    between atoms: C_6  and  C_7
REMARK    6  A    between atoms: C_6  and  C_14
REMARK    7  A    between atoms: C_11  and  O_12
REMARK    8  A    between atoms: N_17  and  C_18
REMARK    9  A    between atoms: N_22  and  C_23
REMARK                            x       y       z     vdW  Elec       q    Type
REMARK                         _______ _______ _______ _____ _____    ______ ____
ROOT
ATOM      1  C   UNL     1       3.251   5.672  18.452  0.00  0.00    +0.000 C 
ENDROOT
BRANCH   1   2
ATOM      2  C   UNL     1       4.104   5.212  17.250  0.00  0.00    +0.000 C 
ATOM      3  C   UNL     1       5.211   4.197  17.559  0.00  0.00    +0.000 C 
ATOM      4  C   UNL     1       6.338   4.772  18.439  0.00  0.00    +0.000 C 
ATOM      5  N   UNL     1       6.623   6.193  18.353  0.00  0.00    +0.000 NA
ATOM      6  C   UNL     1       8.021   6.553  18.505  0.00  0.00    +0.000 C 
ATOM      7  C   UNL     1       5.877   7.045  17.446  0.00  0.00    +0.000 C 
ATOM      8  C   UNL     1       4.820   6.383  16.548  0.00  0.00    +0.000 C 
ATOM      9  C   UNL     1       5.394   5.895  15.209  0.00  0.00    +0.000 C 
ATOM     10  N   UNL     1       6.168   4.648  15.224  0.00  0.00    +0.000 NA
ATOM     11  C   UNL     1       6.130   4.046  13.882  0.00  0.00    +0.000 C 
ATOM     12  C   UNL     1       5.743   3.653  16.216  0.00  0.00    +0.000 C 
ENDBRANCH   1   2
BRANCH   1  13
ATOM     13  C   UNL     1       2.348   4.610  19.064  0.00  0.00    +0.000 A 
ATOM     14  C   UNL     1       1.553   3.802  18.234  0.00  0.00    +0.000 A 
ATOM     15  C   UNL     1       0.857   2.707  18.754  0.00  0.00    +0.000 A 
ATOM     16  C   UNL     1       0.960   2.391  20.108  0.00  0.00    +0.000 A 
ATOM     17  C   UNL     1       1.735   3.198  20.934  0.00  0.00    +0.000 A 
ATOM     18  C   UNL     1       2.390   4.319  20.436  0.00  0.00    +0.000 A 
BRANCH  17  19
ATOM     19  O   UNL     1       1.926   2.882  22.248  0.00  0.00    +0.000 OA
ATOM     20  H   UNL     1       1.549   3.605  22.778  0.00  0.00    +0.000 HD
ENDBRANCH  17  19
ENDBRANCH   1  13
BRANCH   1  21
ATOM     21  O   UNL     1       2.338   6.677  17.941  0.00  0.00    +0.000 OA
BRANCH  21  22
ATOM     22  C   UNL     1       2.150   7.792  18.689  0.00  0.00    +0.000 C 
ATOM     23  O   UNL     1       2.085   7.828  19.910  0.00  0.00    +0.000 OA
BRANCH  22  25
ATOM     24  C   UNL     1       0.902   9.895  18.174  0.00  0.00    +0.000 C 
ATOM     25  C   UNL     1       2.052   8.987  17.778  0.00  0.00    +0.000 C 
ENDBRANCH  22  25
ENDBRANCH  21  22
ENDBRANCH   1  21
TORSDOF 6
ENDMDL
MODEL 2
REMARK VINA RESULT:      -8.0      0.929      1.347
REMARK  Name = 
REMARK  9 active torsions:
REMARK  status: ('A' for Active; 'I' for Inactive)
REMARK    1  A    between atoms: C_1  and  C_2
REMARK    2  A    between atoms: C_2  and  C_3
REMARK    3  A    between atoms: C_3  and  O_5
REMARK    4  A    between atoms: O_5  and  C_6
REMARK    5  A    between atoms: C_6  and  C_7
REMARK    6  A    between atoms: C_6  and  C_14
REMARK    7  A    between atoms: C_11  and  O_12
REMARK    8  A    between atoms: N_17  and  C_18
REMARK    9  A    between atoms: N_22  and  C_23
REMARK                            x       y       z     vdW  Elec       q    Type
REMARK                         _______ _______ _______ _____ _____    ______ ____
ROOT
ATOM      1  C   UNL     1       3.423   5.609  18.539  0.00  0.00    +0.000 C 
ENDROOT
BRANCH   1   2
ATOM      2  C   UNL     1       4.257   5.192  17.308  0.00  0.00    +0.000 C 
ATOM      3  C   UNL     1       5.460   4.282  17.587  0.00  0.00    +0.000 C 
ATOM      4  C   UNL     1       6.572   4.973  18.399  0.00  0.00    +0.000 C 
ATOM      5  N   UNL     1       6.730   6.410  18.270  0.00  0.00    +0.000 NA
ATOM      6  C   UNL     1       8.098   6.891  18.347  0.00  0.00    +0.000 C 
ATOM      7  C   UNL     1       5.874   7.172  17.381  0.00  0.00    +0.000 C 
ATOM      8  C   UNL     1       4.838   6.401  16.548  0.00  0.00    +0.000 C 
ATOM      9  C   UNL     1       5.391   5.928  15.194  0.00  0.00    +0.000 C 
ATOM     10  N   UNL     1       6.268   4.753  15.200  0.00  0.00    +0.000 NA
ATOM     11  C   UNL     1       6.220   4.115  13.875  0.00  0.00    +0.000 C 
ATOM     12  C   UNL     1       5.975   3.751  16.232  0.00  0.00    +0.000 C 
ENDBRANCH   1   2
BRANCH   1  13
ATOM     13  C   UNL     1       2.663   4.486  19.232  0.00  0.00    +0.000 A 
ATOM     14  C   UNL     1       2.580   4.457  20.634  0.00  0.00    +0.000 A 
ATOM     15  C   UNL     1       1.744   3.544  21.283  0.00  0.00    +0.000 A 
ATOM     16  C   UNL     1       0.962   2.660  20.540  0.00  0.00    +0.000 A 
ATOM     17  C   UNL     1       1.055   2.678  19.153  0.00  0.00    +0.000 A 
ATOM     18  C   UNL     1       1.922   3.547  18.500  0.00  0.00    +0.000 A 
BRANCH  17  19
ATOM     19  O   UNL     1       0.254   1.884  18.384  0.00  0.00    +0.000 OA
ATOM     20  H   UNL     1      -0.166   1.236  18.974  0.00  0.00    +0.000 HD
ENDBRANCH  17  19
ENDBRANCH   1  13
BRANCH   1  21
ATOM     21  O   UNL     1       2.389   6.499  18.046  0.00  0.00    +0.000 OA
BRANCH  21  22
ATOM     22  C   UNL     1       2.197   7.665  18.709  0.00  0.00    +0.000 C 
ATOM     23  O   UNL     1       2.061   7.782  19.920  0.00  0.00    +0.000 OA
BRANCH  22  25
ATOM     24  C   UNL     1       1.240   9.904  18.143  0.00  0.00    +0.000 C 
ATOM     25  C   UNL     1       2.194   8.802  17.721  0.00  0.00    +0.000 C 
ENDBRANCH  22  25
ENDBRANCH  21  22
ENDBRANCH   1  21
TORSDOF 6
ENDMDL
MODEL 3
REMARK VINA RESULT:      -7.5      1.429      4.758
REMARK  Name = 
REMARK  9 active torsions:
REMARK  status: ('A' for Active; 'I' for Inactive)
REMARK    1  A    between atoms: C_1  and  C_2
REMARK    2  A    between atoms: C_2  and  C_3
REMARK    3  A    between atoms: C_3  and  O_5
REMARK    4  A    between atoms: O_5  and  C_6
REMARK    5  A    between atoms: C_6  and  C_7
REMARK    6  A    between atoms: C_6  and  C_14
REMARK    7  A    between atoms: C_11  and  O_12
REMARK    8  A    between atoms: N_17  and  C_18
REMARK    9  A    between atoms: N_22  and  C_23
REMARK                            x       y       z     vdW  Elec       q    Type
REMARK                         _______ _______ _______ _____ _____    ______ ____
ROOT
ATOM      1  C   UNL     1       2.878   5.900  18.134  0.00  0.00    +0.000 C 
ENDROOT
BRANCH   1   2
ATOM      2  C   UNL     1       4.406   5.837  18.348  0.00  0.00    +0.000 C 
ATOM      3  C   UNL     1       5.256   6.682  17.390  0.00  0.00    +0.000 C 
ATOM      4  C   UNL     1       5.204   6.188  15.932  0.00  0.00    +0.000 C 
ATOM      5  N   UNL     1       4.979   4.775  15.690  0.00  0.00    +0.000 NA
ATOM      6  C   UNL     1       5.671   4.228  14.537  0.00  0.00    +0.000 C 
ATOM      7  C   UNL     1       4.827   3.848  16.795  0.00  0.00    +0.000 C 
ATOM      8  C   UNL     1       4.965   4.406  18.221  0.00  0.00    +0.000 C 
ATOM      9  C   UNL     1       6.413   4.381  18.735  0.00  0.00    +0.000 C 
ATOM     10  N   UNL     1       7.322   5.420  18.235  0.00  0.00    +0.000 NA
ATOM     11  C   UNL     1       8.408   5.612  19.209  0.00  0.00    +0.000 C 
ATOM     12  C   UNL     1       6.697   6.716  17.942  0.00  0.00    +0.000 C 
ENDBRANCH   1   2
BRANCH   1  13
ATOM     13  C   UNL     1       2.195   7.167  18.628  0.00  0.00    +0.000 A 
ATOM     14  C   UNL     1       1.793   7.270  19.970  0.00  0.00    +0.000 A 
ATOM     15  C   UNL     1       1.330   8.482  20.488  0.00  0.00    +0.000 A 
ATOM     16  C   UNL     1       1.281   9.616  19.679  0.00  0.00    +0.000 A 
ATOM     17  C   UNL     1       1.664   9.513  18.347  0.00  0.00    +0.000 A 
ATOM     18  C   UNL     1       2.077   8.300  17.808  0.00  0.00    +0.000 A 
BRANCH  17  19
ATOM     19  O   UNL     1       1.704  10.612  17.539  0.00  0.00    +0.000 OA
ATOM     20  H   UNL     1       1.824  11.389  18.110  0.00  0.00    +0.000 HD
ENDBRANCH  17  19
ENDBRANCH   1  13
BRANCH   1  21
ATOM     21  O   UNL     1       2.311   4.839  18.944  0.00  0.00    +0.000 OA
BRANCH  21  22
ATOM     22  C   UNL     1       1.456   3.978  18.341  0.00  0.00    +0.000 C 
ATOM     23  O   UNL     1       1.163   3.979  17.153  0.00  0.00    +0.000 OA
BRANCH  22  25
ATOM     24  C   UNL     1       1.198   3.485  20.778  0.00  0.00    +0.000 C 
ATOM     25  C   UNL     1       0.933   3.003  19.364  0.00  0.00    +0.000 C 
ENDBRANCH  22  25
ENDBRANCH  21  22
ENDBRANCH   1  21
TORSDOF 6
ENDMDL
MODEL 4
REMARK VINA RESULT:      -7.5      1.345      4.478
REMARK  Name = 
REMARK  9 active torsions:
REMARK  status: ('A' for Active; 'I' for Inactive)
REMARK    1  A    between atoms: C_1  and  C_2
REMARK    2  A    between atoms: C_2  and  C_3
REMARK    3  A    between atoms: C_3  and  O_5
REMARK    4  A    between atoms: O_5  and  C_6
REMARK    5  A    between atoms: C_6  and  C_7
REMARK    6  A    between atoms: C_6  and  C_14
REMARK    7  A    between atoms: C_11  and  O_12
REMARK    8  A    between atoms: N_17  and  C_18
REMARK    9  A    between atoms: N_22  and  C_23
REMARK                            x       y       z     vdW  Elec       q    Type
REMARK                         _______ _______ _______ _____ _____    ______ ____
ROOT
ATOM      1  C   UNL     1       2.895   6.104  18.109  0.00  0.00    +0.000 C 
ENDROOT
BRANCH   1   2
ATOM      2  C   UNL     1       4.416   5.943  18.321  0.00  0.00    +0.000 C 
ATOM      3  C   UNL     1       5.316   6.756  17.382  0.00  0.00    +0.000 C 
ATOM      4  C   UNL     1       5.236   6.300  15.913  0.00  0.00    +0.000 C 
ATOM      5  N   UNL     1       4.925   4.908  15.638  0.00  0.00    +0.000 NA
ATOM      6  C   UNL     1       5.583   4.346  14.473  0.00  0.00    +0.000 C 
ATOM      7  C   UNL     1       4.716   3.968  16.723  0.00  0.00    +0.000 C 
ATOM      8  C   UNL     1       4.887   4.483  18.161  0.00  0.00    +0.000 C 
ATOM      9  C   UNL     1       6.331   4.359  18.673  0.00  0.00    +0.000 C 
ATOM     10  N   UNL     1       7.301   5.351  18.196  0.00  0.00    +0.000 NA
ATOM     11  C   UNL     1       8.397   5.455  19.173  0.00  0.00    +0.000 C 
ATOM     12  C   UNL     1       6.757   6.689  17.933  0.00  0.00    +0.000 C 
ENDBRANCH   1   2
BRANCH   1  13
ATOM     13  C   UNL     1       2.296   7.413  18.602  0.00  0.00    +0.000 A 
ATOM     14  C   UNL     1       1.939   8.412  17.681  0.00  0.00    +0.000 A 
ATOM     15  C   UNL     1       1.227   9.542  18.090  0.00  0.00    +0.000 A 
ATOM     16  C   UNL     1       0.841   9.682  19.422  0.00  0.00    +0.000 A 
ATOM     17  C   UNL     1       1.206   8.702  20.338  0.00  0.00    +0.000 A 
ATOM     18  C   UNL     1       1.959   7.599  19.951  0.00  0.00    +0.000 A 
BRANCH  17  19
ATOM     19  O   UNL     1       0.786   8.760  21.635  0.00  0.00    +0.000 OA
ATOM     20  H   UNL     1       1.565   8.941  22.186  0.00  0.00    +0.000 HD
ENDBRANCH  17  19
ENDBRANCH   1  13
BRANCH   1  21
ATOM     21  O   UNL     1       2.263   5.083  18.923  0.00  0.00    +0.000 OA
BRANCH  21  22
ATOM     22  C   UNL     1       1.451   4.196  18.297  0.00  0.00    +0.000 C 
ATOM     23  O   UNL     1       1.082   4.267  17.132  0.00  0.00    +0.000 OA
BRANCH  22  25
ATOM     24  C   UNL     1       1.177   3.564  20.700  0.00  0.00    +0.000 C 
ATOM     25  C   UNL     1       1.085   3.096  19.260  0.00  0.00    +0.000 C 
ENDBRANCH  22  25
ENDBRANCH  21  22
ENDBRANCH   1  21
TORSDOF 6
ENDMDL
MODEL 5
REMARK VINA RESULT:      -7.1      2.973      6.140
REMARK  Name = 
REMARK  9 active torsions:
REMARK  status: ('A' for Active; 'I' for Inactive)
REMARK    1  A    between atoms: C_1  and  C_2
REMARK    2  A    between atoms: C_2  and  C_3
REMARK    3  A    between atoms: C_3  and  O_5
REMARK    4  A    between atoms: O_5  and  C_6
REMARK    5  A    between atoms: C_6  and  C_7
REMARK    6  A    between atoms: C_6  and  C_14
REMARK    7  A    between atoms: C_11  and  O_12
REMARK    8  A    between atoms: N_17  and  C_18
REMARK    9  A    between atoms: N_22  and  C_23
REMARK                            x       y       z     vdW  Elec       q    Type
REMARK                         _______ _______ _______ _____ _____    ______ ____
ROOT
ATOM      1  C   UNL     1       5.903   4.875  16.975  0.00  0.00    +0.000 C 
ENDROOT
BRANCH   1   2
ATOM      2  C   UNL     1       4.764   4.000  17.541  0.00  0.00    +0.000 C 
ATOM      3  C   UNL     1       3.344   4.372  17.094  0.00  0.00    +0.000 C 
ATOM      4  C   UNL     1       2.876   5.739  17.627  0.00  0.00    +0.000 C 
ATOM      5  N   UNL     1       3.413   6.208  18.892  0.00  0.00    +0.000 NA
ATOM      6  C   UNL     1       2.490   6.974  19.710  0.00  0.00    +0.000 C 
ATOM      7  C   UNL     1       4.353   5.398  19.643  0.00  0.00    +0.000 C 
ATOM      8  C   UNL     1       4.714   4.014  19.082  0.00  0.00    +0.000 C 
ATOM      9  C   UNL     1       3.765   2.906  19.567  0.00  0.00    +0.000 C 
ATOM     10  N   UNL     1       2.446   2.825  18.931  0.00  0.00    +0.000 NA
ATOM     11  C   UNL     1       1.936   1.451  19.062  0.00  0.00    +0.000 C 
ATOM     12  C   UNL     1       2.399   3.228  17.519  0.00  0.00    +0.000 C 
ENDBRANCH   1   2
BRANCH   1  13
ATOM     13  C   UNL     1       6.312   4.577  15.539  0.00  0.00    +0.000 A 
ATOM     14  C   UNL     1       5.494   3.772  14.730  0.00  0.00    +0.000 A 
ATOM     15  C   UNL     1       5.753   3.632  13.364  0.00  0.00    +0.000 A 
ATOM     16  C   UNL     1       6.823   4.311  12.781  0.00  0.00    +0.000 A 
ATOM     17  C   UNL     1       7.643   5.097  13.583  0.00  0.00    +0.000 A 
ATOM     18  C   UNL     1       7.423   5.201  14.953  0.00  0.00    +0.000 A 
BRANCH  17  19
ATOM     19  O   UNL     1       8.653   5.838  13.044  0.00  0.00    +0.000 OA
ATOM     20  H   UNL     1       9.212   6.145  13.777  0.00  0.00    +0.000 HD
ENDBRANCH  17  19
ENDBRANCH   1  13
BRANCH   1  21
ATOM     21  O   UNL     1       7.081   4.565  17.763  0.00  0.00    +0.000 OA
BRANCH  21  22
ATOM     22  C   UNL     1       7.599   5.552  18.533  0.00  0.00    +0.000 C 
ATOM     23  O   UNL     1       8.187   5.394  19.594  0.00  0.00    +0.000 OA
BRANCH  22  25
ATOM     24  C   UNL     1       8.301   7.946  18.381  0.00  0.00    +0.000 C 
ATOM     25  C   UNL     1       7.350   6.881  17.867  0.00  0.00    +0.000 C 
ENDBRANCH  22  25
ENDBRANCH  21  22
ENDBRANCH   1  21
TORSDOF 6
ENDMDL
MODEL 6
REMARK VINA RESULT:      -6.9      1.901      4.518
REMARK  Name = 
REMARK  9 active torsions:
REMARK  status: ('A' for Active; 'I' for Inactive)
REMARK    1  A    between atoms: C_1  and  C_2
REMARK    2  A    between atoms: C_2  and  C_3
REMARK    3  A    between atoms: C_3  and  O_5
REMARK    4  A    between atoms: O_5  and  C_6
REMARK    5  A    between atoms: C_6  and  C_7
REMARK    6  A    between atoms: C_6  and  C_14
REMARK    7  A    between atoms: C_11  and  O_12
REMARK    8  A    between atoms: N_17  and  C_18
REMARK    9  A    between atoms: N_22  and  C_23
REMARK                            x       y       z     vdW  Elec       q    Type
REMARK                         _______ _______ _______ _____ _____    ______ ____
ROOT
ATOM      1  C   UNL     1       2.628   5.723  19.150  0.00  0.00    +0.000 C 
ENDROOT
BRANCH   1   2
ATOM      2  C   UNL     1       3.910   5.442  18.337  0.00  0.00    +0.000 C 
ATOM      3  C   UNL     1       3.720   4.669  17.026  0.00  0.00    +0.000 C 
ATOM      4  C   UNL     1       3.255   3.216  17.237  0.00  0.00    +0.000 C 
ATOM      5  N   UNL     1       3.643   2.538  18.461  0.00  0.00    +0.000 NA
ATOM      6  C   UNL     1       3.904   1.116  18.324  0.00  0.00    +0.000 C 
ATOM      7  C   UNL     1       4.466   3.208  19.450  0.00  0.00    +0.000 C 
ATOM      8  C   UNL     1       4.952   4.631  19.132  0.00  0.00    +0.000 C 
ATOM      9  C   UNL     1       6.292   4.651  18.378  0.00  0.00    +0.000 C 
ATOM     10  N   UNL     1       6.261   4.336  16.946  0.00  0.00    +0.000 NA
ATOM     11  C   UNL     1       7.433   4.948  16.298  0.00  0.00    +0.000 C 
ATOM     12  C   UNL     1       5.044   4.746  16.235  0.00  0.00    +0.000 C 
ENDBRANCH   1   2
BRANCH   1  13
ATOM     13  C   UNL     1       2.218   7.186  19.251  0.00  0.00    +0.000 A 
ATOM     14  C   UNL     1       2.218   7.995  18.103  0.00  0.00    +0.000 A 
ATOM     15  C   UNL     1       1.678   9.283  18.135  0.00  0.00    +0.000 A 
ATOM     16  C   UNL     1       1.111   9.776  19.309  0.00  0.00    +0.000 A 
ATOM     17  C   UNL     1       1.124   8.982  20.451  0.00  0.00    +0.000 A 
ATOM     18  C   UNL     1       1.705   7.719  20.443  0.00  0.00    +0.000 A 
BRANCH  17  19
ATOM     19  O   UNL     1       0.514   9.393  21.600  0.00  0.00    +0.000 OA
ATOM     20  H   UNL     1       0.662  10.350  21.682  0.00  0.00    +0.000 HD
ENDBRANCH  17  19
ENDBRANCH   1  13
BRANCH   1  21
ATOM     21  O   UNL     1       2.920   5.330  20.516  0.00  0.00    +0.000 OA
BRANCH  21  22
ATOM     22  C   UNL     1       2.123   4.392  21.083  0.00  0.00    +0.000 C 
ATOM     23  O   UNL     1       2.353   3.799  22.129  0.00  0.00    +0.000 OA
BRANCH  22  25
ATOM     24  C   UNL     1       0.670   2.742  19.894  0.00  0.00    +0.000 C 
ATOM     25  C   UNL     1       0.895   4.205  20.230  0.00  0.00    +0.000 C 
ENDBRANCH  22  25
ENDBRANCH  21  22
ENDBRANCH   1  21
TORSDOF 6
ENDMDL
MODEL 7
REMARK VINA RESULT:      -6.8      1.493      4.722
REMARK  Name = 
REMARK  9 active torsions:
REMARK  status: ('A' for Active; 'I' for Inactive)
REMARK    1  A    between atoms: C_1  and  C_2
REMARK    2  A    between atoms: C_2  and  C_3
REMARK    3  A    between atoms: C_3  and  O_5
REMARK    4  A    between atoms: O_5  and  C_6
REMARK    5  A    between atoms: C_6  and  C_7
REMARK    6  A    between atoms: C_6  and  C_14
REMARK    7  A    between atoms: C_11  and  O_12
REMARK    8  A    between atoms: N_17  and  C_18
REMARK    9  A    between atoms: N_22  and  C_23
REMARK                            x       y       z     vdW  Elec       q    Type
REMARK                         _______ _______ _______ _____ _____    ______ ____
ROOT
ATOM      1  C   UNL     1       3.018   6.126  18.533  0.00  0.00    +0.000 C 
ENDROOT
BRANCH   1   2
ATOM      2  C   UNL     1       4.536   6.410  18.521  0.00  0.00    +0.000 C 
ATOM      3  C   UNL     1       5.115   6.919  17.194  0.00  0.00    +0.000 C 
ATOM      4  C   UNL     1       5.064   5.873  16.065  0.00  0.00    +0.000 C 
ATOM      5  N   UNL     1       5.127   4.467  16.423  0.00  0.00    +0.000 NA
ATOM      6  C   UNL     1       5.835   3.621  15.479  0.00  0.00    +0.000 C 
ATOM      7  C   UNL     1       5.256   4.061  17.810  0.00  0.00    +0.000 C 
ATOM      8  C   UNL     1       5.376   5.166  18.871  0.00  0.00    +0.000 C 
ATOM      9  C   UNL     1       6.830   5.593  19.129  0.00  0.00    +0.000 C 
ATOM     10  N   UNL     1       7.457   6.473  18.136  0.00  0.00    +0.000 NA
ATOM     11  C   UNL     1       8.546   7.223  18.783  0.00  0.00    +0.000 C 
ATOM     12  C   UNL     1       6.552   7.414  17.464  0.00  0.00    +0.000 C 
ENDBRANCH   1   2
BRANCH   1  13
ATOM     13  C   UNL     1       2.135   7.278  18.993  0.00  0.00    +0.000 A 
ATOM     14  C   UNL     1       1.815   7.416  20.354  0.00  0.00    +0.000 A 
ATOM     15  C   UNL     1       1.161   8.558  20.823  0.00  0.00    +0.000 A 
ATOM     16  C   UNL     1       0.834   9.588  19.943  0.00  0.00    +0.000 A 
ATOM     17  C   UNL     1       1.137   9.447  18.594  0.00  0.00    +0.000 A 
ATOM     18  C   UNL     1       1.742   8.293  18.108  0.00  0.00    +0.000 A 
BRANCH  17  19
ATOM     19  O   UNL     1       0.905  10.461  17.710  0.00  0.00    +0.000 OA
ATOM     20  H   UNL     1       0.678  10.057  16.856  0.00  0.00    +0.000 HD
ENDBRANCH  17  19
ENDBRANCH   1  13
BRANCH   1  21
ATOM     21  O   UNL     1       2.809   5.086  19.523  0.00  0.00    +0.000 OA
BRANCH  21  22
ATOM     22  C   UNL     1       1.732   4.279  19.367  0.00  0.00    +0.000 C 
ATOM     23  O   UNL     1       0.928   3.987  20.243  0.00  0.00    +0.000 OA
BRANCH  22  25
ATOM     24  C   UNL     1       2.203   2.398  17.791  0.00  0.00    +0.000 C 
ATOM     25  C   UNL     1       1.667   3.810  17.937  0.00  0.00    +0.000 C 
ENDBRANCH  22  25
ENDBRANCH  21  22
ENDBRANCH   1  21
TORSDOF 6
ENDMDL
MODEL 8
REMARK VINA RESULT:      -6.7      1.971      4.778
REMARK  Name = 
REMARK  9 active torsions:
REMARK  status: ('A' for Active; 'I' for Inactive)
REMARK    1  A    between atoms: C_1  and  C_2
REMARK    2  A    between atoms: C_2  and  C_3
REMARK    3  A    between atoms: C_3  and  O_5
REMARK    4  A    between atoms: O_5  and  C_6
REMARK    5  A    between atoms: C_6  and  C_7
REMARK    6  A    between atoms: C_6  and  C_14
REMARK    7  A    between atoms: C_11  and  O_12
REMARK    8  A    between atoms: N_17  and  C_18
REMARK    9  A    between atoms: N_22  and  C_23
REMARK                            x       y       z     vdW  Elec       q    Type
REMARK                         _______ _______ _______ _____ _____    ______ ____
ROOT
ATOM      1  C   UNL     1       2.473   5.647  19.254  0.00  0.00    +0.000 C 
ENDROOT
BRANCH   1   2
ATOM      2  C   UNL     1       3.800   5.490  18.481  0.00  0.00    +0.000 C 
ATOM      3  C   UNL     1       3.703   4.814  17.107  0.00  0.00    +0.000 C 
ATOM      4  C   UNL     1       3.301   3.330  17.184  0.00  0.00    +0.000 C 
ATOM      5  N   UNL     1       3.670   2.575  18.369  0.00  0.00    +0.000 NA
ATOM      6  C   UNL     1       4.005   1.182  18.134  0.00  0.00    +0.000 C 
ATOM      7  C   UNL     1       4.417   3.201  19.443  0.00  0.00    +0.000 C 
ATOM      8  C   UNL     1       4.845   4.665  19.259  0.00  0.00    +0.000 C 
ATOM      9  C   UNL     1       6.213   4.806  18.571  0.00  0.00    +0.000 C 
ATOM     10  N   UNL     1       6.259   4.605  17.118  0.00  0.00    +0.000 NA
ATOM     11  C   UNL     1       7.425   5.318  16.573  0.00  0.00    +0.000 C 
ATOM     12  C   UNL     1       5.053   5.014  16.386  0.00  0.00    +0.000 C 
ENDBRANCH   1   2
BRANCH   1  13
ATOM     13  C   UNL     1       1.933   7.067  19.357  0.00  0.00    +0.000 A 
ATOM     14  C   UNL     1       1.503   7.566  20.597  0.00  0.00    +0.000 A 
ATOM     15  C   UNL     1       1.174   8.915  20.751  0.00  0.00    +0.000 A 
ATOM     16  C   UNL     1       1.291   9.791  19.673  0.00  0.00    +0.000 A 
ATOM     17  C   UNL     1       1.703   9.297  18.441  0.00  0.00    +0.000 A 
ATOM     18  C   UNL     1       1.982   7.946  18.264  0.00  0.00    +0.000 A 
BRANCH  17  19
ATOM     19  O   UNL     1       1.904  10.130  17.380  0.00  0.00    +0.000 OA
ATOM     20  H   UNL     1       1.260   9.888  16.694  0.00  0.00    +0.000 HD
ENDBRANCH  17  19
ENDBRANCH   1  13
BRANCH   1  21
ATOM     21  O   UNL     1       2.754   5.263  20.625  0.00  0.00    +0.000 OA
BRANCH  21  22
ATOM     22  C   UNL     1       2.026   4.249  21.154  0.00  0.00    +0.000 C 
ATOM     23  O   UNL     1       2.297   3.638  22.180  0.00  0.00    +0.000 OA
BRANCH  22  25
ATOM     24  C   UNL     1       0.746   2.557  19.833  0.00  0.00    +0.000 C 
ATOM     25  C   UNL     1       0.818   4.003  20.289  0.00  0.00    +0.000 C 
ENDBRANCH  22  25
ENDBRANCH  21  22
ENDBRANCH   1  21
TORSDOF 6
ENDMDL
MODEL 9
REMARK VINA RESULT:      -6.7      1.459      1.542
REMARK  Name = 
REMARK  9 active torsions:
REMARK  status: ('A' for Active; 'I' for Inactive)
REMARK    1  A    between atoms: C_1  and  C_2
REMARK    2  A    between atoms: C_2  and  C_3
REMARK    3  A    between atoms: C_3  and  O_5
REMARK    4  A    between atoms: O_5  and  C_6
REMARK    5  A    between atoms: C_6  and  C_7
REMARK    6  A    between atoms: C_6  and  C_14
REMARK    7  A    between atoms: C_11  and  O_12
REMARK    8  A    between atoms: N_17  and  C_18
REMARK    9  A    between atoms: N_22  and  C_23
REMARK                            x       y       z     vdW  Elec       q    Type
REMARK                         _______ _______ _______ _____ _____    ______ ____
ROOT
ATOM      1  C   UNL     1       3.928   5.331  18.154  0.00  0.00    +0.000 C 
ENDROOT
BRANCH   1   2
ATOM      2  C   UNL     1       4.887   5.194  16.951  0.00  0.00    +0.000 C 
ATOM      3  C   UNL     1       6.226   4.501  17.233  0.00  0.00    +0.000 C 
ATOM      4  C   UNL     1       7.144   5.306  18.172  0.00  0.00    +0.000 C 
ATOM      5  N   UNL     1       7.031   6.754  18.174  0.00  0.00    +0.000 NA
ATOM      6  C   UNL     1       8.277   7.470  18.382  0.00  0.00    +0.000 C 
ATOM      7  C   UNL     1       6.091   7.424  17.296  0.00  0.00    +0.000 C 
ATOM      8  C   UNL     1       5.264   6.556  16.335  0.00  0.00    +0.000 C 
ATOM      9  C   UNL     1       5.963   6.324  14.986  0.00  0.00    +0.000 C 
ATOM     10  N   UNL     1       7.048   5.337  14.952  0.00  0.00    +0.000 NA
ATOM     11  C   UNL     1       7.189   4.829  13.578  0.00  0.00    +0.000 C 
ATOM     12  C   UNL     1       6.900   4.205  15.876  0.00  0.00    +0.000 C 
ENDBRANCH   1   2
BRANCH   1  13
ATOM     13  C   UNL     1       3.222   4.053  18.583  0.00  0.00    +0.000 A 
ATOM     14  C   UNL     1       1.835   4.058  18.806  0.00  0.00    +0.000 A 
ATOM     15  C   UNL     1       1.140   2.866  19.023  0.00  0.00    +0.000 A 
ATOM     16  C   UNL     1       1.817   1.647  19.002  0.00  0.00    +0.000 A 
ATOM     17  C   UNL     1       3.192   1.640  18.796  0.00  0.00    +0.000 A 
ATOM     18  C   UNL     1       3.901   2.825  18.630  0.00  0.00    +0.000 A 
BRANCH  17  19
ATOM     19  O   UNL     1       3.882   0.468  18.691  0.00  0.00    +0.000 OA
ATOM     20  H   UNL     1       3.713  -0.043  19.500  0.00  0.00    +0.000 HD
ENDBRANCH  17  19
ENDBRANCH   1  13
BRANCH   1  21
ATOM     21  O   UNL     1       2.860   6.212  17.723  0.00  0.00    +0.000 OA
BRANCH  21  22
ATOM     22  C   UNL     1       2.580   7.287  18.499  0.00  0.00    +0.000 C 
ATOM     23  O   UNL     1       2.482   7.278  19.720  0.00  0.00    +0.000 OA
BRANCH  22  25
ATOM     24  C   UNL     1       1.487   9.520  18.246  0.00  0.00    +0.000 C 
ATOM     25  C   UNL     1       2.426   8.503  17.624  0.00  0.00    +0.000 C 
ENDBRANCH  22  25
ENDBRANCH  21  22
ENDBRANCH   1  21
TORSDOF 6
ENDMDL
