MODEL 1
REMARK VINA RESULT:      -9.4      0.000      0.000
REMARK  Name = 
REMARK  6 active torsions:
REMARK  status: ('A' for Active; 'I' for Inactive)
REMARK    1  A    between atoms: C_2  and  C_4
REMARK    2  A    between atoms: N_7  and  C_8
REMARK    3  A    between atoms: C_19  and  N_20
REMARK    4  A    between atoms: C_21  and  C_23
REMARK    5  A    between atoms: C_26  and  C_27
REMARK    6  A    between atoms: C_27  and  C_28
REMARK                            x       y       z     vdW  Elec       q    Type
REMARK                         _______ _______ _______ _____ _____    ______ ____
ROOT
ATOM      1  C   UNL     1      -0.328  10.429  21.219  0.00  0.00    +0.000 A 
ATOM      2  N   UNL     1      -1.198  11.516  21.269  0.00  0.00    +0.000 NA
ATOM      3  C   UNL     1      -1.553  11.891  20.065  0.00  0.00    +0.000 A 
ATOM      4  N   UNL     1      -2.378  12.925  19.796  0.00  0.00    +0.000 N 
ATOM      5  S   UNL     1      -0.879  10.955  18.805  0.00  0.00    +0.000 S 
ATOM      6  C   UNL     1      -0.048   9.981  19.938  0.00  0.00    +0.000 A 
ATOM      7  H   UNL     1      -2.441  13.273  18.847  0.00  0.00    +0.000 HD
ENDROOT
BRANCH   4   8
ATOM      8  C   UNL     1      -3.393  13.368  20.664  0.00  0.00    +0.000 A 
ATOM      9  C   UNL     1      -3.163  14.466  21.494  0.00  0.00    +0.000 A 
ATOM     10  C   UNL     1      -4.119  14.855  22.438  0.00  0.00    +0.000 A 
ATOM     11  C   UNL     1      -5.330  14.152  22.567  0.00  0.00    +0.000 A 
ATOM     12  C   UNL     1      -6.297  14.508  23.517  0.00  0.00    +0.000 A 
ATOM     13  C   UNL     1      -7.488  13.786  23.628  0.00  0.00    +0.000 A 
ATOM     14  C   UNL     1      -7.729  12.703  22.787  0.00  0.00    +0.000 A 
ATOM     15  C   UNL     1      -6.781  12.337  21.838  0.00  0.00    +0.000 A 
ATOM     16  C   UNL     1      -5.578  13.051  21.725  0.00  0.00    +0.000 A 
ATOM     17  C   UNL     1      -4.608  12.677  20.792  0.00  0.00    +0.000 A 
ENDBRANCH   4   8
BRANCH   1  19
ATOM     18  N   UNL     1      -0.740   9.725  23.432  0.00  0.00    +0.000 N 
ATOM     19  C   UNL     1       0.216   9.907  22.467  0.00  0.00    +0.000 C 
ATOM     20  O   UNL     1       1.403   9.664  22.653  0.00  0.00    +0.000 OA
ATOM     21  H   UNL     1      -0.489   9.445  24.367  0.00  0.00    +0.000 HD
ATOM     22  H   UNL     1      -1.699   9.997  23.223  0.00  0.00    +0.000 HD
ENDBRANCH   1  19
BRANCH   6  23
ATOM     23  N   UNL     1       0.742   8.910  19.533  0.00  0.00    +0.000 N 
ATOM     24  C   UNL     1       1.758   8.997  18.592  0.00  0.00    +0.000 C 
ATOM     25  O   UNL     1       2.169  10.019  18.051  0.00  0.00    +0.000 OA
ATOM     26  H   UNL     1       0.643   8.056  20.077  0.00  0.00    +0.000 HD
BRANCH  24  27
ATOM     27  C   UNL     1       2.456   7.730  18.247  0.00  0.00    +0.000 A 
ATOM     28  C   UNL     1       1.984   6.479  18.651  0.00  0.00    +0.000 A 
ATOM     29  C   UNL     1       2.653   5.321  18.238  0.00  0.00    +0.000 A 
ATOM     30  C   UNL     1       3.794   5.396  17.420  0.00  0.00    +0.000 A 
ATOM     31  C   UNL     1       4.250   6.656  17.010  0.00  0.00    +0.000 A 
ATOM     32  C   UNL     1       3.583   7.812  17.418  0.00  0.00    +0.000 A 
BRANCH  30  33
ATOM     33  C   UNL     1       4.515   4.139  16.994  0.00  0.00    +0.000 C 
BRANCH  33  34
ATOM     34  C   UNL     1       5.957   4.352  17.264  0.00  0.00    +0.000 A 
ATOM     35  N   UNL     1       6.466   4.450  18.534  0.00  0.00    +0.000 NA
ATOM     36  N   UNL     1       7.781   4.558  18.403  0.00  0.00    +0.000 NA
ATOM     37  N   UNL     1       7.997   4.515  17.083  0.00  0.00    +0.000 N 
ATOM     38  N   UNL     1       6.908   4.362  16.312  0.00  0.00    +0.000 NA
ATOM     39  H   UNL     1       8.933   4.583  16.693  0.00  0.00    +0.000 HD
ENDBRANCH  33  34
ENDBRANCH  30  33
ENDBRANCH  24  27
ENDBRANCH   6  23
TORSDOF 6
ENDMDL
MODEL 2
REMARK VINA RESULT:      -9.0      0.601      1.213
REMARK  Name = 
REMARK  6 active torsions:
REMARK  status: ('A' for Active; 'I' for Inactive)
REMARK    1  A    between atoms: C_2  and  C_4
REMARK    2  A    between atoms: N_7  and  C_8
REMARK    3  A    between atoms: C_19  and  N_20
REMARK    4  A    between atoms: C_21  and  C_23
REMARK    5  A    between atoms: C_26  and  C_27
REMARK    6  A    between atoms: C_27  and  C_28
REMARK                            x       y       z     vdW  Elec       q    Type
REMARK                         _______ _______ _______ _____ _____    ______ ____
ROOT
ATOM      1  C   UNL     1      -0.155  10.303  21.115  0.00  0.00    +0.000 A 
ATOM      2  N   UNL     1      -1.048  11.369  21.198  0.00  0.00    +0.000 NA
ATOM      3  C   UNL     1      -1.438  11.750  20.007  0.00  0.00    +0.000 A 
ATOM      4  N   UNL     1      -2.291  12.768  19.769  0.00  0.00    +0.000 N 
ATOM      5  S   UNL     1      -0.771  10.845  18.721  0.00  0.00    +0.000 S 
ATOM      6  C   UNL     1       0.107   9.876  19.824  0.00  0.00    +0.000 A 
ATOM      7  H   UNL     1      -2.383  13.126  18.826  0.00  0.00    +0.000 HD
ENDROOT
BRANCH   4   8
ATOM      8  C   UNL     1      -3.296  13.178  20.665  0.00  0.00    +0.000 A 
ATOM      9  C   UNL     1      -3.009  14.141  21.633  0.00  0.00    +0.000 A 
ATOM     10  C   UNL     1      -3.962  14.483  22.598  0.00  0.00    +0.000 A 
ATOM     11  C   UNL     1      -5.226  13.869  22.611  0.00  0.00    +0.000 A 
ATOM     12  C   UNL     1      -6.192  14.177  23.578  0.00  0.00    +0.000 A 
ATOM     13  C   UNL     1      -7.438  13.545  23.569  0.00  0.00    +0.000 A 
ATOM     14  C   UNL     1      -7.735  12.599  22.592  0.00  0.00    +0.000 A 
ATOM     15  C   UNL     1      -6.788  12.281  21.624  0.00  0.00    +0.000 A 
ATOM     16  C   UNL     1      -5.532  12.905  21.630  0.00  0.00    +0.000 A 
ATOM     17  C   UNL     1      -4.563  12.576  20.677  0.00  0.00    +0.000 A 
ENDBRANCH   4   8
BRANCH   1  19
ATOM     18  N   UNL     1      -0.486   9.647  23.357  0.00  0.00    +0.000 N 
ATOM     19  C   UNL     1       0.428   9.778  22.344  0.00  0.00    +0.000 C 
ATOM     20  O   UNL     1       1.613   9.492  22.478  0.00  0.00    +0.000 OA
ATOM     21  H   UNL     1      -0.201   9.371  24.284  0.00  0.00    +0.000 HD
ATOM     22  H   UNL     1      -1.443   9.953  23.189  0.00  0.00    +0.000 HD
ENDBRANCH   1  19
BRANCH   6  23
ATOM     23  N   UNL     1       0.911   8.828  19.388  0.00  0.00    +0.000 N 
ATOM     24  C   UNL     1       1.802   8.913  18.328  0.00  0.00    +0.000 C 
ATOM     25  O   UNL     1       2.081   9.919  17.683  0.00  0.00    +0.000 OA
ATOM     26  H   UNL     1       0.931   8.007  19.988  0.00  0.00    +0.000 HD
BRANCH  24  27
ATOM     27  C   UNL     1       2.535   7.668  17.974  0.00  0.00    +0.000 A 
ATOM     28  C   UNL     1       3.813   7.683  17.412  0.00  0.00    +0.000 A 
ATOM     29  C   UNL     1       4.474   6.475  17.163  0.00  0.00    +0.000 A 
ATOM     30  C   UNL     1       3.872   5.242  17.471  0.00  0.00    +0.000 A 
ATOM     31  C   UNL     1       2.595   5.240  18.049  0.00  0.00    +0.000 A 
ATOM     32  C   UNL     1       1.935   6.443  18.300  0.00  0.00    +0.000 A 
BRANCH  30  33
ATOM     33  C   UNL     1       4.590   3.945  17.184  0.00  0.00    +0.000 C 
BRANCH  33  34
ATOM     34  C   UNL     1       5.685   4.255  16.235  0.00  0.00    +0.000 A 
ATOM     35  N   UNL     1       6.970   4.509  16.644  0.00  0.00    +0.000 NA
ATOM     36  N   UNL     1       7.690   4.667  15.542  0.00  0.00    +0.000 NA
ATOM     37  N   UNL     1       6.819   4.499  14.539  0.00  0.00    +0.000 N 
ATOM     38  N   UNL     1       5.556   4.213  14.896  0.00  0.00    +0.000 NA
ATOM     39  H   UNL     1       7.104   4.572  13.566  0.00  0.00    +0.000 HD
ENDBRANCH  33  34
ENDBRANCH  30  33
ENDBRANCH  24  27
ENDBRANCH   6  23
TORSDOF 6
ENDMDL
MODEL 3
REMARK VINA RESULT:      -9.0      0.735      1.202
REMARK  Name = 
REMARK  6 active torsions:
REMARK  status: ('A' for Active; 'I' for Inactive)
REMARK    1  A    between atoms: C_2  and  C_4
REMARK    2  A    between atoms: N_7  and  C_8
REMARK    3  A    between atoms: C_19  and  N_20
REMARK    4  A    between atoms: C_21  and  C_23
REMARK    5  A    between atoms: C_26  and  C_27
REMARK    6  A    between atoms: C_27  and  C_28
REMARK                            x       y       z     vdW  Elec       q    Type
REMARK                         _______ _______ _______ _____ _____    ______ ____
ROOT
ATOM      1  C   UNL     1      -0.070  10.442  21.292  0.00  0.00    +0.000 A 
ATOM      2  N   UNL     1      -0.995  11.481  21.359  0.00  0.00    +0.000 NA
ATOM      3  C   UNL     1      -1.182  12.022  20.182  0.00  0.00    +0.000 A 
ATOM      4  N   UNL     1      -2.011  13.059  19.937  0.00  0.00    +0.000 N 
ATOM      5  S   UNL     1      -0.274  11.309  18.923  0.00  0.00    +0.000 S 
ATOM      6  C   UNL     1       0.426  10.201  20.021  0.00  0.00    +0.000 A 
ATOM      7  H   UNL     1      -1.947  13.545  19.050  0.00  0.00    +0.000 HD
ENDROOT
BRANCH   4   8
ATOM      8  C   UNL     1      -3.168  13.334  20.688  0.00  0.00    +0.000 A 
ATOM      9  C   UNL     1      -3.116  14.271  21.722  0.00  0.00    +0.000 A 
ATOM     10  C   UNL     1      -4.227  14.480  22.547  0.00  0.00    +0.000 A 
ATOM     11  C   UNL     1      -5.416  13.757  22.350  0.00  0.00    +0.000 A 
ATOM     12  C   UNL     1      -6.536  13.932  23.173  0.00  0.00    +0.000 A 
ATOM     13  C   UNL     1      -7.703  13.194  22.958  0.00  0.00    +0.000 A 
ATOM     14  C   UNL     1      -7.764  12.274  21.915  0.00  0.00    +0.000 A 
ATOM     15  C   UNL     1      -6.662  12.088  21.087  0.00  0.00    +0.000 A 
ATOM     16  C   UNL     1      -5.484  12.819  21.301  0.00  0.00    +0.000 A 
ATOM     17  C   UNL     1      -4.362  12.623  20.491  0.00  0.00    +0.000 A 
ENDBRANCH   4   8
BRANCH   1  19
ATOM     18  N   UNL     1      -0.764   9.504  23.342  0.00  0.00    +0.000 N 
ATOM     19  C   UNL     1       0.305   9.753  22.521  0.00  0.00    +0.000 C 
ATOM     20  O   UNL     1       1.454   9.437  22.812  0.00  0.00    +0.000 OA
ATOM     21  H   UNL     1      -0.635   9.107  24.259  0.00  0.00    +0.000 HD
ATOM     22  H   UNL     1      -1.682   9.842  23.059  0.00  0.00    +0.000 HD
ENDBRANCH   1  19
BRANCH   6  23
ATOM     23  N   UNL     1       1.325   9.228  19.596  0.00  0.00    +0.000 N 
ATOM     24  C   UNL     1       1.395   8.738  18.300  0.00  0.00    +0.000 C 
ATOM     25  O   UNL     1       0.756   9.137  17.330  0.00  0.00    +0.000 OA
ATOM     26  H   UNL     1       2.056   8.981  20.259  0.00  0.00    +0.000 HD
BRANCH  24  27
ATOM     27  C   UNL     1       2.385   7.658  18.049  0.00  0.00    +0.000 A 
ATOM     28  C   UNL     1       3.607   7.891  17.414  0.00  0.00    +0.000 A 
ATOM     29  C   UNL     1       4.523   6.843  17.267  0.00  0.00    +0.000 A 
ATOM     30  C   UNL     1       4.233   5.555  17.752  0.00  0.00    +0.000 A 
ATOM     31  C   UNL     1       3.010   5.336  18.400  0.00  0.00    +0.000 A 
ATOM     32  C   UNL     1       2.097   6.380  18.550  0.00  0.00    +0.000 A 
BRANCH  30  33
ATOM     33  C   UNL     1       5.223   4.428  17.574  0.00  0.00    +0.000 C 
BRANCH  33  34
ATOM     34  C   UNL     1       6.418   4.768  18.383  0.00  0.00    +0.000 A 
ATOM     35  N   UNL     1       6.332   5.216  19.677  0.00  0.00    +0.000 NA
ATOM     36  N   UNL     1       7.578   5.343  20.112  0.00  0.00    +0.000 NA
ATOM     37  N   UNL     1       8.341   4.968  19.078  0.00  0.00    +0.000 N 
ATOM     38  N   UNL     1       7.684   4.572  17.975  0.00  0.00    +0.000 NA
ATOM     39  H   UNL     1       9.355   4.974  19.133  0.00  0.00    +0.000 HD
ENDBRANCH  33  34
ENDBRANCH  30  33
ENDBRANCH  24  27
ENDBRANCH   6  23
TORSDOF 6
ENDMDL
MODEL 4
REMARK VINA RESULT:      -8.9      2.813     11.913
REMARK  Name = 
REMARK  6 active torsions:
REMARK  status: ('A' for Active; 'I' for Inactive)
REMARK    1  A    between atoms: C_2  and  C_4
REMARK    2  A    between atoms: N_7  and  C_8
REMARK    3  A    between atoms: C_19  and  N_20
REMARK    4  A    between atoms: C_21  and  C_23
REMARK    5  A    between atoms: C_26  and  C_27
REMARK    6  A    between atoms: C_27  and  C_28
REMARK                            x       y       z     vdW  Elec       q    Type
REMARK                         _______ _______ _______ _____ _____    ______ ____
ROOT
ATOM      1  C   UNL     1       1.365   9.450  19.085  0.00  0.00    +0.000 A 
ATOM      2  N   UNL     1       2.264   8.409  18.867  0.00  0.00    +0.000 NA
ATOM      3  C   UNL     1       2.168   7.500  19.805  0.00  0.00    +0.000 A 
ATOM      4  N   UNL     1       2.920   6.381  19.870  0.00  0.00    +0.000 N 
ATOM      5  S   UNL     1       0.985   7.831  20.992  0.00  0.00    +0.000 S 
ATOM      6  C   UNL     1       0.571   9.294  20.209  0.00  0.00    +0.000 A 
ATOM      7  H   UNL     1       2.925   5.837  20.724  0.00  0.00    +0.000 HD
ENDROOT
BRANCH   4   8
ATOM      8  C   UNL     1       3.464   5.734  18.745  0.00  0.00    +0.000 A 
ATOM      9  C   UNL     1       2.919   4.525  18.310  0.00  0.00    +0.000 A 
ATOM     10  C   UNL     1       3.511   3.816  17.260  0.00  0.00    +0.000 A 
ATOM     11  C   UNL     1       4.662   4.306  16.619  0.00  0.00    +0.000 A 
ATOM     12  C   UNL     1       5.288   3.607  15.579  0.00  0.00    +0.000 A 
ATOM     13  C   UNL     1       6.435   4.116  14.965  0.00  0.00    +0.000 A 
ATOM     14  C   UNL     1       6.969   5.333  15.382  0.00  0.00    +0.000 A 
ATOM     15  C   UNL     1       6.360   6.041  16.413  0.00  0.00    +0.000 A 
ATOM     16  C   UNL     1       5.213   5.533  17.040  0.00  0.00    +0.000 A 
ATOM     17  C   UNL     1       4.607   6.223  18.094  0.00  0.00    +0.000 A 
ENDBRANCH   4   8
BRANCH   1  19
ATOM     18  N   UNL     1       2.592  10.806  17.595  0.00  0.00    +0.000 N 
ATOM     19  C   UNL     1       1.367  10.583  18.167  0.00  0.00    +0.000 C 
ATOM     20  O   UNL     1       0.387  11.282  17.932  0.00  0.00    +0.000 OA
ATOM     21  H   UNL     1       2.753  11.606  17.002  0.00  0.00    +0.000 HD
ATOM     22  H   UNL     1       3.374  10.218  17.876  0.00  0.00    +0.000 HD
ENDBRANCH   1  19
BRANCH   6  23
ATOM     23  N   UNL     1      -0.441  10.116  20.694  0.00  0.00    +0.000 N 
ATOM     24  C   UNL     1      -0.229  11.245  21.471  0.00  0.00    +0.000 C 
ATOM     25  O   UNL     1       0.855  11.735  21.770  0.00  0.00    +0.000 OA
ATOM     26  H   UNL     1      -1.372   9.936  20.324  0.00  0.00    +0.000 HD
BRANCH  24  27
ATOM     27  C   UNL     1      -1.442  11.965  21.943  0.00  0.00    +0.000 A 
ATOM     28  C   UNL     1      -2.208  12.777  21.103  0.00  0.00    +0.000 A 
ATOM     29  C   UNL     1      -3.374  13.375  21.593  0.00  0.00    +0.000 A 
ATOM     30  C   UNL     1      -3.791  13.170  22.920  0.00  0.00    +0.000 A 
ATOM     31  C   UNL     1      -3.023  12.341  23.750  0.00  0.00    +0.000 A 
ATOM     32  C   UNL     1      -1.860  11.742  23.262  0.00  0.00    +0.000 A 
BRANCH  30  33
ATOM     33  C   UNL     1      -5.044  13.833  23.441  0.00  0.00    +0.000 C 
BRANCH  33  34
ATOM     34  C   UNL     1      -6.140  12.841  23.329  0.00  0.00    +0.000 A 
ATOM     35  N   UNL     1      -7.044  12.620  24.337  0.00  0.00    +0.000 NA
ATOM     36  N   UNL     1      -7.916  11.737  23.870  0.00  0.00    +0.000 NA
ATOM     37  N   UNL     1      -7.504  11.477  22.623  0.00  0.00    +0.000 N 
ATOM     38  N   UNL     1      -6.417  12.149  22.209  0.00  0.00    +0.000 NA
ATOM     39  H   UNL     1      -7.995  10.818  22.025  0.00  0.00    +0.000 HD
ENDBRANCH  33  34
ENDBRANCH  30  33
ENDBRANCH  24  27
ENDBRANCH   6  23
TORSDOF 6
ENDMDL
MODEL 5
REMARK VINA RESULT:      -8.9      0.966      1.806
REMARK  Name = 
REMARK  6 active torsions:
REMARK  status: ('A' for Active; 'I' for Inactive)
REMARK    1  A    between atoms: C_2  and  C_4
REMARK    2  A    between atoms: N_7  and  C_8
REMARK    3  A    between atoms: C_19  and  N_20
REMARK    4  A    between atoms: C_21  and  C_23
REMARK    5  A    between atoms: C_26  and  C_27
REMARK    6  A    between atoms: C_27  and  C_28
REMARK                            x       y       z     vdW  Elec       q    Type
REMARK                         _______ _______ _______ _____ _____    ______ ____
ROOT
ATOM      1  C   UNL     1      -0.055  10.223  21.202  0.00  0.00    +0.000 A 
ATOM      2  N   UNL     1      -0.967  11.275  21.244  0.00  0.00    +0.000 NA
ATOM      3  C   UNL     1      -1.252  11.700  20.039  0.00  0.00    +0.000 A 
ATOM      4  N   UNL     1      -2.095  12.717  19.764  0.00  0.00    +0.000 N 
ATOM      5  S   UNL     1      -0.458  10.855  18.784  0.00  0.00    +0.000 S 
ATOM      6  C   UNL     1       0.330   9.852  19.923  0.00  0.00    +0.000 A 
ATOM      7  H   UNL     1      -2.106  13.113  18.831  0.00  0.00    +0.000 HD
ENDROOT
BRANCH   4   8
ATOM      8  C   UNL     1      -3.183  13.079  20.580  0.00  0.00    +0.000 A 
ATOM      9  C   UNL     1      -4.444  12.533  20.335  0.00  0.00    +0.000 A 
ATOM     10  C   UNL     1      -5.557  12.960  21.067  0.00  0.00    +0.000 A 
ATOM     11  C   UNL     1      -5.428  13.941  22.066  0.00  0.00    +0.000 A 
ATOM     12  C   UNL     1      -6.529  14.401  22.801  0.00  0.00    +0.000 A 
ATOM     13  C   UNL     1      -6.372  15.382  23.783  0.00  0.00    +0.000 A 
ATOM     14  C   UNL     1      -5.111  15.912  24.045  0.00  0.00    +0.000 A 
ATOM     15  C   UNL     1      -4.008  15.467  23.325  0.00  0.00    +0.000 A 
ATOM     16  C   UNL     1      -4.158  14.488  22.332  0.00  0.00    +0.000 A 
ATOM     17  C   UNL     1      -3.060  14.050  21.585  0.00  0.00    +0.000 A 
ENDBRANCH   4   8
BRANCH   1  19
ATOM     18  N   UNL     1      -0.564   9.548  23.404  0.00  0.00    +0.000 N 
ATOM     19  C   UNL     1       0.421   9.654  22.457  0.00  0.00    +0.000 C 
ATOM     20  O   UNL     1       1.582   9.315  22.664  0.00  0.00    +0.000 OA
ATOM     21  H   UNL     1      -0.354   9.246  24.342  0.00  0.00    +0.000 HD
ATOM     22  H   UNL     1      -1.493   9.898  23.178  0.00  0.00    +0.000 HD
ENDBRANCH   1  19
BRANCH   6  23
ATOM     23  N   UNL     1       1.186   8.832  19.522  0.00  0.00    +0.000 N 
ATOM     24  C   UNL     1       1.887   8.823  18.325  0.00  0.00    +0.000 C 
ATOM     25  O   UNL     1       1.934   9.727  17.496  0.00  0.00    +0.000 OA
ATOM     26  H   UNL     1       1.402   8.132  20.228  0.00  0.00    +0.000 HD
BRANCH  24  27
ATOM     27  C   UNL     1       2.711   7.617  18.046  0.00  0.00    +0.000 A 
ATOM     28  C   UNL     1       2.249   6.320  18.283  0.00  0.00    +0.000 A 
ATOM     29  C   UNL     1       3.050   5.225  17.938  0.00  0.00    +0.000 A 
ATOM     30  C   UNL     1       4.315   5.410  17.353  0.00  0.00    +0.000 A 
ATOM     31  C   UNL     1       4.763   6.715  17.106  0.00  0.00    +0.000 A 
ATOM     32  C   UNL     1       3.965   7.808  17.448  0.00  0.00    +0.000 A 
BRANCH  30  33
ATOM     33  C   UNL     1       5.176   4.220  16.998  0.00  0.00    +0.000 C 
BRANCH  33  34
ATOM     34  C   UNL     1       6.008   4.616  15.838  0.00  0.00    +0.000 A 
ATOM     35  N   UNL     1       7.342   4.918  15.951  0.00  0.00    +0.000 NA
ATOM     36  N   UNL     1       7.780   5.148  14.721  0.00  0.00    +0.000 NA
ATOM     37  N   UNL     1       6.707   4.973  13.939  0.00  0.00    +0.000 N 
ATOM     38  N   UNL     1       5.574   4.615  14.564  0.00  0.00    +0.000 NA
ATOM     39  H   UNL     1       6.757   5.094  12.931  0.00  0.00    +0.000 HD
ENDBRANCH  33  34
ENDBRANCH  30  33
ENDBRANCH  24  27
ENDBRANCH   6  23
TORSDOF 6
ENDMDL
MODEL 6
REMARK VINA RESULT:      -8.8      2.720     11.920
REMARK  Name = 
REMARK  6 active torsions:
REMARK  status: ('A' for Active; 'I' for Inactive)
REMARK    1  A    between atoms: C_2  and  C_4
REMARK    2  A    between atoms: N_7  and  C_8
REMARK    3  A    between atoms: C_19  and  N_20
REMARK    4  A    between atoms: C_21  and  C_23
REMARK    5  A    between atoms: C_26  and  C_27
REMARK    6  A    between atoms: C_27  and  C_28
REMARK                            x       y       z     vdW  Elec       q    Type
REMARK                         _______ _______ _______ _____ _____    ______ ____
ROOT
ATOM      1  C   UNL     1       1.265   9.324  19.221  0.00  0.00    +0.000 A 
ATOM      2  N   UNL     1       2.195   8.314  18.984  0.00  0.00    +0.000 NA
ATOM      3  C   UNL     1       2.141   7.397  19.918  0.00  0.00    +0.000 A 
ATOM      4  N   UNL     1       2.930   6.303  19.965  0.00  0.00    +0.000 N 
ATOM      5  S   UNL     1       0.965   7.682  21.123  0.00  0.00    +0.000 S 
ATOM      6  C   UNL     1       0.493   9.135  20.355  0.00  0.00    +0.000 A 
ATOM      7  H   UNL     1       2.966   5.755  20.816  0.00  0.00    +0.000 HD
ENDROOT
BRANCH   4   8
ATOM      8  C   UNL     1       3.479   5.680  18.829  0.00  0.00    +0.000 A 
ATOM      9  C   UNL     1       2.872   4.539  18.303  0.00  0.00    +0.000 A 
ATOM     10  C   UNL     1       3.462   3.847  17.240  0.00  0.00    +0.000 A 
ATOM     11  C   UNL     1       4.672   4.288  16.677  0.00  0.00    +0.000 A 
ATOM     12  C   UNL     1       5.295   3.603  15.625  0.00  0.00    +0.000 A 
ATOM     13  C   UNL     1       6.502   4.061  15.091  0.00  0.00    +0.000 A 
ATOM     14  C   UNL     1       7.099   5.211  15.600  0.00  0.00    +0.000 A 
ATOM     15  C   UNL     1       6.494   5.904  16.643  0.00  0.00    +0.000 A 
ATOM     16  C   UNL     1       5.287   5.447  17.191  0.00  0.00    +0.000 A 
ATOM     17  C   UNL     1       4.682   6.121  18.256  0.00  0.00    +0.000 A 
ENDBRANCH   4   8
BRANCH   1  19
ATOM     18  N   UNL     1      -0.039  10.697  17.814  0.00  0.00    +0.000 N 
ATOM     19  C   UNL     1       1.217  10.461  18.310  0.00  0.00    +0.000 C 
ATOM     20  O   UNL     1       2.192  11.137  17.998  0.00  0.00    +0.000 OA
ATOM     21  H   UNL     1      -0.198  11.403  17.112  0.00  0.00    +0.000 HD
ATOM     22  H   UNL     1      -0.791  10.063  18.077  0.00  0.00    +0.000 HD
ENDBRANCH   1  19
BRANCH   6  23
ATOM     23  N   UNL     1      -0.540   9.920  20.859  0.00  0.00    +0.000 N 
ATOM     24  C   UNL     1      -0.356  11.130  21.513  0.00  0.00    +0.000 C 
ATOM     25  O   UNL     1       0.706  11.726  21.666  0.00  0.00    +0.000 OA
ATOM     26  H   UNL     1      -1.480   9.638  20.593  0.00  0.00    +0.000 HD
BRANCH  24  27
ATOM     27  C   UNL     1      -1.579  11.798  22.031  0.00  0.00    +0.000 A 
ATOM     28  C   UNL     1      -1.854  11.909  23.396  0.00  0.00    +0.000 A 
ATOM     29  C   UNL     1      -2.991  12.607  23.819  0.00  0.00    +0.000 A 
ATOM     30  C   UNL     1      -3.864  13.201  22.890  0.00  0.00    +0.000 A 
ATOM     31  C   UNL     1      -3.571  13.096  21.523  0.00  0.00    +0.000 A 
ATOM     32  C   UNL     1      -2.436  12.402  21.100  0.00  0.00    +0.000 A 
BRANCH  30  33
ATOM     33  C   UNL     1      -5.095  13.939  23.359  0.00  0.00    +0.000 C 
BRANCH  33  34
ATOM     34  C   UNL     1      -6.253  13.041  23.133  0.00  0.00    +0.000 A 
ATOM     35  N   UNL     1      -7.038  13.113  22.010  0.00  0.00    +0.000 NA
ATOM     36  N   UNL     1      -7.917  12.125  22.104  0.00  0.00    +0.000 NA
ATOM     37  N   UNL     1      -7.621  11.513  23.257  0.00  0.00    +0.000 N 
ATOM     38  N   UNL     1      -6.578  12.015  23.939  0.00  0.00    +0.000 NA
ATOM     39  H   UNL     1      -8.150  10.710  23.586  0.00  0.00    +0.000 HD
ENDBRANCH  33  34
ENDBRANCH  30  33
ENDBRANCH  24  27
ENDBRANCH   6  23
TORSDOF 6
ENDMDL
MODEL 7
REMARK VINA RESULT:      -8.8      1.081      1.358
REMARK  Name = 
REMARK  6 active torsions:
REMARK  status: ('A' for Active; 'I' for Inactive)
REMARK    1  A    between atoms: C_2  and  C_4
REMARK    2  A    between atoms: N_7  and  C_8
REMARK    3  A    between atoms: C_19  and  N_20
REMARK    4  A    between atoms: C_21  and  C_23
REMARK    5  A    between atoms: C_26  and  C_27
REMARK    6  A    between atoms: C_27  and  C_28
REMARK                            x       y       z     vdW  Elec       q    Type
REMARK                         _______ _______ _______ _____ _____    ______ ____
ROOT
ATOM      1  C   UNL     1       0.070  10.098  21.309  0.00  0.00    +0.000 A 
ATOM      2  N   UNL     1      -0.864  11.127  21.403  0.00  0.00    +0.000 NA
ATOM      3  C   UNL     1      -1.276  11.499  20.216  0.00  0.00    +0.000 A 
ATOM      4  N   UNL     1      -2.172  12.483  19.988  0.00  0.00    +0.000 N 
ATOM      5  S   UNL     1      -0.580  10.629  18.921  0.00  0.00    +0.000 S 
ATOM      6  C   UNL     1       0.342   9.690  20.013  0.00  0.00    +0.000 A 
ATOM      7  H   UNL     1      -2.283  12.842  19.048  0.00  0.00    +0.000 HD
ENDROOT
BRANCH   4   8
ATOM      8  C   UNL     1      -3.187  12.846  20.893  0.00  0.00    +0.000 A 
ATOM      9  C   UNL     1      -2.860  13.541  22.058  0.00  0.00    +0.000 A 
ATOM     10  C   UNL     1      -3.839  13.817  23.018  0.00  0.00    +0.000 A 
ATOM     11  C   UNL     1      -5.170  13.406  22.827  0.00  0.00    +0.000 A 
ATOM     12  C   UNL     1      -6.167  13.652  23.781  0.00  0.00    +0.000 A 
ATOM     13  C   UNL     1      -7.480  13.226  23.567  0.00  0.00    +0.000 A 
ATOM     14  C   UNL     1      -7.813  12.551  22.396  0.00  0.00    +0.000 A 
ATOM     15  C   UNL     1      -6.836  12.299  21.438  0.00  0.00    +0.000 A 
ATOM     16  C   UNL     1      -5.514  12.717  21.648  0.00  0.00    +0.000 A 
ATOM     17  C   UNL     1      -4.519  12.448  20.704  0.00  0.00    +0.000 A 
ENDBRANCH   4   8
BRANCH   1  19
ATOM     18  N   UNL     1       1.842   8.900  22.302  0.00  0.00    +0.000 N 
ATOM     19  C   UNL     1       0.681   9.590  22.531  0.00  0.00    +0.000 C 
ATOM     20  O   UNL     1       0.208   9.743  23.653  0.00  0.00    +0.000 OA
ATOM     21  H   UNL     1       2.323   8.427  23.051  0.00  0.00    +0.000 HD
ATOM     22  H   UNL     1       2.147   8.768  21.340  0.00  0.00    +0.000 HD
ENDBRANCH   1  19
BRANCH   6  23
ATOM     23  N   UNL     1       1.186   8.678  19.567  0.00  0.00    +0.000 N 
ATOM     24  C   UNL     1       1.917   8.730  18.389  0.00  0.00    +0.000 C 
ATOM     25  O   UNL     1       2.005   9.685  17.623  0.00  0.00    +0.000 OA
ATOM     26  H   UNL     1       1.368   7.929  20.231  0.00  0.00    +0.000 HD
BRANCH  24  27
ATOM     27  C   UNL     1       2.721   7.526  18.052  0.00  0.00    +0.000 A 
ATOM     28  C   UNL     1       2.270   6.227  18.300  0.00  0.00    +0.000 A 
ATOM     29  C   UNL     1       3.048   5.135  17.900  0.00  0.00    +0.000 A 
ATOM     30  C   UNL     1       4.279   5.323  17.248  0.00  0.00    +0.000 A 
ATOM     31  C   UNL     1       4.716   6.630  16.991  0.00  0.00    +0.000 A 
ATOM     32  C   UNL     1       3.940   7.721  17.388  0.00  0.00    +0.000 A 
BRANCH  30  33
ATOM     33  C   UNL     1       5.116   4.136  16.834  0.00  0.00    +0.000 C 
BRANCH  33  34
ATOM     34  C   UNL     1       5.983   4.583  15.717  0.00  0.00    +0.000 A 
ATOM     35  N   UNL     1       7.283   4.979  15.902  0.00  0.00    +0.000 NA
ATOM     36  N   UNL     1       7.772   5.233  14.696  0.00  0.00    +0.000 NA
ATOM     37  N   UNL     1       6.760   4.978  13.857  0.00  0.00    +0.000 N 
ATOM     38  N   UNL     1       5.622   4.544  14.422  0.00  0.00    +0.000 NA
ATOM     39  H   UNL     1       6.858   5.097  12.852  0.00  0.00    +0.000 HD
ENDBRANCH  33  34
ENDBRANCH  30  33
ENDBRANCH  24  27
ENDBRANCH   6  23
TORSDOF 6
ENDMDL
MODEL 8
REMARK VINA RESULT:      -8.8      2.168      3.155
REMARK  Name = 
REMARK  6 active torsions:
REMARK  status: ('A' for Active; 'I' for Inactive)
REMARK    1  A    between atoms: C_2  and  C_4
REMARK    2  A    between atoms: N_7  and  C_8
REMARK    3  A    between atoms: C_19  and  N_20
REMARK    4  A    between atoms: C_21  and  C_23
REMARK    5  A    between atoms: C_26  and  C_27
REMARK    6  A    between atoms: C_27  and  C_28
REMARK                            x       y       z     vdW  Elec       q    Type
REMARK                         _______ _______ _______ _____ _____    ______ ____
ROOT
ATOM      1  C   UNL     1       0.147   9.791  19.797  0.00  0.00    +0.000 A 
ATOM      2  N   UNL     1      -0.671  10.448  20.712  0.00  0.00    +0.000 NA
ATOM      3  C   UNL     1      -0.312  10.180  21.942  0.00  0.00    +0.000 A 
ATOM      4  N   UNL     1      -0.926  10.662  23.044  0.00  0.00    +0.000 N 
ATOM      5  S   UNL     1       1.036   9.139  22.075  0.00  0.00    +0.000 S 
ATOM      6  C   UNL     1       1.151   9.028  20.372  0.00  0.00    +0.000 A 
ATOM      7  H   UNL     1      -0.718  10.252  23.946  0.00  0.00    +0.000 HD
ENDROOT
BRANCH   4   8
ATOM      8  C   UNL     1      -1.607  11.893  23.088  0.00  0.00    +0.000 A 
ATOM      9  C   UNL     1      -0.888  13.086  23.000  0.00  0.00    +0.000 A 
ATOM     10  C   UNL     1      -1.535  14.317  23.149  0.00  0.00    +0.000 A 
ATOM     11  C   UNL     1      -2.919  14.379  23.383  0.00  0.00    +0.000 A 
ATOM     12  C   UNL     1      -3.589  15.598  23.555  0.00  0.00    +0.000 A 
ATOM     13  C   UNL     1      -4.965  15.628  23.795  0.00  0.00    +0.000 A 
ATOM     14  C   UNL     1      -5.689  14.440  23.861  0.00  0.00    +0.000 A 
ATOM     15  C   UNL     1      -5.040  13.222  23.692  0.00  0.00    +0.000 A 
ATOM     16  C   UNL     1      -3.657  13.182  23.459  0.00  0.00    +0.000 A 
ATOM     17  C   UNL     1      -2.991  11.962  23.312  0.00  0.00    +0.000 A 
ENDBRANCH   4   8
BRANCH   1  19
ATOM     18  N   UNL     1      -1.280  10.644  18.123  0.00  0.00    +0.000 N 
ATOM     19  C   UNL     1      -0.137   9.929  18.373  0.00  0.00    +0.000 C 
ATOM     20  O   UNL     1       0.556   9.450  17.482  0.00  0.00    +0.000 OA
ATOM     21  H   UNL     1      -1.635  10.746  17.186  0.00  0.00    +0.000 HD
ATOM     22  H   UNL     1      -1.833  10.967  18.914  0.00  0.00    +0.000 HD
ENDBRANCH   1  19
BRANCH   6  23
ATOM     23  N   UNL     1       2.152   8.282  19.760  0.00  0.00    +0.000 N 
ATOM     24  C   UNL     1       2.265   6.902  19.847  0.00  0.00    +0.000 C 
ATOM     25  O   UNL     1       1.474   6.135  20.387  0.00  0.00    +0.000 OA
ATOM     26  H   UNL     1       2.738   8.786  19.099  0.00  0.00    +0.000 HD
BRANCH  24  27
ATOM     27  C   UNL     1       3.437   6.287  19.169  0.00  0.00    +0.000 A 
ATOM     28  C   UNL     1       4.061   6.874  18.066  0.00  0.00    +0.000 A 
ATOM     29  C   UNL     1       5.199   6.276  17.514  0.00  0.00    +0.000 A 
ATOM     30  C   UNL     1       5.729   5.091  18.054  0.00  0.00    +0.000 A 
ATOM     31  C   UNL     1       5.103   4.518  19.170  0.00  0.00    +0.000 A 
ATOM     32  C   UNL     1       3.969   5.114  19.723  0.00  0.00    +0.000 A 
BRANCH  30  33
ATOM     33  C   UNL     1       6.949   4.447  17.440  0.00  0.00    +0.000 C 
BRANCH  33  34
ATOM     34  C   UNL     1       6.788   4.525  15.969  0.00  0.00    +0.000 A 
ATOM     35  N   UNL     1       5.837   3.806  15.289  0.00  0.00    +0.000 NA
ATOM     36  N   UNL     1       5.926   4.174  14.019  0.00  0.00    +0.000 NA
ATOM     37  N   UNL     1       6.908   5.084  13.996  0.00  0.00    +0.000 N 
ATOM     38  N   UNL     1       7.473   5.372  15.180  0.00  0.00    +0.000 NA
ATOM     39  H   UNL     1       7.197   5.536  13.132  0.00  0.00    +0.000 HD
ENDBRANCH  33  34
ENDBRANCH  30  33
ENDBRANCH  24  27
ENDBRANCH   6  23
TORSDOF 6
ENDMDL
MODEL 9
REMARK VINA RESULT:      -8.6      1.260      2.112
REMARK  Name = 
REMARK  6 active torsions:
REMARK  status: ('A' for Active; 'I' for Inactive)
REMARK    1  A    between atoms: C_2  and  C_4
REMARK    2  A    between atoms: N_7  and  C_8
REMARK    3  A    between atoms: C_19  and  N_20
REMARK    4  A    between atoms: C_21  and  C_23
REMARK    5  A    between atoms: C_26  and  C_27
REMARK    6  A    between atoms: C_27  and  C_28
REMARK                            x       y       z     vdW  Elec       q    Type
REMARK                         _______ _______ _______ _____ _____    ______ ____
ROOT
ATOM      1  C   UNL     1      -0.331  10.442  21.182  0.00  0.00    +0.000 A 
ATOM      2  N   UNL     1      -1.216  11.516  21.240  0.00  0.00    +0.000 NA
ATOM      3  C   UNL     1      -1.565  11.903  20.038  0.00  0.00    +0.000 A 
ATOM      4  N   UNL     1      -2.402  12.929  19.775  0.00  0.00    +0.000 N 
ATOM      5  S   UNL     1      -0.866  10.995  18.771  0.00  0.00    +0.000 S 
ATOM      6  C   UNL     1      -0.032  10.016  19.898  0.00  0.00    +0.000 A 
ATOM      7  H   UNL     1      -2.461  13.290  18.831  0.00  0.00    +0.000 HD
ENDROOT
BRANCH   4   8
ATOM      8  C   UNL     1      -3.431  13.346  20.641  0.00  0.00    +0.000 A 
ATOM      9  C   UNL     1      -4.703  12.786  20.523  0.00  0.00    +0.000 A 
ATOM     10  C   UNL     1      -5.763  13.262  21.303  0.00  0.00    +0.000 A 
ATOM     11  C   UNL     1      -5.568  14.307  22.221  0.00  0.00    +0.000 A 
ATOM     12  C   UNL     1      -6.615  14.817  23.001  0.00  0.00    +0.000 A 
ATOM     13  C   UNL     1      -6.392  15.862  23.901  0.00  0.00    +0.000 A 
ATOM     14  C   UNL     1      -5.118  16.408  24.036  0.00  0.00    +0.000 A 
ATOM     15  C   UNL     1      -4.067  15.913  23.271  0.00  0.00    +0.000 A 
ATOM     16  C   UNL     1      -4.283  14.870  22.359  0.00  0.00    +0.000 A 
ATOM     17  C   UNL     1      -3.240  14.382  21.567  0.00  0.00    +0.000 A 
ENDBRANCH   4   8
BRANCH   1  19
ATOM     18  N   UNL     1      -0.747   9.738  23.395  0.00  0.00    +0.000 N 
ATOM     19  C   UNL     1       0.209   9.909  22.428  0.00  0.00    +0.000 C 
ATOM     20  O   UNL     1       1.394   9.650  22.611  0.00  0.00    +0.000 OA
ATOM     21  H   UNL     1      -0.498   9.452  24.329  0.00  0.00    +0.000 HD
ATOM     22  H   UNL     1      -1.702  10.023  23.189  0.00  0.00    +0.000 HD
ENDBRANCH   1  19
BRANCH   6  23
ATOM     23  N   UNL     1       0.777   8.962  19.485  0.00  0.00    +0.000 N 
ATOM     24  C   UNL     1       1.775   9.069  18.528  0.00  0.00    +0.000 C 
ATOM     25  O   UNL     1       2.154  10.098  17.977  0.00  0.00    +0.000 OA
ATOM     26  H   UNL     1       0.705   8.109  20.035  0.00  0.00    +0.000 HD
BRANCH  24  27
ATOM     27  C   UNL     1       2.497   7.817  18.178  0.00  0.00    +0.000 A 
ATOM     28  C   UNL     1       1.996   6.549  18.485  0.00  0.00    +0.000 A 
ATOM     29  C   UNL     1       2.694   5.410  18.070  0.00  0.00    +0.000 A 
ATOM     30  C   UNL     1       3.895   5.519  17.346  0.00  0.00    +0.000 A 
ATOM     31  C   UNL     1       4.381   6.796  17.031  0.00  0.00    +0.000 A 
ATOM     32  C   UNL     1       3.685   7.934  17.442  0.00  0.00    +0.000 A 
BRANCH  30  33
ATOM     33  C   UNL     1       4.646   4.281  16.917  0.00  0.00    +0.000 C 
BRANCH  33  34
ATOM     34  C   UNL     1       4.498   3.284  18.003  0.00  0.00    +0.000 A 
ATOM     35  N   UNL     1       3.738   2.150  17.869  0.00  0.00    +0.000 NA
ATOM     36  N   UNL     1       3.894   1.460  18.990  0.00  0.00    +0.000 NA
ATOM     37  N   UNL     1       4.730   2.198  19.731  0.00  0.00    +0.000 N 
ATOM     38  N   UNL     1       5.168   3.336  19.169  0.00  0.00    +0.000 NA
ATOM     39  H   UNL     1       5.022   1.903  20.659  0.00  0.00    +0.000 HD
ENDBRANCH  33  34
ENDBRANCH  30  33
ENDBRANCH  24  27
ENDBRANCH   6  23
TORSDOF 6
ENDMDL
