MODEL 1
REMARK VINA RESULT:      -7.2      0.000      0.000
REMARK  Name = 
REMARK  11 active torsions:
REMARK  status: ('A' for Active; 'I' for Inactive)
REMARK    1  A    between atoms: C_1  and  C_2
REMARK    2  A    between atoms: C_5  and  C_6
REMARK    3  A    between atoms: C_6  and  C_7
REMARK    4  A    between atoms: C_6  and  C_8
REMARK    5  A    between atoms: C_9  and  O_10
REMARK    6  A    between atoms: O_10  and  C_11
REMARK    7  A    between atoms: C_11  and  C_13
REMARK    8  A    between atoms: C_13  and  O_14
REMARK    9  A    between atoms: O_14  and  C_15
REMARK   10  A    between atoms: C_15  and  C_17
REMARK   11  A    between atoms: C_20  and  O_21
REMARK                            x       y       z     vdW  Elec       q    Type
REMARK                         _______ _______ _______ _____ _____    ______ ____
ROOT
ATOM      1  C   UNL     1       3.563   6.752  17.782  0.00  0.00    +0.000 C 
ATOM      2  O   UNL     1       3.475   7.965  17.638  0.00  0.00    +0.000 OA
ENDROOT
BRANCH   1   3
ATOM      3  O   UNL     1       4.667   5.999  17.499  0.00  0.00    +0.000 OA
BRANCH   3   9
ATOM      4  C   UNL     1       5.285   3.891  13.699  0.00  0.00    +0.000 C 
ATOM      5  C   UNL     1       5.542   4.429  15.108  0.00  0.00    +0.000 C 
ATOM      6  C   UNL     1       6.966   4.091  15.557  0.00  0.00    +0.000 C 
ATOM      7  C   UNL     1       7.289   4.673  16.932  0.00  0.00    +0.000 C 
ATOM      8  C   UNL     1       7.054   6.199  17.003  0.00  0.00    +0.000 C 
ATOM      9  C   UNL     1       5.611   6.538  16.546  0.00  0.00    +0.000 C 
ATOM     10  C   UNL     1       5.310   5.944  15.162  0.00  0.00    +0.000 C 
BRANCH   8  11
ATOM     11  C   UNL     1       7.395   6.764  18.418  0.00  0.00    +0.000 C 
ATOM     12  C   UNL     1       8.090   5.720  19.303  0.00  0.00    +0.000 C 
ATOM     13  C   UNL     1       8.304   7.999  18.354  0.00  0.00    +0.000 C 
ENDBRANCH   8  11
ENDBRANCH   3   9
ENDBRANCH   1   3
BRANCH   1  14
ATOM     14  C   UNL     1       2.427   5.857  18.263  0.00  0.00    +0.000 C 
BRANCH  14  15
ATOM     15  O   UNL     1       2.290   4.666  17.476  0.00  0.00    +0.000 OA
BRANCH  15  16
ATOM     16  C   UNL     1       1.702   3.639  18.134  0.00  0.00    +0.000 C 
ATOM     17  O   UNL     1       0.564   3.236  17.951  0.00  0.00    +0.000 OA
BRANCH  16  18
ATOM     18  C   UNL     1       2.614   3.053  19.145  0.00  0.00    +0.000 A 
ATOM     19  C   UNL     1       2.272   2.855  20.485  0.00  0.00    +0.000 A 
ATOM     20  C   UNL     1       3.208   2.294  21.358  0.00  0.00    +0.000 A 
ATOM     21  C   UNL     1       4.453   1.954  20.851  0.00  0.00    +0.000 A 
ATOM     22  N   UNL     1       4.816   2.128  19.571  0.00  0.00    +0.000 NA
ATOM     23  C   UNL     1       3.891   2.679  18.745  0.00  0.00    +0.000 A 
BRANCH  21  24
ATOM     24  O   UNL     1       5.412   1.399  21.645  0.00  0.00    +0.000 OA
ATOM     25  H   UNL     1       5.317   1.760  22.537  0.00  0.00    +0.000 HD
ENDBRANCH  21  24
ENDBRANCH  16  18
ENDBRANCH  15  16
ENDBRANCH  14  15
ENDBRANCH   1  14
TORSDOF 8
ENDMDL
MODEL 2
REMARK VINA RESULT:      -7.0      4.722      7.368
REMARK  Name = 
REMARK  11 active torsions:
REMARK  status: ('A' for Active; 'I' for Inactive)
REMARK    1  A    between atoms: C_1  and  C_2
REMARK    2  A    between atoms: C_5  and  C_6
REMARK    3  A    between atoms: C_6  and  C_7
REMARK    4  A    between atoms: C_6  and  C_8
REMARK    5  A    between atoms: C_9  and  O_10
REMARK    6  A    between atoms: O_10  and  C_11
REMARK    7  A    between atoms: C_11  and  C_13
REMARK    8  A    between atoms: C_13  and  O_14
REMARK    9  A    between atoms: O_14  and  C_15
REMARK   10  A    between atoms: C_15  and  C_17
REMARK   11  A    between atoms: C_20  and  O_21
REMARK                            x       y       z     vdW  Elec       q    Type
REMARK                         _______ _______ _______ _____ _____    ______ ____
ROOT
ATOM      1  C   UNL     1       2.198   7.923  18.269  0.00  0.00    +0.000 C 
ATOM      2  O   UNL     1       2.356   8.743  17.372  0.00  0.00    +0.000 OA
ENDROOT
BRANCH   1   3
ATOM      3  O   UNL     1       2.212   6.567  18.113  0.00  0.00    +0.000 OA
BRANCH   3   9
ATOM      4  C   UNL     1       6.026   5.728  16.108  0.00  0.00    +0.000 C 
ATOM      5  C   UNL     1       4.641   5.512  16.722  0.00  0.00    +0.000 C 
ATOM      6  C   UNL     1       4.283   4.024  16.721  0.00  0.00    +0.000 C 
ATOM      7  C   UNL     1       2.938   3.754  17.392  0.00  0.00    +0.000 C 
ATOM      8  C   UNL     1       2.866   4.321  18.830  0.00  0.00    +0.000 C 
ATOM      9  C   UNL     1       3.230   5.828  18.827  0.00  0.00    +0.000 C 
ATOM     10  C   UNL     1       4.586   6.074  18.148  0.00  0.00    +0.000 C 
BRANCH   8  11
ATOM     11  C   UNL     1       1.481   4.028  19.489  0.00  0.00    +0.000 C 
ATOM     12  C   UNL     1       0.836   2.752  18.932  0.00  0.00    +0.000 C 
ATOM     13  C   UNL     1       1.578   3.872  21.013  0.00  0.00    +0.000 C 
ENDBRANCH   8  11
ENDBRANCH   3   9
ENDBRANCH   1   3
BRANCH   1  14
ATOM     14  C   UNL     1       1.908   8.281  19.722  0.00  0.00    +0.000 C 
BRANCH  14  15
ATOM     15  O   UNL     1       0.564   8.737  19.922  0.00  0.00    +0.000 OA
BRANCH  15  16
ATOM     16  C   UNL     1       0.435  10.086  19.908  0.00  0.00    +0.000 C 
ATOM     17  O   UNL     1       1.141  10.873  20.519  0.00  0.00    +0.000 OA
BRANCH  16  18
ATOM     18  C   UNL     1      -0.702  10.510  19.059  0.00  0.00    +0.000 A 
ATOM     19  C   UNL     1      -0.993   9.959  17.808  0.00  0.00    +0.000 A 
ATOM     20  C   UNL     1      -2.092  10.432  17.086  0.00  0.00    +0.000 A 
ATOM     21  C   UNL     1      -2.857  11.442  17.648  0.00  0.00    +0.000 A 
ATOM     22  N   UNL     1      -2.609  11.995  18.845  0.00  0.00    +0.000 NA
ATOM     23  C   UNL     1      -1.534  11.521  19.524  0.00  0.00    +0.000 A 
BRANCH  21  24
ATOM     24  O   UNL     1      -3.945  11.948  17.001  0.00  0.00    +0.000 OA
ATOM     25  H   UNL     1      -3.854  12.911  16.958  0.00  0.00    +0.000 HD
ENDBRANCH  21  24
ENDBRANCH  16  18
ENDBRANCH  15  16
ENDBRANCH  14  15
ENDBRANCH   1  14
TORSDOF 8
ENDMDL
MODEL 3
REMARK VINA RESULT:      -7.0      4.868      7.473
REMARK  Name = 
REMARK  11 active torsions:
REMARK  status: ('A' for Active; 'I' for Inactive)
REMARK    1  A    between atoms: C_1  and  C_2
REMARK    2  A    between atoms: C_5  and  C_6
REMARK    3  A    between atoms: C_6  and  C_7
REMARK    4  A    between atoms: C_6  and  C_8
REMARK    5  A    between atoms: C_9  and  O_10
REMARK    6  A    between atoms: O_10  and  C_11
REMARK    7  A    between atoms: C_11  and  C_13
REMARK    8  A    between atoms: C_13  and  O_14
REMARK    9  A    between atoms: O_14  and  C_15
REMARK   10  A    between atoms: C_15  and  C_17
REMARK   11  A    between atoms: C_20  and  O_21
REMARK                            x       y       z     vdW  Elec       q    Type
REMARK                         _______ _______ _______ _____ _____    ______ ____
ROOT
ATOM      1  C   UNL     1       2.087   7.682  19.293  0.00  0.00    +0.000 C 
ATOM      2  O   UNL     1       1.849   7.863  20.481  0.00  0.00    +0.000 OA
ENDROOT
BRANCH   1   3
ATOM      3  O   UNL     1       2.362   6.475  18.715  0.00  0.00    +0.000 OA
BRANCH   3   9
ATOM      4  C   UNL     1       5.573   5.333  15.949  0.00  0.00    +0.000 C 
ATOM      5  C   UNL     1       4.365   5.221  16.882  0.00  0.00    +0.000 C 
ATOM      6  C   UNL     1       3.972   3.754  17.074  0.00  0.00    +0.000 C 
ATOM      7  C   UNL     1       2.814   3.592  18.056  0.00  0.00    +0.000 C 
ATOM      8  C   UNL     1       3.097   4.252  19.425  0.00  0.00    +0.000 C 
ATOM      9  C   UNL     1       3.496   5.738  19.226  0.00  0.00    +0.000 C 
ATOM     10  C   UNL     1       4.662   5.876  18.237  0.00  0.00    +0.000 C 
BRANCH   8  11
ATOM     11  C   UNL     1       1.898   4.068  20.407  0.00  0.00    +0.000 C 
ATOM     12  C   UNL     1       0.696   3.396  19.728  0.00  0.00    +0.000 C 
ATOM     13  C   UNL     1       2.269   3.226  21.635  0.00  0.00    +0.000 C 
ENDBRANCH   8  11
ENDBRANCH   3   9
ENDBRANCH   1   3
BRANCH   1  14
ATOM     14  C   UNL     1       2.162   8.792  18.251  0.00  0.00    +0.000 C 
BRANCH  14  15
ATOM     15  O   UNL     1       0.869   9.215  17.800  0.00  0.00    +0.000 OA
BRANCH  15  16
ATOM     16  C   UNL     1       0.374  10.278  18.478  0.00  0.00    +0.000 C 
ATOM     17  O   UNL     1       0.999  10.977  19.259  0.00  0.00    +0.000 OA
BRANCH  16  18
ATOM     18  C   UNL     1      -1.060  10.493  18.170  0.00  0.00    +0.000 A 
ATOM     19  C   UNL     1      -1.756   9.809  17.170  0.00  0.00    +0.000 A 
ATOM     20  C   UNL     1      -3.109  10.088  16.959  0.00  0.00    +0.000 A 
ATOM     21  C   UNL     1      -3.712  11.044  17.762  0.00  0.00    +0.000 A 
ATOM     22  N   UNL     1      -3.076  11.720  18.731  0.00  0.00    +0.000 NA
ATOM     23  C   UNL     1      -1.762  11.434  18.912  0.00  0.00    +0.000 A 
BRANCH  21  24
ATOM     24  O   UNL     1      -5.029  11.363  17.615  0.00  0.00    +0.000 OA
ATOM     25  H   UNL     1      -5.561  10.627  17.947  0.00  0.00    +0.000 HD
ENDBRANCH  21  24
ENDBRANCH  16  18
ENDBRANCH  15  16
ENDBRANCH  14  15
ENDBRANCH   1  14
TORSDOF 8
ENDMDL
MODEL 4
REMARK VINA RESULT:      -6.9      1.456      1.644
REMARK  Name = 
REMARK  11 active torsions:
REMARK  status: ('A' for Active; 'I' for Inactive)
REMARK    1  A    between atoms: C_1  and  C_2
REMARK    2  A    between atoms: C_5  and  C_6
REMARK    3  A    between atoms: C_6  and  C_7
REMARK    4  A    between atoms: C_6  and  C_8
REMARK    5  A    between atoms: C_9  and  O_10
REMARK    6  A    between atoms: O_10  and  C_11
REMARK    7  A    between atoms: C_11  and  C_13
REMARK    8  A    between atoms: C_13  and  O_14
REMARK    9  A    between atoms: O_14  and  C_15
REMARK   10  A    between atoms: C_15  and  C_17
REMARK   11  A    between atoms: C_20  and  O_21
REMARK                            x       y       z     vdW  Elec       q    Type
REMARK                         _______ _______ _______ _____ _____    ______ ____
ROOT
ATOM      1  C   UNL     1       3.594   7.116  17.435  0.00  0.00    +0.000 C 
ATOM      2  O   UNL     1       3.596   8.290  17.088  0.00  0.00    +0.000 OA
ENDROOT
BRANCH   1   3
ATOM      3  O   UNL     1       4.597   6.219  17.203  0.00  0.00    +0.000 OA
BRANCH   3   9
ATOM      4  C   UNL     1       5.308   3.830  13.590  0.00  0.00    +0.000 C 
ATOM      5  C   UNL     1       5.507   4.436  14.981  0.00  0.00    +0.000 C 
ATOM      6  C   UNL     1       6.863   4.018  15.556  0.00  0.00    +0.000 C 
ATOM      7  C   UNL     1       7.135   4.659  16.915  0.00  0.00    +0.000 C 
ATOM      8  C   UNL     1       7.022   6.201  16.878  0.00  0.00    +0.000 C 
ATOM      9  C   UNL     1       5.648   6.621  16.294  0.00  0.00    +0.000 C 
ATOM     10  C   UNL     1       5.398   5.965  14.929  0.00  0.00    +0.000 C 
BRANCH   8  11
ATOM     11  C   UNL     1       7.308   6.828  18.279  0.00  0.00    +0.000 C 
ATOM     12  C   UNL     1       7.960   5.822  19.238  0.00  0.00    +0.000 C 
ATOM     13  C   UNL     1       8.225   8.055  18.198  0.00  0.00    +0.000 C 
ENDBRANCH   8  11
ENDBRANCH   3   9
ENDBRANCH   1   3
BRANCH   1  14
ATOM     14  C   UNL     1       2.437   6.432  18.156  0.00  0.00    +0.000 C 
BRANCH  14  15
ATOM     15  O   UNL     1       2.649   6.333  19.570  0.00  0.00    +0.000 OA
BRANCH  15  16
ATOM     16  C   UNL     1       1.996   5.297  20.150  0.00  0.00    +0.000 C 
ATOM     17  O   UNL     1       1.135   5.392  21.009  0.00  0.00    +0.000 OA
BRANCH  16  18
ATOM     18  C   UNL     1       2.473   3.997  19.623  0.00  0.00    +0.000 A 
ATOM     19  C   UNL     1       1.667   3.094  18.924  0.00  0.00    +0.000 A 
ATOM     20  C   UNL     1       2.215   1.892  18.469  0.00  0.00    +0.000 A 
ATOM     21  C   UNL     1       3.553   1.642  18.734  0.00  0.00    +0.000 A 
ATOM     22  N   UNL     1       4.357   2.485  19.400  0.00  0.00    +0.000 NA
ATOM     23  C   UNL     1       3.799   3.643  19.835  0.00  0.00    +0.000 A 
BRANCH  21  24
ATOM     24  O   UNL     1       4.154   0.493  18.316  0.00  0.00    +0.000 OA
ATOM     25  H   UNL     1       3.489  -0.210  18.295  0.00  0.00    +0.000 HD
ENDBRANCH  21  24
ENDBRANCH  16  18
ENDBRANCH  15  16
ENDBRANCH  14  15
ENDBRANCH   1  14
TORSDOF 8
ENDMDL
MODEL 5
REMARK VINA RESULT:      -6.8      4.490      7.028
REMARK  Name = 
REMARK  11 active torsions:
REMARK  status: ('A' for Active; 'I' for Inactive)
REMARK    1  A    between atoms: C_1  and  C_2
REMARK    2  A    between atoms: C_5  and  C_6
REMARK    3  A    between atoms: C_6  and  C_7
REMARK    4  A    between atoms: C_6  and  C_8
REMARK    5  A    between atoms: C_9  and  O_10
REMARK    6  A    between atoms: O_10  and  C_11
REMARK    7  A    between atoms: C_11  and  C_13
REMARK    8  A    between atoms: C_13  and  O_14
REMARK    9  A    between atoms: O_14  and  C_15
REMARK   10  A    between atoms: C_15  and  C_17
REMARK   11  A    between atoms: C_20  and  O_21
REMARK                            x       y       z     vdW  Elec       q    Type
REMARK                         _______ _______ _______ _____ _____    ______ ____
ROOT
ATOM      1  C   UNL     1       2.419   6.974  19.383  0.00  0.00    +0.000 C 
ATOM      2  O   UNL     1       1.858   7.182  20.453  0.00  0.00    +0.000 OA
ENDROOT
BRANCH   1   3
ATOM      3  O   UNL     1       3.074   5.826  19.043  0.00  0.00    +0.000 OA
BRANCH   3   9
ATOM      4  C   UNL     1       0.665   2.160  18.885  0.00  0.00    +0.000 C 
ATOM      5  C   UNL     1       1.872   3.097  18.805  0.00  0.00    +0.000 C 
ATOM      6  C   UNL     1       3.099   2.345  18.284  0.00  0.00    +0.000 C 
ATOM      7  C   UNL     1       4.310   3.261  18.121  0.00  0.00    +0.000 C 
ATOM      8  C   UNL     1       4.013   4.485  17.224  0.00  0.00    +0.000 C 
ATOM      9  C   UNL     1       2.769   5.244  17.754  0.00  0.00    +0.000 C 
ATOM     10  C   UNL     1       1.565   4.304  17.910  0.00  0.00    +0.000 C 
BRANCH   8  11
ATOM     11  C   UNL     1       5.269   5.400  17.075  0.00  0.00    +0.000 C 
ATOM     12  C   UNL     1       6.572   4.642  17.362  0.00  0.00    +0.000 C 
ATOM     13  C   UNL     1       5.387   6.012  15.672  0.00  0.00    +0.000 C 
ENDBRANCH   8  11
ENDBRANCH   3   9
ENDBRANCH   1   3
BRANCH   1  14
ATOM     14  C   UNL     1       2.521   7.991  18.253  0.00  0.00    +0.000 C 
BRANCH  14  15
ATOM     15  O   UNL     1       1.261   8.598  17.939  0.00  0.00    +0.000 OA
BRANCH  15  16
ATOM     16  C   UNL     1       1.244   9.942  18.104  0.00  0.00    +0.000 C 
ATOM     17  O   UNL     1       2.228  10.659  18.194  0.00  0.00    +0.000 OA
BRANCH  16  18
ATOM     18  C   UNL     1      -0.143  10.459  18.185  0.00  0.00    +0.000 A 
ATOM     19  C   UNL     1      -1.248   9.824  17.612  0.00  0.00    +0.000 A 
ATOM     20  C   UNL     1      -2.516  10.396  17.745  0.00  0.00    +0.000 A 
ATOM     21  C   UNL     1      -2.625  11.586  18.449  0.00  0.00    +0.000 A 
ATOM     22  N   UNL     1      -1.588  12.223  19.012  0.00  0.00    +0.000 NA
ATOM     23  C   UNL     1      -0.367  11.649  18.865  0.00  0.00    +0.000 A 
BRANCH  21  24
ATOM     24  O   UNL     1      -3.831  12.197  18.621  0.00  0.00    +0.000 OA
ATOM     25  H   UNL     1      -4.066  12.151  19.559  0.00  0.00    +0.000 HD
ENDBRANCH  21  24
ENDBRANCH  16  18
ENDBRANCH  15  16
ENDBRANCH  14  15
ENDBRANCH   1  14
TORSDOF 8
ENDMDL
MODEL 6
REMARK VINA RESULT:      -6.8      4.379      7.033
REMARK  Name = 
REMARK  11 active torsions:
REMARK  status: ('A' for Active; 'I' for Inactive)
REMARK    1  A    between atoms: C_1  and  C_2
REMARK    2  A    between atoms: C_5  and  C_6
REMARK    3  A    between atoms: C_6  and  C_7
REMARK    4  A    between atoms: C_6  and  C_8
REMARK    5  A    between atoms: C_9  and  O_10
REMARK    6  A    between atoms: O_10  and  C_11
REMARK    7  A    between atoms: C_11  and  C_13
REMARK    8  A    between atoms: C_13  and  O_14
REMARK    9  A    between atoms: O_14  and  C_15
REMARK   10  A    between atoms: C_15  and  C_17
REMARK   11  A    between atoms: C_20  and  O_21
REMARK                            x       y       z     vdW  Elec       q    Type
REMARK                         _______ _______ _______ _____ _____    ______ ____
ROOT
ATOM      1  C   UNL     1       2.105   7.488  18.758  0.00  0.00    +0.000 C 
ATOM      2  O   UNL     1       1.872   8.374  17.945  0.00  0.00    +0.000 OA
ENDROOT
BRANCH   1   3
ATOM      3  O   UNL     1       2.323   6.174  18.457  0.00  0.00    +0.000 OA
BRANCH   3   9
ATOM      4  C   UNL     1       5.804   5.021  16.044  0.00  0.00    +0.000 C 
ATOM      5  C   UNL     1       4.526   4.908  16.878  0.00  0.00    +0.000 C 
ATOM      6  C   UNL     1       4.178   3.439  17.127  0.00  0.00    +0.000 C 
ATOM      7  C   UNL     1       2.947   3.281  18.017  0.00  0.00    +0.000 C 
ATOM      8  C   UNL     1       3.085   4.033  19.361  0.00  0.00    +0.000 C 
ATOM      9  C   UNL     1       3.438   5.521  19.105  0.00  0.00    +0.000 C 
ATOM     10  C   UNL     1       4.678   5.654  18.209  0.00  0.00    +0.000 C 
BRANCH   8  11
ATOM     11  C   UNL     1       1.814   3.851  20.250  0.00  0.00    +0.000 C 
ATOM     12  C   UNL     1       0.782   2.922  19.595  0.00  0.00    +0.000 C 
ATOM     13  C   UNL     1       2.142   3.278  21.635  0.00  0.00    +0.000 C 
ENDBRANCH   8  11
ENDBRANCH   3   9
ENDBRANCH   1   3
BRANCH   1  14
ATOM     14  C   UNL     1       2.148   7.694  20.267  0.00  0.00    +0.000 C 
BRANCH  14  15
ATOM     15  O   UNL     1       0.885   8.106  20.805  0.00  0.00    +0.000 OA
BRANCH  15  16
ATOM     16  C   UNL     1       0.876   9.377  21.271  0.00  0.00    +0.000 C 
ATOM     17  O   UNL     1       1.260   9.732  22.375  0.00  0.00    +0.000 OA
BRANCH  16  18
ATOM     18  C   UNL     1       0.315  10.315  20.270  0.00  0.00    +0.000 A 
ATOM     19  C   UNL     1      -0.862  10.082  19.554  0.00  0.00    +0.000 A 
ATOM     20  C   UNL     1      -1.304  11.033  18.630  0.00  0.00    +0.000 A 
ATOM     21  C   UNL     1      -0.547  12.181  18.460  0.00  0.00    +0.000 A 
ATOM     22  N   UNL     1       0.587  12.439  19.130  0.00  0.00    +0.000 NA
ATOM     23  C   UNL     1       0.998  11.499  20.018  0.00  0.00    +0.000 A 
BRANCH  21  24
ATOM     24  O   UNL     1      -0.921  13.152  17.579  0.00  0.00    +0.000 OA
ATOM     25  H   UNL     1      -0.157  13.719  17.406  0.00  0.00    +0.000 HD
ENDBRANCH  21  24
ENDBRANCH  16  18
ENDBRANCH  15  16
ENDBRANCH  14  15
ENDBRANCH   1  14
TORSDOF 8
ENDMDL
MODEL 7
REMARK VINA RESULT:      -6.7      4.232      6.474
REMARK  Name = 
REMARK  11 active torsions:
REMARK  status: ('A' for Active; 'I' for Inactive)
REMARK    1  A    between atoms: C_1  and  C_2
REMARK    2  A    between atoms: C_5  and  C_6
REMARK    3  A    between atoms: C_6  and  C_7
REMARK    4  A    between atoms: C_6  and  C_8
REMARK    5  A    between atoms: C_9  and  O_10
REMARK    6  A    between atoms: O_10  and  C_11
REMARK    7  A    between atoms: C_11  and  C_13
REMARK    8  A    between atoms: C_13  and  O_14
REMARK    9  A    between atoms: O_14  and  C_15
REMARK   10  A    between atoms: C_15  and  C_17
REMARK   11  A    between atoms: C_20  and  O_21
REMARK                            x       y       z     vdW  Elec       q    Type
REMARK                         _______ _______ _______ _____ _____    ______ ____
ROOT
ATOM      1  C   UNL     1       2.531   6.765  19.356  0.00  0.00    +0.000 C 
ATOM      2  O   UNL     1       1.890   6.777  20.400  0.00  0.00    +0.000 OA
ENDROOT
BRANCH   1   3
ATOM      3  O   UNL     1       3.264   5.711  18.890  0.00  0.00    +0.000 OA
BRANCH   3   9
ATOM      4  C   UNL     1       0.632   2.200  18.811  0.00  0.00    +0.000 C 
ATOM      5  C   UNL     1       1.890   3.061  18.692  0.00  0.00    +0.000 C 
ATOM      6  C   UNL     1       3.052   2.236  18.132  0.00  0.00    +0.000 C 
ATOM      7  C   UNL     1       4.311   3.077  17.930  0.00  0.00    +0.000 C 
ATOM      8  C   UNL     1       4.060   4.318  17.042  0.00  0.00    +0.000 C 
ATOM      9  C   UNL     1       2.883   5.151  17.612  0.00  0.00    +0.000 C 
ATOM     10  C   UNL     1       1.629   4.286  17.806  0.00  0.00    +0.000 C 
BRANCH   8  11
ATOM     11  C   UNL     1       5.364   5.156  16.852  0.00  0.00    +0.000 C 
ATOM     12  C   UNL     1       6.499   4.323  16.238  0.00  0.00    +0.000 C 
ATOM     13  C   UNL     1       5.149   6.382  15.954  0.00  0.00    +0.000 C 
ENDBRANCH   8  11
ENDBRANCH   3   9
ENDBRANCH   1   3
BRANCH   1  14
ATOM     14  C   UNL     1       2.658   7.952  18.409  0.00  0.00    +0.000 C 
BRANCH  14  15
ATOM     15  O   UNL     1       1.433   8.685  18.274  0.00  0.00    +0.000 OA
BRANCH  15  16
ATOM     16  C   UNL     1       1.565  10.016  18.487  0.00  0.00    +0.000 C 
ATOM     17  O   UNL     1       2.160  10.796  17.761  0.00  0.00    +0.000 OA
BRANCH  16  18
ATOM     18  C   UNL     1       0.902  10.429  19.747  0.00  0.00    +0.000 A 
ATOM     19  C   UNL     1       0.010   9.625  20.461  0.00  0.00    +0.000 A 
ATOM     20  C   UNL     1      -0.562  10.110  21.640  0.00  0.00    +0.000 A 
ATOM     21  C   UNL     1      -0.217  11.387  22.056  0.00  0.00    +0.000 A 
ATOM     22  N   UNL     1       0.635  12.187  21.397  0.00  0.00    +0.000 NA
ATOM     23  C   UNL     1       1.174  11.694  20.253  0.00  0.00    +0.000 A 
BRANCH  21  24
ATOM     24  O   UNL     1      -0.734  11.923  23.198  0.00  0.00    +0.000 OA
ATOM     25  H   UNL     1      -1.029  11.199  23.768  0.00  0.00    +0.000 HD
ENDBRANCH  21  24
ENDBRANCH  16  18
ENDBRANCH  15  16
ENDBRANCH  14  15
ENDBRANCH   1  14
TORSDOF 8
ENDMDL
MODEL 8
REMARK VINA RESULT:      -6.7      5.081      7.265
REMARK  Name = 
REMARK  11 active torsions:
REMARK  status: ('A' for Active; 'I' for Inactive)
REMARK    1  A    between atoms: C_1  and  C_2
REMARK    2  A    between atoms: C_5  and  C_6
REMARK    3  A    between atoms: C_6  and  C_7
REMARK    4  A    between atoms: C_6  and  C_8
REMARK    5  A    between atoms: C_9  and  O_10
REMARK    6  A    between atoms: O_10  and  C_11
REMARK    7  A    between atoms: C_11  and  C_13
REMARK    8  A    between atoms: C_13  and  O_14
REMARK    9  A    between atoms: O_14  and  C_15
REMARK   10  A    between atoms: C_15  and  C_17
REMARK   11  A    between atoms: C_20  and  O_21
REMARK                            x       y       z     vdW  Elec       q    Type
REMARK                         _______ _______ _______ _____ _____    ______ ____
ROOT
ATOM      1  C   UNL     1       2.158   7.876  18.295  0.00  0.00    +0.000 C 
ATOM      2  O   UNL     1       2.250   8.824  17.525  0.00  0.00    +0.000 OA
ENDROOT
BRANCH   1   3
ATOM      3  O   UNL     1       2.310   6.562  17.956  0.00  0.00    +0.000 OA
BRANCH   3   9
ATOM      4  C   UNL     1       6.216   5.655  16.170  0.00  0.00    +0.000 C 
ATOM      5  C   UNL     1       4.792   5.466  16.696  0.00  0.00    +0.000 C 
ATOM      6  C   UNL     1       4.397   3.988  16.648  0.00  0.00    +0.000 C 
ATOM      7  C   UNL     1       3.007   3.743  17.232  0.00  0.00    +0.000 C 
ATOM      8  C   UNL     1       2.862   4.289  18.671  0.00  0.00    +0.000 C 
ATOM      9  C   UNL     1       3.264   5.786  18.716  0.00  0.00    +0.000 C 
ATOM     10  C   UNL     1       4.664   6.007  18.126  0.00  0.00    +0.000 C 
BRANCH   8  11
ATOM     11  C   UNL     1       1.433   4.022  19.241  0.00  0.00    +0.000 C 
ATOM     12  C   UNL     1       0.930   2.613  18.900  0.00  0.00    +0.000 C 
ATOM     13  C   UNL     1       1.369   4.183  20.766  0.00  0.00    +0.000 C 
ENDBRANCH   8  11
ENDBRANCH   3   9
ENDBRANCH   1   3
BRANCH   1  14
ATOM     14  C   UNL     1       1.810   7.998  19.774  0.00  0.00    +0.000 C 
BRANCH  14  15
ATOM     15  O   UNL     1       0.961   9.120  20.051  0.00  0.00    +0.000 OA
BRANCH  15  16
ATOM     16  C   UNL     1       0.886   9.439  21.365  0.00  0.00    +0.000 C 
ATOM     17  O   UNL     1       1.586   8.974  22.250  0.00  0.00    +0.000 OA
BRANCH  16  18
ATOM     18  C   UNL     1      -0.186  10.431  21.619  0.00  0.00    +0.000 A 
ATOM     19  C   UNL     1      -0.780  10.639  22.867  0.00  0.00    +0.000 A 
ATOM     20  C   UNL     1      -1.785  11.601  22.999  0.00  0.00    +0.000 A 
ATOM     21  C   UNL     1      -2.156  12.317  21.871  0.00  0.00    +0.000 A 
ATOM     22  N   UNL     1      -1.608  12.145  20.658  0.00  0.00    +0.000 NA
ATOM     23  C   UNL     1      -0.638  11.202  20.555  0.00  0.00    +0.000 A 
BRANCH  21  24
ATOM     24  O   UNL     1      -3.125  13.273  21.928  0.00  0.00    +0.000 OA
ATOM     25  H   UNL     1      -3.048  13.835  21.144  0.00  0.00    +0.000 HD
ENDBRANCH  21  24
ENDBRANCH  16  18
ENDBRANCH  15  16
ENDBRANCH  14  15
ENDBRANCH   1  14
TORSDOF 8
ENDMDL
MODEL 9
REMARK VINA RESULT:      -6.7      2.491      6.315
REMARK  Name = 
REMARK  11 active torsions:
REMARK  status: ('A' for Active; 'I' for Inactive)
REMARK    1  A    between atoms: C_1  and  C_2
REMARK    2  A    between atoms: C_5  and  C_6
REMARK    3  A    between atoms: C_6  and  C_7
REMARK    4  A    between atoms: C_6  and  C_8
REMARK    5  A    between atoms: C_9  and  O_10
REMARK    6  A    between atoms: O_10  and  C_11
REMARK    7  A    between atoms: C_11  and  C_13
REMARK    8  A    between atoms: C_13  and  O_14
REMARK    9  A    between atoms: O_14  and  C_15
REMARK   10  A    between atoms: C_15  and  C_17
REMARK   11  A    between atoms: C_20  and  O_21
REMARK                            x       y       z     vdW  Elec       q    Type
REMARK                         _______ _______ _______ _____ _____    ______ ____
ROOT
ATOM      1  C   UNL     1       5.088   6.811  17.009  0.00  0.00    +0.000 C 
ATOM      2  O   UNL     1       4.609   7.109  15.921  0.00  0.00    +0.000 OA
ENDROOT
BRANCH   1   3
ATOM      3  O   UNL     1       4.403   6.248  18.048  0.00  0.00    +0.000 OA
BRANCH   3   9
ATOM      4  C   UNL     1       1.353   8.512  20.248  0.00  0.00    +0.000 C 
ATOM      5  C   UNL     1       2.260   7.358  19.815  0.00  0.00    +0.000 C 
ATOM      6  C   UNL     1       1.901   6.081  20.579  0.00  0.00    +0.000 C 
ATOM      7  C   UNL     1       2.736   4.885  20.126  0.00  0.00    +0.000 C 
ATOM      8  C   UNL     1       2.645   4.640  18.602  0.00  0.00    +0.000 C 
ATOM      9  C   UNL     1       3.007   5.935  17.831  0.00  0.00    +0.000 C 
ATOM     10  C   UNL     1       2.156   7.123  18.303  0.00  0.00    +0.000 C 
BRANCH   8  11
ATOM     11  C   UNL     1       3.505   3.410  18.170  0.00  0.00    +0.000 C 
ATOM     12  C   UNL     1       4.401   2.905  19.309  0.00  0.00    +0.000 C 
ATOM     13  C   UNL     1       2.647   2.230  17.695  0.00  0.00    +0.000 C 
ENDBRANCH   8  11
ENDBRANCH   3   9
ENDBRANCH   1   3
BRANCH   1  14
ATOM     14  C   UNL     1       6.537   7.061  17.410  0.00  0.00    +0.000 C 
BRANCH  14  15
ATOM     15  O   UNL     1       7.472   6.517  16.470  0.00  0.00    +0.000 OA
BRANCH  15  16
ATOM     16  C   UNL     1       7.478   5.163  16.424  0.00  0.00    +0.000 C 
ATOM     17  O   UNL     1       7.854   4.424  17.319  0.00  0.00    +0.000 OA
BRANCH  16  18
ATOM     18  C   UNL     1       6.980   4.666  15.120  0.00  0.00    +0.000 A 
ATOM     19  C   UNL     1       7.552   4.992  13.888  0.00  0.00    +0.000 A 
ATOM     20  C   UNL     1       7.004   4.469  12.714  0.00  0.00    +0.000 A 
ATOM     21  C   UNL     1       5.900   3.638  12.823  0.00  0.00    +0.000 A 
ATOM     22  N   UNL     1       5.324   3.302  13.987  0.00  0.00    +0.000 NA
ATOM     23  C   UNL     1       5.873   3.827  15.112  0.00  0.00    +0.000 A 
BRANCH  21  24
ATOM     24  O   UNL     1       5.316   3.089  11.720  0.00  0.00    +0.000 OA
ATOM     25  H   UNL     1       4.746   3.756  11.312  0.00  0.00    +0.000 HD
ENDBRANCH  21  24
ENDBRANCH  16  18
ENDBRANCH  15  16
ENDBRANCH  14  15
ENDBRANCH   1  14
TORSDOF 8
ENDMDL
