MODEL 1
REMARK VINA RESULT:      -5.0      0.000      0.000
REMARK  Name = 
REMARK  3 active torsions:
REMARK  status: ('A' for Active; 'I' for Inactive)
REMARK    1  A    between atoms: N_4  and  C_5
REMARK    2  A    between atoms: C_5  and  C_6
REMARK    3  A    between atoms: C_6  and  N_7
REMARK                            x       y       z     vdW  Elec       q    Type
REMARK                         _______ _______ _______ _____ _____    ______ ____
ROOT
ATOM      1  C   UNL     1       5.214   5.475  18.532  0.00  0.00    +0.000 C 
ENDROOT
BRANCH   1   5
ATOM      2  N   UNL     1       7.833   6.652  18.655  0.00  0.00    +0.000 NA
ATOM      3  C   UNL     1       7.556   5.693  19.465  0.00  0.00    +0.000 C 
ATOM      4  N   UNL     1       8.548   5.222  20.365  0.00  0.00    +0.000 N 
ATOM      5  N   UNL     1       6.259   5.092  19.463  0.00  0.00    +0.000 N 
ATOM      6  H   UNL     1       8.763   7.097  18.641  0.00  0.00    +0.000 HD
ATOM      7  H   UNL     1       9.493   5.635  20.372  0.00  0.00    +0.000 HD
ATOM      8  H   UNL     1       8.342   4.452  21.014  0.00  0.00    +0.000 HD
ATOM      9  H   UNL     1       6.063   4.332  20.130  0.00  0.00    +0.000 HD
ENDBRANCH   1   5
BRANCH   1  10
ATOM     10  C   UNL     1       5.062   4.430  17.423  0.00  0.00    +0.000 C 
BRANCH  10  11
ATOM     11  N   UNL     1       5.641   4.927  16.188  0.00  0.00    +0.000 N 
ATOM     12  C   UNL     1       7.015   4.761  15.835  0.00  0.00    +0.000 C 
ATOM     13  N   UNL     1       7.851   4.177  16.620  0.00  0.00    +0.000 NA
ATOM     14  N   UNL     1       7.469   5.251  14.585  0.00  0.00    +0.000 N 
ATOM     15  H   UNL     1       5.032   5.412  15.510  0.00  0.00    +0.000 HD
ATOM     16  H   UNL     1       7.589   3.799  17.540  0.00  0.00    +0.000 HD
ATOM     17  H   UNL     1       6.816   5.716  13.936  0.00  0.00    +0.000 HD
ATOM     18  H   UNL     1       8.455   5.142  14.306  0.00  0.00    +0.000 HD
ENDBRANCH  10  11
ENDBRANCH   1  10
TORSDOF 3
ENDMDL
MODEL 2
REMARK VINA RESULT:      -4.9      2.453      4.288
REMARK  Name = 
REMARK  3 active torsions:
REMARK  status: ('A' for Active; 'I' for Inactive)
REMARK    1  A    between atoms: N_4  and  C_5
REMARK    2  A    between atoms: C_5  and  C_6
REMARK    3  A    between atoms: C_6  and  N_7
REMARK                            x       y       z     vdW  Elec       q    Type
REMARK                         _______ _______ _______ _____ _____    ______ ____
ROOT
ATOM      1  C   UNL     1       3.821   4.545  19.360  0.00  0.00    +0.000 C 
ENDROOT
BRANCH   1   5
ATOM      2  N   UNL     1       4.936   2.010  20.126  0.00  0.00    +0.000 NA
ATOM      3  C   UNL     1       4.163   2.052  19.099  0.00  0.00    +0.000 C 
ATOM      4  N   UNL     1       3.909   0.867  18.359  0.00  0.00    +0.000 N 
ATOM      5  N   UNL     1       3.561   3.284  18.693  0.00  0.00    +0.000 N 
ATOM      6  H   UNL     1       5.380   1.131  20.433  0.00  0.00    +0.000 HD
ATOM      7  H   UNL     1       4.344  -0.027  18.629  0.00  0.00    +0.000 HD
ATOM      8  H   UNL     1       3.297   0.888  17.533  0.00  0.00    +0.000 HD
ATOM      9  H   UNL     1       2.938   3.285  17.874  0.00  0.00    +0.000 HD
ENDBRANCH   1   5
BRANCH   1  10
ATOM     10  C   UNL     1       5.027   5.254  18.736  0.00  0.00    +0.000 C 
BRANCH  10  11
ATOM     11  N   UNL     1       6.221   4.987  19.517  0.00  0.00    +0.000 N 
ATOM     12  C   UNL     1       7.467   5.653  19.308  0.00  0.00    +0.000 C 
ATOM     13  N   UNL     1       7.623   6.526  18.375  0.00  0.00    +0.000 NA
ATOM     14  N   UNL     1       8.563   5.345  20.154  0.00  0.00    +0.000 N 
ATOM     15  H   UNL     1       6.176   4.294  20.279  0.00  0.00    +0.000 HD
ATOM     16  H   UNL     1       6.870   6.796  17.727  0.00  0.00    +0.000 HD
ATOM     17  H   UNL     1       8.461   4.654  20.912  0.00  0.00    +0.000 HD
ATOM     18  H   UNL     1       9.472   5.813  20.025  0.00  0.00    +0.000 HD
ENDBRANCH  10  11
ENDBRANCH   1  10
TORSDOF 3
ENDMDL
MODEL 3
REMARK VINA RESULT:      -4.8      2.573      4.027
REMARK  Name = 
REMARK  3 active torsions:
REMARK  status: ('A' for Active; 'I' for Inactive)
REMARK    1  A    between atoms: N_4  and  C_5
REMARK    2  A    between atoms: C_5  and  C_6
REMARK    3  A    between atoms: C_6  and  N_7
REMARK                            x       y       z     vdW  Elec       q    Type
REMARK                         _______ _______ _______ _____ _____    ______ ____
ROOT
ATOM      1  C   UNL     1       5.969   5.108  19.146  0.00  0.00    +0.000 C 
ENDROOT
BRANCH   1   5
ATOM      2  N   UNL     1       8.007   4.174  17.348  0.00  0.00    +0.000 NA
ATOM      3  C   UNL     1       7.179   5.061  16.924  0.00  0.00    +0.000 C 
ATOM      4  N   UNL     1       7.310   5.576  15.607  0.00  0.00    +0.000 N 
ATOM      5  N   UNL     1       6.130   5.539  17.770  0.00  0.00    +0.000 N 
ATOM      6  H   UNL     1       8.771   3.818  16.752  0.00  0.00    +0.000 HD
ATOM      7  H   UNL     1       8.067   5.253  14.987  0.00  0.00    +0.000 HD
ATOM      8  H   UNL     1       6.658   6.290  15.258  0.00  0.00    +0.000 HD
ATOM      9  H   UNL     1       5.475   6.242  17.401  0.00  0.00    +0.000 HD
ENDBRANCH   1   5
BRANCH   1  10
ATOM     10  C   UNL     1       4.621   4.408  19.343  0.00  0.00    +0.000 C 
BRANCH  10  11
ATOM     11  N   UNL     1       4.775   2.974  19.175  0.00  0.00    +0.000 N 
ATOM     12  C   UNL     1       3.808   2.146  18.527  0.00  0.00    +0.000 C 
ATOM     13  N   UNL     1       2.703   2.623  18.071  0.00  0.00    +0.000 NA
ATOM     14  N   UNL     1       4.074   0.762  18.381  0.00  0.00    +0.000 N 
ATOM     15  H   UNL     1       5.633   2.519  19.522  0.00  0.00    +0.000 HD
ATOM     16  H   UNL     1       2.447   3.617  18.143  0.00  0.00    +0.000 HD
ATOM     17  H   UNL     1       4.955   0.358  18.733  0.00  0.00    +0.000 HD
ATOM     18  H   UNL     1       3.394   0.143  17.916  0.00  0.00    +0.000 HD
ENDBRANCH  10  11
ENDBRANCH   1  10
TORSDOF 3
ENDMDL
MODEL 4
REMARK VINA RESULT:      -4.8     11.159     12.927
REMARK  Name = 
REMARK  3 active torsions:
REMARK  status: ('A' for Active; 'I' for Inactive)
REMARK    1  A    between atoms: N_4  and  C_5
REMARK    2  A    between atoms: C_5  and  C_6
REMARK    3  A    between atoms: C_6  and  N_7
REMARK                            x       y       z     vdW  Elec       q    Type
REMARK                         _______ _______ _______ _____ _____    ______ ____
ROOT
ATOM      1  C   UNL     1      -3.347  10.073  14.129  0.00  0.00    +0.000 C 
ENDROOT
BRANCH   1   5
ATOM      2  N   UNL     1      -3.608   9.773  11.283  0.00  0.00    +0.000 NA
ATOM      3  C   UNL     1      -4.673   9.725  12.002  0.00  0.00    +0.000 C 
ATOM      4  N   UNL     1      -5.938   9.561  11.379  0.00  0.00    +0.000 N 
ATOM      5  N   UNL     1      -4.594   9.841  13.425  0.00  0.00    +0.000 N 
ATOM      6  H   UNL     1      -3.646   9.692  10.255  0.00  0.00    +0.000 HD
ATOM      7  H   UNL     1      -6.016   9.488  10.354  0.00  0.00    +0.000 HD
ATOM      8  H   UNL     1      -6.798   9.526  11.942  0.00  0.00    +0.000 HD
ATOM      9  H   UNL     1      -5.462   9.788  13.976  0.00  0.00    +0.000 HD
ENDBRANCH   1   5
BRANCH   1  10
ATOM     10  C   UNL     1      -3.610  10.526  15.568  0.00  0.00    +0.000 C 
BRANCH  10  11
ATOM     11  N   UNL     1      -2.606  11.492  15.977  0.00  0.00    +0.000 N 
ATOM     12  C   UNL     1      -2.141  11.628  17.321  0.00  0.00    +0.000 C 
ATOM     13  N   UNL     1      -2.615  10.910  18.279  0.00  0.00    +0.000 NA
ATOM     14  N   UNL     1      -1.128  12.577  17.607  0.00  0.00    +0.000 N 
ATOM     15  H   UNL     1      -2.184  12.107  15.265  0.00  0.00    +0.000 HD
ATOM     16  H   UNL     1      -3.350  10.204  18.142  0.00  0.00    +0.000 HD
ATOM     17  H   UNL     1      -0.728  13.158  16.855  0.00  0.00    +0.000 HD
ATOM     18  H   UNL     1      -0.774  12.693  18.567  0.00  0.00    +0.000 HD
ENDBRANCH  10  11
ENDBRANCH   1  10
TORSDOF 3
ENDMDL
MODEL 5
REMARK VINA RESULT:      -4.8      1.753      3.129
REMARK  Name = 
REMARK  3 active torsions:
REMARK  status: ('A' for Active; 'I' for Inactive)
REMARK    1  A    between atoms: N_4  and  C_5
REMARK    2  A    between atoms: C_5  and  C_6
REMARK    3  A    between atoms: C_6  and  N_7
REMARK                            x       y       z     vdW  Elec       q    Type
REMARK                         _______ _______ _______ _____ _____    ______ ____
ROOT
ATOM      1  C   UNL     1       5.470   4.444  16.389  0.00  0.00    +0.000 C 
ENDROOT
BRANCH   1   5
ATOM      2  N   UNL     1       4.877   4.983  19.148  0.00  0.00    +0.000 NA
ATOM      3  C   UNL     1       5.017   3.759  18.782  0.00  0.00    +0.000 C 
ATOM      4  N   UNL     1       4.911   2.719  19.742  0.00  0.00    +0.000 N 
ATOM      5  N   UNL     1       5.287   3.436  17.416  0.00  0.00    +0.000 N 
ATOM      6  H   UNL     1       4.684   5.235  20.130  0.00  0.00    +0.000 HD
ATOM      7  H   UNL     1       4.730   2.933  20.734  0.00  0.00    +0.000 HD
ATOM      8  H   UNL     1       5.027   1.736  19.464  0.00  0.00    +0.000 HD
ATOM      9  H   UNL     1       5.384   2.446  17.149  0.00  0.00    +0.000 HD
ENDBRANCH   1   5
BRANCH   1  10
ATOM     10  C   UNL     1       6.957   4.757  16.191  0.00  0.00    +0.000 C 
BRANCH  10  11
ATOM     11  N   UNL     1       7.177   6.190  16.253  0.00  0.00    +0.000 N 
ATOM     12  C   UNL     1       7.532   6.885  17.449  0.00  0.00    +0.000 C 
ATOM     13  N   UNL     1       7.651   6.277  18.578  0.00  0.00    +0.000 NA
ATOM     14  N   UNL     1       7.764   8.282  17.391  0.00  0.00    +0.000 N 
ATOM     15  H   UNL     1       7.094   6.747  15.388  0.00  0.00    +0.000 HD
ATOM     16  H   UNL     1       7.497   5.266  18.690  0.00  0.00    +0.000 HD
ATOM     17  H   UNL     1       7.682   8.790  16.498  0.00  0.00    +0.000 HD
ATOM     18  H   UNL     1       8.023   8.807  18.240  0.00  0.00    +0.000 HD
ENDBRANCH  10  11
ENDBRANCH   1  10
TORSDOF 3
ENDMDL
MODEL 6
REMARK VINA RESULT:      -4.8      2.671      3.848
REMARK  Name = 
REMARK  3 active torsions:
REMARK  status: ('A' for Active; 'I' for Inactive)
REMARK    1  A    between atoms: N_4  and  C_5
REMARK    2  A    between atoms: C_5  and  C_6
REMARK    3  A    between atoms: C_6  and  N_7
REMARK                            x       y       z     vdW  Elec       q    Type
REMARK                         _______ _______ _______ _____ _____    ______ ____
ROOT
ATOM      1  C   UNL     1       4.062   5.376  17.873  0.00  0.00    +0.000 C 
ENDROOT
BRANCH   1   5
ATOM      2  N   UNL     1       6.039   3.820  16.486  0.00  0.00    +0.000 NA
ATOM      3  C   UNL     1       6.403   4.480  17.528  0.00  0.00    +0.000 C 
ATOM      4  N   UNL     1       7.745   4.398  17.982  0.00  0.00    +0.000 N 
ATOM      5  N   UNL     1       5.463   5.291  18.238  0.00  0.00    +0.000 N 
ATOM      6  H   UNL     1       6.703   3.229  15.962  0.00  0.00    +0.000 HD
ATOM      7  H   UNL     1       8.434   3.809  17.491  0.00  0.00    +0.000 HD
ATOM      8  H   UNL     1       8.048   4.916  18.817  0.00  0.00    +0.000 HD
ATOM      9  H   UNL     1       5.784   5.816  19.063  0.00  0.00    +0.000 HD
ENDBRANCH   1   5
BRANCH   1  10
ATOM     10  C   UNL     1       3.205   4.504  18.796  0.00  0.00    +0.000 C 
BRANCH  10  11
ATOM     11  N   UNL     1       3.216   3.128  18.333  0.00  0.00    +0.000 N 
ATOM     12  C   UNL     1       4.026   2.105  18.913  0.00  0.00    +0.000 C 
ATOM     13  N   UNL     1       4.839   2.350  19.881  0.00  0.00    +0.000 NA
ATOM     14  N   UNL     1       3.932   0.783  18.409  0.00  0.00    +0.000 N 
ATOM     15  H   UNL     1       2.595   2.857  17.554  0.00  0.00    +0.000 HD
ATOM     16  H   UNL     1       4.956   3.285  20.293  0.00  0.00    +0.000 HD
ATOM     17  H   UNL     1       3.284   0.561  17.639  0.00  0.00    +0.000 HD
ATOM     18  H   UNL     1       4.505   0.027  18.811  0.00  0.00    +0.000 HD
ENDBRANCH  10  11
ENDBRANCH   1  10
TORSDOF 3
ENDMDL
MODEL 7
REMARK VINA RESULT:      -4.8      3.952      5.246
REMARK  Name = 
REMARK  3 active torsions:
REMARK  status: ('A' for Active; 'I' for Inactive)
REMARK    1  A    between atoms: N_4  and  C_5
REMARK    2  A    between atoms: C_5  and  C_6
REMARK    3  A    between atoms: C_6  and  N_7
REMARK                            x       y       z     vdW  Elec       q    Type
REMARK                         _______ _______ _______ _____ _____    ______ ____
ROOT
ATOM      1  C   UNL     1       2.264   5.771  20.148  0.00  0.00    +0.000 C 
ENDROOT
BRANCH   1   5
ATOM      2  N   UNL     1       0.696   3.363  20.173  0.00  0.00    +0.000 NA
ATOM      3  C   UNL     1       1.527   3.560  21.134  0.00  0.00    +0.000 C 
ATOM      4  N   UNL     1       1.625   2.614  22.187  0.00  0.00    +0.000 N 
ATOM      5  N   UNL     1       2.350   4.729  21.154  0.00  0.00    +0.000 N 
ATOM      6  H   UNL     1       0.093   2.526  20.142  0.00  0.00    +0.000 HD
ATOM      7  H   UNL     1       1.030   1.771  22.196  0.00  0.00    +0.000 HD
ATOM      8  H   UNL     1       2.281   2.762  22.964  0.00  0.00    +0.000 HD
ATOM      9  H   UNL     1       3.014   4.856  21.930  0.00  0.00    +0.000 HD
ENDBRANCH   1   5
BRANCH   1  10
ATOM     10  C   UNL     1       3.425   5.666  19.154  0.00  0.00    +0.000 C 
BRANCH  10  11
ATOM     11  N   UNL     1       3.327   4.428  18.403  0.00  0.00    +0.000 N 
ATOM     12  C   UNL     1       4.266   3.358  18.515  0.00  0.00    +0.000 C 
ATOM     13  N   UNL     1       5.298   3.438  19.281  0.00  0.00    +0.000 NA
ATOM     14  N   UNL     1       4.056   2.174  17.763  0.00  0.00    +0.000 N 
ATOM     15  H   UNL     1       2.529   4.293  17.762  0.00  0.00    +0.000 HD
ATOM     16  H   UNL     1       5.511   4.266  19.852  0.00  0.00    +0.000 HD
ATOM     17  H   UNL     1       3.233   2.084  17.148  0.00  0.00    +0.000 HD
ATOM     18  H   UNL     1       4.718   1.388  17.827  0.00  0.00    +0.000 HD
ENDBRANCH  10  11
ENDBRANCH   1  10
TORSDOF 3
ENDMDL
MODEL 8
REMARK VINA RESULT:      -4.8      4.034      5.346
REMARK  Name = 
REMARK  3 active torsions:
REMARK  status: ('A' for Active; 'I' for Inactive)
REMARK    1  A    between atoms: N_4  and  C_5
REMARK    2  A    between atoms: C_5  and  C_6
REMARK    3  A    between atoms: C_6  and  N_7
REMARK                            x       y       z     vdW  Elec       q    Type
REMARK                         _______ _______ _______ _____ _____    ______ ____
ROOT
ATOM      1  C   UNL     1       1.470   2.895  18.376  0.00  0.00    +0.000 C 
ENDROOT
BRANCH   1   5
ATOM      2  N   UNL     1       1.476   4.453  20.791  0.00  0.00    +0.000 NA
ATOM      3  C   UNL     1       1.511   3.172  20.891  0.00  0.00    +0.000 C 
ATOM      4  N   UNL     1       1.585   2.567  22.173  0.00  0.00    +0.000 N 
ATOM      5  N   UNL     1       1.483   2.351  19.721  0.00  0.00    +0.000 N 
ATOM      6  H   UNL     1       1.497   5.062  21.624  0.00  0.00    +0.000 HD
ATOM      7  H   UNL     1       1.619   3.142  23.027  0.00  0.00    +0.000 HD
ATOM      8  H   UNL     1       1.619   1.544  22.267  0.00  0.00    +0.000 HD
ATOM      9  H   UNL     1       1.501   1.327  19.832  0.00  0.00    +0.000 HD
ENDBRANCH   1   5
BRANCH   1  10
ATOM     10  C   UNL     1       2.791   2.602  17.658  0.00  0.00    +0.000 C 
BRANCH  10  11
ATOM     11  N   UNL     1       3.779   3.608  18.000  0.00  0.00    +0.000 N 
ATOM     12  C   UNL     1       4.775   3.429  19.008  0.00  0.00    +0.000 C 
ATOM     13  N   UNL     1       4.841   2.354  19.713  0.00  0.00    +0.000 NA
ATOM     14  N   UNL     1       5.718   4.463  19.236  0.00  0.00    +0.000 N 
ATOM     15  H   UNL     1       3.784   4.500  17.481  0.00  0.00    +0.000 HD
ATOM     16  H   UNL     1       4.189   1.567  19.600  0.00  0.00    +0.000 HD
ATOM     17  H   UNL     1       5.690   5.330  18.679  0.00  0.00    +0.000 HD
ATOM     18  H   UNL     1       6.447   4.357  19.956  0.00  0.00    +0.000 HD
ENDBRANCH  10  11
ENDBRANCH   1  10
TORSDOF 3
ENDMDL
MODEL 9
REMARK VINA RESULT:      -4.8      1.944      4.449
REMARK  Name = 
REMARK  3 active torsions:
REMARK  status: ('A' for Active; 'I' for Inactive)
REMARK    1  A    between atoms: N_4  and  C_5
REMARK    2  A    between atoms: C_5  and  C_6
REMARK    3  A    between atoms: C_6  and  N_7
REMARK                            x       y       z     vdW  Elec       q    Type
REMARK                         _______ _______ _______ _____ _____    ______ ____
ROOT
ATOM      1  C   UNL     1       7.303   4.750  17.455  0.00  0.00    +0.000 C 
ENDROOT
BRANCH   1   5
ATOM      2  N   UNL     1       7.567   5.440  14.679  0.00  0.00    +0.000 NA
ATOM      3  C   UNL     1       6.883   4.396  14.986  0.00  0.00    +0.000 C 
ATOM      4  N   UNL     1       6.254   3.639  13.962  0.00  0.00    +0.000 N 
ATOM      5  N   UNL     1       6.744   3.995  16.350  0.00  0.00    +0.000 N 
ATOM      6  H   UNL     1       7.677   5.746  13.700  0.00  0.00    +0.000 HD
ATOM      7  H   UNL     1       6.333   3.921  12.974  0.00  0.00    +0.000 HD
ATOM      8  H   UNL     1       5.700   2.805  14.194  0.00  0.00    +0.000 HD
ATOM      9  H   UNL     1       6.198   3.148  16.566  0.00  0.00    +0.000 HD
ENDBRANCH   1   5
BRANCH   1  10
ATOM     10  C   UNL     1       6.226   5.074  18.494  0.00  0.00    +0.000 C 
BRANCH  10  11
ATOM     11  N   UNL     1       5.755   3.852  19.122  0.00  0.00    +0.000 N 
ATOM     12  C   UNL     1       4.558   3.176  18.738  0.00  0.00    +0.000 C 
ATOM     13  N   UNL     1       3.788   3.632  17.812  0.00  0.00    +0.000 NA
ATOM     14  N   UNL     1       4.209   1.967  19.391  0.00  0.00    +0.000 N 
ATOM     15  H   UNL     1       6.317   3.430  19.878  0.00  0.00    +0.000 HD
ATOM     16  H   UNL     1       3.981   4.502  17.299  0.00  0.00    +0.000 HD
ATOM     17  H   UNL     1       4.813   1.578  20.130  0.00  0.00    +0.000 HD
ATOM     18  H   UNL     1       3.351   1.459  19.131  0.00  0.00    +0.000 HD
ENDBRANCH  10  11
ENDBRANCH   1  10
TORSDOF 3
ENDMDL
