MODEL 1
REMARK VINA RESULT:      -7.7      0.000      0.000
REMARK  Name = 
REMARK  2 active torsions:
REMARK  status: ('A' for Active; 'I' for Inactive)
REMARK    1  A    between atoms: S_1  and  C_2
REMARK    2  A    between atoms: C_5  and  C_6
REMARK                            x       y       z     vdW  Elec       q    Type
REMARK                         _______ _______ _______ _____ _____    ______ ____
ROOT
ATOM      1  C   UNL     1       2.705   3.405  20.384  0.00  0.00    +0.000 A 
ATOM      2  N   UNL     1       3.469   2.491  19.758  0.00  0.00    +0.000 NA
ATOM      3  N   UNL     1       4.235   2.850  18.687  0.00  0.00    +0.000 NA
ATOM      4  C   UNL     1       4.224   4.119  18.208  0.00  0.00    +0.000 A 
ATOM      5  C   UNL     1       3.398   5.108  18.798  0.00  0.00    +0.000 A 
ATOM      6  C   UNL     1       3.265   6.435  18.305  0.00  0.00    +0.000 A 
ATOM      7  C   UNL     1       2.485   7.348  18.982  0.00  0.00    +0.000 A 
ATOM      8  C   UNL     1       1.800   7.003  20.112  0.00  0.00    +0.000 A 
ATOM      9  C   UNL     1       1.845   5.721  20.614  0.00  0.00    +0.000 A 
ATOM     10  C   UNL     1       2.637   4.742  19.955  0.00  0.00    +0.000 A 
ATOM     11  O   UNL     1       1.088   8.039  20.625  0.00  0.00    +0.000 OA
ATOM     12  C   UNL     1       1.367   9.068  19.653  0.00  0.00    +0.000 C 
ATOM     13  O   UNL     1       2.299   8.648  18.634  0.00  0.00    +0.000 OA
ENDROOT
BRANCH   4  14
ATOM     14  C   UNL     1       5.150   4.314  17.062  0.00  0.00    +0.000 A 
ATOM     15  C   UNL     1       6.503   4.636  17.289  0.00  0.00    +0.000 A 
ATOM     16  C   UNL     1       7.401   4.829  16.233  0.00  0.00    +0.000 A 
ATOM     17  C   UNL     1       6.968   4.692  14.919  0.00  0.00    +0.000 A 
ATOM     18  C   UNL     1       5.634   4.401  14.661  0.00  0.00    +0.000 A 
ATOM     19  C   UNL     1       4.732   4.244  15.720  0.00  0.00    +0.000 A 
ENDBRANCH   4  14
BRANCH   1  20
ATOM     20  S   UNL     1       1.783   2.747  21.759  0.00  0.00    +0.000 S 
ATOM     21  H   UNL     1       1.212   1.772  21.037  0.00  0.00    +0.000 HD
ENDBRANCH   1  20
TORSDOF 2
ENDMDL
MODEL 2
REMARK VINA RESULT:      -7.7      0.041      1.074
REMARK  Name = 
REMARK  2 active torsions:
REMARK  status: ('A' for Active; 'I' for Inactive)
REMARK    1  A    between atoms: S_1  and  C_2
REMARK    2  A    between atoms: C_5  and  C_6
REMARK                            x       y       z     vdW  Elec       q    Type
REMARK                         _______ _______ _______ _____ _____    ______ ____
ROOT
ATOM      1  C   UNL     1       2.722   3.418  20.377  0.00  0.00    +0.000 A 
ATOM      2  N   UNL     1       3.497   2.509  19.758  0.00  0.00    +0.000 NA
ATOM      3  N   UNL     1       4.275   2.875  18.698  0.00  0.00    +0.000 NA
ATOM      4  C   UNL     1       4.265   4.145  18.223  0.00  0.00    +0.000 A 
ATOM      5  C   UNL     1       3.426   5.129  18.804  0.00  0.00    +0.000 A 
ATOM      6  C   UNL     1       3.293   6.456  18.313  0.00  0.00    +0.000 A 
ATOM      7  C   UNL     1       2.500   7.363  18.982  0.00  0.00    +0.000 A 
ATOM      8  C   UNL     1       1.802   7.012  20.102  0.00  0.00    +0.000 A 
ATOM      9  C   UNL     1       1.848   5.729  20.601  0.00  0.00    +0.000 A 
ATOM     10  C   UNL     1       2.652   4.755  19.951  0.00  0.00    +0.000 A 
ATOM     11  O   UNL     1       1.079   8.043  20.609  0.00  0.00    +0.000 OA
ATOM     12  C   UNL     1       1.366   9.076  19.643  0.00  0.00    +0.000 C 
ATOM     13  O   UNL     1       2.312   8.663  18.635  0.00  0.00    +0.000 OA
ENDROOT
BRANCH   4  14
ATOM     14  C   UNL     1       5.204   4.347  17.089  0.00  0.00    +0.000 A 
ATOM     15  C   UNL     1       4.760   4.192  15.761  0.00  0.00    +0.000 A 
ATOM     16  C   UNL     1       5.619   4.372  14.671  0.00  0.00    +0.000 A 
ATOM     17  C   UNL     1       6.947   4.726  14.884  0.00  0.00    +0.000 A 
ATOM     18  C   UNL     1       7.422   4.861  16.183  0.00  0.00    +0.000 A 
ATOM     19  C   UNL     1       6.568   4.644  17.270  0.00  0.00    +0.000 A 
ENDBRANCH   4  14
BRANCH   1  20
ATOM     20  S   UNL     1       1.785   2.752  21.738  0.00  0.00    +0.000 S 
ATOM     21  H   UNL     1       2.018   3.800  22.540  0.00  0.00    +0.000 HD
ENDBRANCH   1  20
TORSDOF 2
ENDMDL
MODEL 3
REMARK VINA RESULT:      -7.2      2.468      5.454
REMARK  Name = 
REMARK  2 active torsions:
REMARK  status: ('A' for Active; 'I' for Inactive)
REMARK    1  A    between atoms: S_1  and  C_2
REMARK    2  A    between atoms: C_5  and  C_6
REMARK                            x       y       z     vdW  Elec       q    Type
REMARK                         _______ _______ _______ _____ _____    ______ ____
ROOT
ATOM      1  C   UNL     1       3.614   3.764  19.665  0.00  0.00    +0.000 A 
ATOM      2  N   UNL     1       2.771   4.368  20.521  0.00  0.00    +0.000 NA
ATOM      3  N   UNL     1       2.335   5.638  20.277  0.00  0.00    +0.000 NA
ATOM      4  C   UNL     1       2.760   6.332  19.192  0.00  0.00    +0.000 A 
ATOM      5  C   UNL     1       3.689   5.761  18.286  0.00  0.00    +0.000 A 
ATOM      6  C   UNL     1       4.247   6.451  17.175  0.00  0.00    +0.000 A 
ATOM      7  C   UNL     1       5.096   5.794  16.311  0.00  0.00    +0.000 A 
ATOM      8  C   UNL     1       5.448   4.489  16.510  0.00  0.00    +0.000 A 
ATOM      9  C   UNL     1       4.982   3.779  17.595  0.00  0.00    +0.000 A 
ATOM     10  C   UNL     1       4.102   4.409  18.515  0.00  0.00    +0.000 A 
ATOM     11  O   UNL     1       6.294   4.027  15.554  0.00  0.00    +0.000 OA
ATOM     12  C   UNL     1       6.474   5.214  14.754  0.00  0.00    +0.000 C 
ATOM     13  O   UNL     1       5.671   6.327  15.202  0.00  0.00    +0.000 OA
ENDROOT
BRANCH   4  14
ATOM     14  C   UNL     1       2.144   7.681  19.089  0.00  0.00    +0.000 A 
ATOM     15  C   UNL     1       1.535   8.272  20.213  0.00  0.00    +0.000 A 
ATOM     16  C   UNL     1       0.943   9.539  20.149  0.00  0.00    +0.000 A 
ATOM     17  C   UNL     1       0.958  10.254  18.957  0.00  0.00    +0.000 A 
ATOM     18  C   UNL     1       1.528   9.687  17.823  0.00  0.00    +0.000 A 
ATOM     19  C   UNL     1       2.086   8.405  17.883  0.00  0.00    +0.000 A 
ENDBRANCH   4  14
BRANCH   1  20
ATOM     20  S   UNL     1       4.065   2.110  20.151  0.00  0.00    +0.000 S 
ATOM     21  H   UNL     1       5.380   2.314  19.985  0.00  0.00    +0.000 HD
ENDBRANCH   1  20
TORSDOF 2
ENDMDL
MODEL 4
REMARK VINA RESULT:      -7.2      3.326      5.923
REMARK  Name = 
REMARK  2 active torsions:
REMARK  status: ('A' for Active; 'I' for Inactive)
REMARK    1  A    between atoms: S_1  and  C_2
REMARK    2  A    between atoms: C_5  and  C_6
REMARK                            x       y       z     vdW  Elec       q    Type
REMARK                         _______ _______ _______ _____ _____    ______ ____
ROOT
ATOM      1  C   UNL     1       5.219   5.555  16.860  0.00  0.00    +0.000 A 
ATOM      2  N   UNL     1       5.267   6.899  16.807  0.00  0.00    +0.000 NA
ATOM      3  N   UNL     1       4.273   7.646  17.369  0.00  0.00    +0.000 NA
ATOM      4  C   UNL     1       3.202   7.062  17.961  0.00  0.00    +0.000 A 
ATOM      5  C   UNL     1       3.076   5.651  17.998  0.00  0.00    +0.000 A 
ATOM      6  C   UNL     1       1.947   4.963  18.522  0.00  0.00    +0.000 A 
ATOM      7  C   UNL     1       1.940   3.586  18.573  0.00  0.00    +0.000 A 
ATOM      8  C   UNL     1       2.986   2.849  18.097  0.00  0.00    +0.000 A 
ATOM      9  C   UNL     1       4.088   3.451  17.531  0.00  0.00    +0.000 A 
ATOM     10  C   UNL     1       4.147   4.868  17.456  0.00  0.00    +0.000 A 
ATOM     11  O   UNL     1       2.785   1.512  18.233  0.00  0.00    +0.000 OA
ATOM     12  C   UNL     1       1.461   1.495  18.806  0.00  0.00    +0.000 C 
ATOM     13  O   UNL     1       0.941   2.814  19.074  0.00  0.00    +0.000 OA
ENDROOT
BRANCH   4  14
ATOM     14  C   UNL     1       2.251   8.046  18.540  0.00  0.00    +0.000 A 
ATOM     15  C   UNL     1       1.930   8.004  19.912  0.00  0.00    +0.000 A 
ATOM     16  C   UNL     1       1.037   8.913  20.487  0.00  0.00    +0.000 A 
ATOM     17  C   UNL     1       0.448   9.901  19.705  0.00  0.00    +0.000 A 
ATOM     18  C   UNL     1       0.724   9.953  18.343  0.00  0.00    +0.000 A 
ATOM     19  C   UNL     1       1.591   9.019  17.766  0.00  0.00    +0.000 A 
ENDBRANCH   4  14
BRANCH   1  20
ATOM     20  S   UNL     1       6.606   4.757  16.078  0.00  0.00    +0.000 S 
ATOM     21  H   UNL     1       6.722   3.812  17.021  0.00  0.00    +0.000 HD
ENDBRANCH   1  20
TORSDOF 2
ENDMDL
MODEL 5
REMARK VINA RESULT:      -7.2      3.331      5.996
REMARK  Name = 
REMARK  2 active torsions:
REMARK  status: ('A' for Active; 'I' for Inactive)
REMARK    1  A    between atoms: S_1  and  C_2
REMARK    2  A    between atoms: C_5  and  C_6
REMARK                            x       y       z     vdW  Elec       q    Type
REMARK                         _______ _______ _______ _____ _____    ______ ____
ROOT
ATOM      1  C   UNL     1       5.160   5.579  16.867  0.00  0.00    +0.000 A 
ATOM      2  N   UNL     1       5.198   6.922  16.813  0.00  0.00    +0.000 NA
ATOM      3  N   UNL     1       4.203   7.663  17.383  0.00  0.00    +0.000 NA
ATOM      4  C   UNL     1       3.142   7.070  17.985  0.00  0.00    +0.000 A 
ATOM      5  C   UNL     1       3.027   5.658  18.024  0.00  0.00    +0.000 A 
ATOM      6  C   UNL     1       1.908   4.962  18.558  0.00  0.00    +0.000 A 
ATOM      7  C   UNL     1       1.912   3.586  18.609  0.00  0.00    +0.000 A 
ATOM      8  C   UNL     1       2.959   2.856  18.125  0.00  0.00    +0.000 A 
ATOM      9  C   UNL     1       4.052   3.466  17.548  0.00  0.00    +0.000 A 
ATOM     10  C   UNL     1       4.099   4.884  17.473  0.00  0.00    +0.000 A 
ATOM     11  O   UNL     1       2.770   1.518  18.263  0.00  0.00    +0.000 OA
ATOM     12  C   UNL     1       1.452   1.490  18.848  0.00  0.00    +0.000 C 
ATOM     13  O   UNL     1       0.923   2.805  19.119  0.00  0.00    +0.000 OA
ENDROOT
BRANCH   4  14
ATOM     14  C   UNL     1       2.188   8.048  18.572  0.00  0.00    +0.000 A 
ATOM     15  C   UNL     1       1.571   9.017  17.755  0.00  0.00    +0.000 A 
ATOM     16  C   UNL     1       0.671   9.953  18.276  0.00  0.00    +0.000 A 
ATOM     17  C   UNL     1       0.355   9.936  19.629  0.00  0.00    +0.000 A 
ATOM     18  C   UNL     1       0.966   9.009  20.466  0.00  0.00    +0.000 A 
ATOM     19  C   UNL     1       1.893   8.098  19.947  0.00  0.00    +0.000 A 
ENDBRANCH   4  14
BRANCH   1  20
ATOM     20  S   UNL     1       6.547   4.791  16.073  0.00  0.00    +0.000 S 
ATOM     21  H   UNL     1       7.048   4.300  17.215  0.00  0.00    +0.000 HD
ENDBRANCH   1  20
TORSDOF 2
ENDMDL
MODEL 6
REMARK VINA RESULT:      -7.1      2.874      3.857
REMARK  Name = 
REMARK  2 active torsions:
REMARK  status: ('A' for Active; 'I' for Inactive)
REMARK    1  A    between atoms: S_1  and  C_2
REMARK    2  A    between atoms: C_5  and  C_6
REMARK                            x       y       z     vdW  Elec       q    Type
REMARK                         _______ _______ _______ _____ _____    ______ ____
ROOT
ATOM      1  C   UNL     1       2.387   7.638  18.960  0.00  0.00    +0.000 A 
ATOM      2  N   UNL     1       3.020   8.218  17.925  0.00  0.00    +0.000 NA
ATOM      3  N   UNL     1       3.916   7.508  17.180  0.00  0.00    +0.000 NA
ATOM      4  C   UNL     1       4.214   6.218  17.478  0.00  0.00    +0.000 A 
ATOM      5  C   UNL     1       3.614   5.575  18.590  0.00  0.00    +0.000 A 
ATOM      6  C   UNL     1       3.934   4.259  19.020  0.00  0.00    +0.000 A 
ATOM      7  C   UNL     1       3.254   3.692  20.075  0.00  0.00    +0.000 A 
ATOM      8  C   UNL     1       2.287   4.379  20.753  0.00  0.00    +0.000 A 
ATOM      9  C   UNL     1       1.963   5.676  20.419  0.00  0.00    +0.000 A 
ATOM     10  C   UNL     1       2.634   6.307  19.337  0.00  0.00    +0.000 A 
ATOM     11  O   UNL     1       1.739   3.651  21.759  0.00  0.00    +0.000 OA
ATOM     12  C   UNL     1       2.514   2.437  21.668  0.00  0.00    +0.000 C 
ATOM     13  O   UNL     1       3.443   2.438  20.563  0.00  0.00    +0.000 OA
ENDROOT
BRANCH   4  14
ATOM     14  C   UNL     1       5.183   5.613  16.529  0.00  0.00    +0.000 A 
ATOM     15  C   UNL     1       4.726   4.847  15.438  0.00  0.00    +0.000 A 
ATOM     16  C   UNL     1       5.612   4.261  14.527  0.00  0.00    +0.000 A 
ATOM     17  C   UNL     1       6.983   4.437  14.679  0.00  0.00    +0.000 A 
ATOM     18  C   UNL     1       7.467   5.165  15.760  0.00  0.00    +0.000 A 
ATOM     19  C   UNL     1       6.578   5.719  16.687  0.00  0.00    +0.000 A 
ENDBRANCH   4  14
BRANCH   1  20
ATOM     20  S   UNL     1       1.255   8.723  19.807  0.00  0.00    +0.000 S 
ATOM     21  H   UNL     1       0.313   8.644  18.856  0.00  0.00    +0.000 HD
ENDBRANCH   1  20
TORSDOF 2
ENDMDL
MODEL 7
REMARK VINA RESULT:      -7.1      2.439      5.483
REMARK  Name = 
REMARK  2 active torsions:
REMARK  status: ('A' for Active; 'I' for Inactive)
REMARK    1  A    between atoms: S_1  and  C_2
REMARK    2  A    between atoms: C_5  and  C_6
REMARK                            x       y       z     vdW  Elec       q    Type
REMARK                         _______ _______ _______ _____ _____    ______ ____
ROOT
ATOM      1  C   UNL     1       3.510   3.809  19.735  0.00  0.00    +0.000 A 
ATOM      2  N   UNL     1       2.684   4.428  20.599  0.00  0.00    +0.000 NA
ATOM      3  N   UNL     1       2.268   5.705  20.358  0.00  0.00    +0.000 NA
ATOM      4  C   UNL     1       2.695   6.391  19.269  0.00  0.00    +0.000 A 
ATOM      5  C   UNL     1       3.606   5.804  18.355  0.00  0.00    +0.000 A 
ATOM      6  C   UNL     1       4.167   6.483  17.239  0.00  0.00    +0.000 A 
ATOM      7  C   UNL     1       4.997   5.812  16.369  0.00  0.00    +0.000 A 
ATOM      8  C   UNL     1       5.329   4.502  16.565  0.00  0.00    +0.000 A 
ATOM      9  C   UNL     1       4.861   3.800  17.654  0.00  0.00    +0.000 A 
ATOM     10  C   UNL     1       3.999   4.445  18.582  0.00  0.00    +0.000 A 
ATOM     11  O   UNL     1       6.160   4.025  15.602  0.00  0.00    +0.000 OA
ATOM     12  C   UNL     1       6.353   5.209  14.801  0.00  0.00    +0.000 C 
ATOM     13  O   UNL     1       5.573   6.335  15.254  0.00  0.00    +0.000 OA
ENDROOT
BRANCH   4  14
ATOM     14  C   UNL     1       2.101   7.750  19.170  0.00  0.00    +0.000 A 
ATOM     15  C   UNL     1       2.182   8.475  17.964  0.00  0.00    +0.000 A 
ATOM     16  C   UNL     1       1.636   9.757  17.838  0.00  0.00    +0.000 A 
ATOM     17  C   UNL     1       0.982  10.343  18.915  0.00  0.00    +0.000 A 
ATOM     18  C   UNL     1       0.908   9.665  20.126  0.00  0.00    +0.000 A 
ATOM     19  C   UNL     1       1.487   8.398  20.257  0.00  0.00    +0.000 A 
ENDBRANCH   4  14
BRANCH   1  20
ATOM     20  S   UNL     1       3.937   2.148  20.219  0.00  0.00    +0.000 S 
ATOM     21  H   UNL     1       3.490   1.596  19.082  0.00  0.00    +0.000 HD
ENDBRANCH   1  20
TORSDOF 2
ENDMDL
MODEL 8
REMARK VINA RESULT:      -7.1      2.879      3.716
REMARK  Name = 
REMARK  2 active torsions:
REMARK  status: ('A' for Active; 'I' for Inactive)
REMARK    1  A    between atoms: S_1  and  C_2
REMARK    2  A    between atoms: C_5  and  C_6
REMARK                            x       y       z     vdW  Elec       q    Type
REMARK                         _______ _______ _______ _____ _____    ______ ____
ROOT
ATOM      1  C   UNL     1       2.325   7.627  19.096  0.00  0.00    +0.000 A 
ATOM      2  N   UNL     1       2.961   8.227  18.072  0.00  0.00    +0.000 NA
ATOM      3  N   UNL     1       3.848   7.526  17.308  0.00  0.00    +0.000 NA
ATOM      4  C   UNL     1       4.136   6.228  17.575  0.00  0.00    +0.000 A 
ATOM      5  C   UNL     1       3.534   5.564  18.674  0.00  0.00    +0.000 A 
ATOM      6  C   UNL     1       3.846   4.235  19.072  0.00  0.00    +0.000 A 
ATOM      7  C   UNL     1       3.163   3.650  20.116  0.00  0.00    +0.000 A 
ATOM      8  C   UNL     1       2.204   4.329  20.812  0.00  0.00    +0.000 A 
ATOM      9  C   UNL     1       1.890   5.636  20.510  0.00  0.00    +0.000 A 
ATOM     10  C   UNL     1       2.563   6.286  19.441  0.00  0.00    +0.000 A 
ATOM     11  O   UNL     1       1.654   3.582  21.804  0.00  0.00    +0.000 OA
ATOM     12  C   UNL     1       2.419   2.364  21.681  0.00  0.00    +0.000 C 
ATOM     13  O   UNL     1       3.344   2.384  20.574  0.00  0.00    +0.000 OA
ENDROOT
BRANCH   4  14
ATOM     14  C   UNL     1       5.098   5.637  16.609  0.00  0.00    +0.000 A 
ATOM     15  C   UNL     1       6.468   5.960  16.682  0.00  0.00    +0.000 A 
ATOM     16  C   UNL     1       7.399   5.423  15.786  0.00  0.00    +0.000 A 
ATOM     17  C   UNL     1       6.984   4.537  14.799  0.00  0.00    +0.000 A 
ATOM     18  C   UNL     1       5.636   4.218  14.684  0.00  0.00    +0.000 A 
ATOM     19  C   UNL     1       4.704   4.786  15.560  0.00  0.00    +0.000 A 
ENDBRANCH   4  14
BRANCH   1  20
ATOM     20  S   UNL     1       1.205   8.701  19.971  0.00  0.00    +0.000 S 
ATOM     21  H   UNL     1       1.650   9.816  19.374  0.00  0.00    +0.000 HD
ENDBRANCH   1  20
TORSDOF 2
ENDMDL
MODEL 9
REMARK VINA RESULT:      -7.0      3.183      5.952
REMARK  Name = 
REMARK  2 active torsions:
REMARK  status: ('A' for Active; 'I' for Inactive)
REMARK    1  A    between atoms: S_1  and  C_2
REMARK    2  A    between atoms: C_5  and  C_6
REMARK                            x       y       z     vdW  Elec       q    Type
REMARK                         _______ _______ _______ _____ _____    ______ ____
ROOT
ATOM      1  C   UNL     1       4.818   5.705  17.513  0.00  0.00    +0.000 A 
ATOM      2  N   UNL     1       4.603   6.921  16.979  0.00  0.00    +0.000 NA
ATOM      3  N   UNL     1       3.614   7.723  17.469  0.00  0.00    +0.000 NA
ATOM      4  C   UNL     1       2.806   7.309  18.476  0.00  0.00    +0.000 A 
ATOM      5  C   UNL     1       2.956   6.017  19.039  0.00  0.00    +0.000 A 
ATOM      6  C   UNL     1       2.098   5.476  20.036  0.00  0.00    +0.000 A 
ATOM      7  C   UNL     1       2.359   4.233  20.570  0.00  0.00    +0.000 A 
ATOM      8  C   UNL     1       3.413   3.478  20.141  0.00  0.00    +0.000 A 
ATOM      9  C   UNL     1       4.253   3.922  19.143  0.00  0.00    +0.000 A 
ATOM     10  C   UNL     1       4.030   5.198  18.560  0.00  0.00    +0.000 A 
ATOM     11  O   UNL     1       3.496   2.286  20.786  0.00  0.00    +0.000 OA
ATOM     12  C   UNL     1       2.335   2.357  21.639  0.00  0.00    +0.000 C 
ATOM     13  O   UNL     1       1.638   3.617  21.544  0.00  0.00    +0.000 OA
ENDROOT
BRANCH   4  14
ATOM     14  C   UNL     1       1.817   8.339  18.887  0.00  0.00    +0.000 A 
ATOM     15  C   UNL     1       1.213   9.170  17.922  0.00  0.00    +0.000 A 
ATOM     16  C   UNL     1       0.281  10.152  18.276  0.00  0.00    +0.000 A 
ATOM     17  C   UNL     1      -0.082  10.319  19.607  0.00  0.00    +0.000 A 
ATOM     18  C   UNL     1       0.514   9.532  20.586  0.00  0.00    +0.000 A 
ATOM     19  C   UNL     1       1.473   8.577  20.231  0.00  0.00    +0.000 A 
ENDBRANCH   4  14
BRANCH   1  20
ATOM     20  S   UNL     1       6.153   4.811  16.744  0.00  0.00    +0.000 S 
ATOM     21  H   UNL     1       5.674   4.966  15.502  0.00  0.00    +0.000 HD
ENDBRANCH   1  20
TORSDOF 2
ENDMDL
