MODEL 1
REMARK VINA RESULT:      -7.6      0.000      0.000
REMARK  Name = 
REMARK  7 active torsions:
REMARK  status: ('A' for Active; 'I' for Inactive)
REMARK    1  A    between atoms: O_1  and  C_2
REMARK    2  A    between atoms: C_2  and  C_3
REMARK    3  A    between atoms: C_2  and  C_10
REMARK    4  A    between atoms: C_10  and  O_11
REMARK    5  A    between atoms: C_10  and  C_12
REMARK    6  A    between atoms: C_10  and  C_18
REMARK    7  A    between atoms: C_12  and  N_13
REMARK                            x       y       z     vdW  Elec       q    Type
REMARK                         _______ _______ _______ _____ _____    ______ ____
ROOT
ATOM      1  C   UNL     1       6.559   4.686  17.389  0.00  0.00    +0.000 C 
ENDROOT
BRANCH   1   2
ATOM      2  C   UNL     1       6.959   6.162  17.667  0.00  0.00    +0.000 A 
ATOM      3  C   UNL     1       8.064   6.482  18.482  0.00  0.00    +0.000 A 
ATOM      4  C   UNL     1       8.559   7.783  18.623  0.00  0.00    +0.000 A 
ATOM      5  C   UNL     1       7.915   8.830  17.987  0.00  0.00    +0.000 A 
ATOM      6 CL   UNL     1       8.541  10.424  18.123  0.00  0.00    +0.000 Cl
ATOM      7  C   UNL     1       6.754   8.587  17.269  0.00  0.00    +0.000 A 
ATOM      8  C   UNL     1       6.267   7.277  17.128  0.00  0.00    +0.000 A 
ATOM      9 CL   UNL     1       4.731   7.167  16.326  0.00  0.00    +0.000 Cl
ENDBRANCH   1   2
BRANCH   1  10
ATOM     10  O   UNL     1       7.844   4.027  17.178  0.00  0.00    +0.000 OA
ATOM     11  H   UNL     1       7.699   3.243  16.620  0.00  0.00    +0.000 HD
ENDBRANCH   1  10
BRANCH   1  12
ATOM     12  C   UNL     1       5.832   4.037  18.652  0.00  0.00    +0.000 C 
BRANCH  12  13
ATOM     13  C   UNL     1       4.348   3.722  18.452  0.00  0.00    +0.000 A 
ATOM     14  C   UNL     1       3.880   2.423  18.198  0.00  0.00    +0.000 A 
ATOM     15  C   UNL     1       2.509   2.158  18.132  0.00  0.00    +0.000 A 
ATOM     16  C   UNL     1       1.600   3.194  18.299  0.00  0.00    +0.000 A 
ATOM     17  F   UNL     1       0.288   2.934  18.270  0.00  0.00    +0.000 F 
ATOM     18  C   UNL     1       2.036   4.497  18.498  0.00  0.00    +0.000 A 
ATOM     19  C   UNL     1       3.404   4.762  18.561  0.00  0.00    +0.000 A 
ENDBRANCH  12  13
BRANCH  12  20
ATOM     20  O   UNL     1       6.072   4.780  19.845  0.00  0.00    +0.000 OA
ATOM     21  H   UNL     1       6.348   4.154  20.535  0.00  0.00    +0.000 HD
ENDBRANCH  12  20
ENDBRANCH   1  12
BRANCH   1  22
ATOM     22  C   UNL     1       5.781   4.412  16.049  0.00  0.00    +0.000 C 
BRANCH  22  23
ATOM     23  N   UNL     1       6.454   4.478  14.775  0.00  0.00    +0.000 N 
ATOM     24  C   UNL     1       6.105   3.827  13.625  0.00  0.00    +0.000 A 
ATOM     25  N   UNL     1       6.971   4.101  12.679  0.00  0.00    +0.000 NA
ATOM     26  C   UNL     1       7.785   5.017  13.276  0.00  0.00    +0.000 A 
ATOM     27  N   UNL     1       7.453   5.339  14.528  0.00  0.00    +0.000 NA
ENDBRANCH  22  23
ENDBRANCH   1  22
TORSDOF 7
ENDMDL
MODEL 2
REMARK VINA RESULT:      -7.4      3.774      5.554
REMARK  Name = 
REMARK  7 active torsions:
REMARK  status: ('A' for Active; 'I' for Inactive)
REMARK    1  A    between atoms: O_1  and  C_2
REMARK    2  A    between atoms: C_2  and  C_3
REMARK    3  A    between atoms: C_2  and  C_10
REMARK    4  A    between atoms: C_10  and  O_11
REMARK    5  A    between atoms: C_10  and  C_12
REMARK    6  A    between atoms: C_10  and  C_18
REMARK    7  A    between atoms: C_12  and  N_13
REMARK                            x       y       z     vdW  Elec       q    Type
REMARK                         _______ _______ _______ _____ _____    ______ ____
ROOT
ATOM      1  C   UNL     1       4.771   4.053  18.437  0.00  0.00    +0.000 C 
ENDROOT
BRANCH   1   2
ATOM      2  C   UNL     1       5.497   4.205  17.072  0.00  0.00    +0.000 A 
ATOM      3  C   UNL     1       4.806   4.056  15.853  0.00  0.00    +0.000 A 
ATOM      4  C   UNL     1       5.376   4.347  14.609  0.00  0.00    +0.000 A 
ATOM      5  C   UNL     1       6.699   4.747  14.543  0.00  0.00    +0.000 A 
ATOM      6 CL   UNL     1       7.394   5.146  13.024  0.00  0.00    +0.000 Cl
ATOM      7  C   UNL     1       7.459   4.798  15.702  0.00  0.00    +0.000 A 
ATOM      8  C   UNL     1       6.878   4.508  16.947  0.00  0.00    +0.000 A 
ATOM      9 CL   UNL     1       7.999   4.474  18.271  0.00  0.00    +0.000 Cl
ENDBRANCH   1   2
BRANCH   1  10
ATOM     10  O   UNL     1       5.583   3.065  19.139  0.00  0.00    +0.000 OA
ATOM     11  H   UNL     1       5.925   3.471  19.955  0.00  0.00    +0.000 HD
ENDBRANCH   1  10
BRANCH   1  12
ATOM     12  C   UNL     1       4.784   5.424  19.254  0.00  0.00    +0.000 C 
BRANCH  12  13
ATOM     13  C   UNL     1       3.740   6.451  18.808  0.00  0.00    +0.000 A 
ATOM     14  C   UNL     1       2.626   6.784  19.593  0.00  0.00    +0.000 A 
ATOM     15  C   UNL     1       1.756   7.807  19.202  0.00  0.00    +0.000 A 
ATOM     16  C   UNL     1       1.986   8.487  18.014  0.00  0.00    +0.000 A 
ATOM     17  F   UNL     1       1.174   9.490  17.658  0.00  0.00    +0.000 F 
ATOM     18  C   UNL     1       3.050   8.143  17.192  0.00  0.00    +0.000 A 
ATOM     19  C   UNL     1       3.916   7.120  17.581  0.00  0.00    +0.000 A 
ENDBRANCH  12  13
BRANCH  12  20
ATOM     20  O   UNL     1       6.092   5.982  19.337  0.00  0.00    +0.000 OA
ATOM     21  H   UNL     1       6.071   6.693  19.999  0.00  0.00    +0.000 HD
ENDBRANCH  12  20
ENDBRANCH   1  12
BRANCH   1  22
ATOM     22  C   UNL     1       3.341   3.396  18.401  0.00  0.00    +0.000 C 
BRANCH  22  23
ATOM     23  N   UNL     1       2.605   3.158  19.619  0.00  0.00    +0.000 N 
ATOM     24  C   UNL     1       1.254   3.264  19.798  0.00  0.00    +0.000 A 
ATOM     25  N   UNL     1       0.950   3.007  21.047  0.00  0.00    +0.000 NA
ATOM     26  C   UNL     1       2.152   2.643  21.577  0.00  0.00    +0.000 A 
ATOM     27  N   UNL     1       3.172   2.639  20.718  0.00  0.00    +0.000 NA
ENDBRANCH  22  23
ENDBRANCH   1  22
TORSDOF 7
ENDMDL
MODEL 3
REMARK VINA RESULT:      -7.4      3.871      5.759
REMARK  Name = 
REMARK  7 active torsions:
REMARK  status: ('A' for Active; 'I' for Inactive)
REMARK    1  A    between atoms: O_1  and  C_2
REMARK    2  A    between atoms: C_2  and  C_3
REMARK    3  A    between atoms: C_2  and  C_10
REMARK    4  A    between atoms: C_10  and  O_11
REMARK    5  A    between atoms: C_10  and  C_12
REMARK    6  A    between atoms: C_10  and  C_18
REMARK    7  A    between atoms: C_12  and  N_13
REMARK                            x       y       z     vdW  Elec       q    Type
REMARK                         _______ _______ _______ _____ _____    ______ ____
ROOT
ATOM      1  C   UNL     1       4.033   4.351  18.006  0.00  0.00    +0.000 C 
ENDROOT
BRANCH   1   2
ATOM      2  C   UNL     1       5.072   4.444  16.853  0.00  0.00    +0.000 A 
ATOM      3  C   UNL     1       4.729   4.108  15.528  0.00  0.00    +0.000 A 
ATOM      4  C   UNL     1       5.576   4.335  14.438  0.00  0.00    +0.000 A 
ATOM      5  C   UNL     1       6.838   4.860  14.654  0.00  0.00    +0.000 A 
ATOM      6 CL   UNL     1       7.868   5.180  13.316  0.00  0.00    +0.000 Cl
ATOM      7  C   UNL     1       7.270   5.099  15.949  0.00  0.00    +0.000 A 
ATOM      8  C   UNL     1       6.412   4.873  17.038  0.00  0.00    +0.000 A 
ATOM      9 CL   UNL     1       7.156   5.081  18.592  0.00  0.00    +0.000 Cl
ENDBRANCH   1   2
BRANCH   1  10
ATOM     10  O   UNL     1       4.693   5.045  19.107  0.00  0.00    +0.000 OA
ATOM     11  H   UNL     1       4.155   4.929  19.910  0.00  0.00    +0.000 HD
ENDBRANCH   1  10
BRANCH   1  12
ATOM     12  C   UNL     1       2.684   5.115  17.630  0.00  0.00    +0.000 C 
BRANCH  12  13
ATOM     13  C   UNL     1       2.360   6.324  18.512  0.00  0.00    +0.000 A 
ATOM     14  C   UNL     1       2.346   7.637  18.017  0.00  0.00    +0.000 A 
ATOM     15  C   UNL     1       1.936   8.701  18.826  0.00  0.00    +0.000 A 
ATOM     16  C   UNL     1       1.558   8.459  20.140  0.00  0.00    +0.000 A 
ATOM     17  F   UNL     1       1.133   9.473  20.903  0.00  0.00    +0.000 F 
ATOM     18  C   UNL     1       1.613   7.178  20.671  0.00  0.00    +0.000 A 
ATOM     19  C   UNL     1       2.025   6.116  19.865  0.00  0.00    +0.000 A 
ENDBRANCH  12  13
BRANCH  12  20
ATOM     20  O   UNL     1       1.581   4.221  17.510  0.00  0.00    +0.000 OA
ATOM     21  H   UNL     1       1.674   3.747  16.667  0.00  0.00    +0.000 HD
ENDBRANCH  12  20
ENDBRANCH   1  12
BRANCH   1  22
ATOM     22  C   UNL     1       3.760   2.914  18.588  0.00  0.00    +0.000 C 
BRANCH  22  23
ATOM     23  N   UNL     1       3.033   2.742  19.822  0.00  0.00    +0.000 N 
ATOM     24  C   UNL     1       3.549   2.734  21.088  0.00  0.00    +0.000 A 
ATOM     25  N   UNL     1       2.592   2.516  21.956  0.00  0.00    +0.000 NA
ATOM     26  C   UNL     1       1.476   2.499  21.173  0.00  0.00    +0.000 A 
ATOM     27  N   UNL     1       1.692   2.719  19.875  0.00  0.00    +0.000 NA
ENDBRANCH  22  23
ENDBRANCH   1  22
TORSDOF 7
ENDMDL
MODEL 4
REMARK VINA RESULT:      -7.4      3.439      4.633
REMARK  Name = 
REMARK  7 active torsions:
REMARK  status: ('A' for Active; 'I' for Inactive)
REMARK    1  A    between atoms: O_1  and  C_2
REMARK    2  A    between atoms: C_2  and  C_3
REMARK    3  A    between atoms: C_2  and  C_10
REMARK    4  A    between atoms: C_10  and  O_11
REMARK    5  A    between atoms: C_10  and  C_12
REMARK    6  A    between atoms: C_10  and  C_18
REMARK    7  A    between atoms: C_12  and  N_13
REMARK                            x       y       z     vdW  Elec       q    Type
REMARK                         _______ _______ _______ _____ _____    ______ ____
ROOT
ATOM      1  C   UNL     1       3.672   6.215  18.293  0.00  0.00    +0.000 C 
ENDROOT
BRANCH   1   2
ATOM      2  C   UNL     1       2.780   7.458  18.567  0.00  0.00    +0.000 A 
ATOM      3  C   UNL     1       2.701   8.522  17.646  0.00  0.00    +0.000 A 
ATOM      4  C   UNL     1       1.789   9.575  17.770  0.00  0.00    +0.000 A 
ATOM      5  C   UNL     1       0.954   9.626  18.873  0.00  0.00    +0.000 A 
ATOM      6 CL   UNL     1      -0.196  10.894  19.012  0.00  0.00    +0.000 Cl
ATOM      7  C   UNL     1       1.071   8.668  19.868  0.00  0.00    +0.000 A 
ATOM      8  C   UNL     1       1.986   7.611  19.733  0.00  0.00    +0.000 A 
ATOM      9 CL   UNL     1       2.110   6.588  21.129  0.00  0.00    +0.000 Cl
ENDBRANCH   1   2
BRANCH   1  10
ATOM     10  O   UNL     1       4.321   5.979  19.578  0.00  0.00    +0.000 OA
ATOM     11  H   UNL     1       4.152   6.746  20.153  0.00  0.00    +0.000 HD
ENDBRANCH   1  10
BRANCH   1  12
ATOM     12  C   UNL     1       2.789   4.944  17.904  0.00  0.00    +0.000 C 
BRANCH  12  13
ATOM     13  C   UNL     1       2.432   4.024  19.074  0.00  0.00    +0.000 A 
ATOM     14  C   UNL     1       3.401   3.308  19.794  0.00  0.00    +0.000 A 
ATOM     15  C   UNL     1       3.047   2.566  20.924  0.00  0.00    +0.000 A 
ATOM     16  C   UNL     1       1.720   2.520  21.329  0.00  0.00    +0.000 A 
ATOM     17  F   UNL     1       1.387   1.839  22.432  0.00  0.00    +0.000 F 
ATOM     18  C   UNL     1       0.733   3.175  20.605  0.00  0.00    +0.000 A 
ATOM     19  C   UNL     1       1.086   3.913  19.474  0.00  0.00    +0.000 A 
ENDBRANCH  12  13
BRANCH  12  20
ATOM     20  O   UNL     1       3.342   4.229  16.802  0.00  0.00    +0.000 OA
ATOM     21  H   UNL     1       3.528   4.870  16.095  0.00  0.00    +0.000 HD
ENDBRANCH  12  20
ENDBRANCH   1  12
BRANCH   1  22
ATOM     22  C   UNL     1       4.880   6.424  17.305  0.00  0.00    +0.000 C 
BRANCH  22  23
ATOM     23  N   UNL     1       6.131   5.735  17.509  0.00  0.00    +0.000 N 
ATOM     24  C   UNL     1       6.755   4.888  16.636  0.00  0.00    +0.000 A 
ATOM     25  N   UNL     1       7.854   4.422  17.179  0.00  0.00    +0.000 NA
ATOM     26  C   UNL     1       7.914   5.101  18.360  0.00  0.00    +0.000 A 
ATOM     27  N   UNL     1       6.927   5.975  18.561  0.00  0.00    +0.000 NA
ENDBRANCH  22  23
ENDBRANCH   1  22
TORSDOF 7
ENDMDL
MODEL 5
REMARK VINA RESULT:      -7.3      4.372      6.069
REMARK  Name = 
REMARK  7 active torsions:
REMARK  status: ('A' for Active; 'I' for Inactive)
REMARK    1  A    between atoms: O_1  and  C_2
REMARK    2  A    between atoms: C_2  and  C_3
REMARK    3  A    between atoms: C_2  and  C_10
REMARK    4  A    between atoms: C_10  and  O_11
REMARK    5  A    between atoms: C_10  and  C_12
REMARK    6  A    between atoms: C_10  and  C_18
REMARK    7  A    between atoms: C_12  and  N_13
REMARK                            x       y       z     vdW  Elec       q    Type
REMARK                         _______ _______ _______ _____ _____    ______ ____
ROOT
ATOM      1  C   UNL     1       2.612   6.318  18.867  0.00  0.00    +0.000 C 
ENDROOT
BRANCH   1   2
ATOM      2  C   UNL     1       2.161   7.804  18.921  0.00  0.00    +0.000 A 
ATOM      3  C   UNL     1       2.406   8.684  17.848  0.00  0.00    +0.000 A 
ATOM      4  C   UNL     1       1.874   9.977  17.782  0.00  0.00    +0.000 A 
ATOM      5  C   UNL     1       1.117  10.456  18.836  0.00  0.00    +0.000 A 
ATOM      6 CL   UNL     1       0.428  12.027  18.745  0.00  0.00    +0.000 Cl
ATOM      7  C   UNL     1       0.944   9.675  19.968  0.00  0.00    +0.000 A 
ATOM      8  C   UNL     1       1.477   8.376  20.024  0.00  0.00    +0.000 A 
ATOM      9 CL   UNL     1       1.296   7.594  21.562  0.00  0.00    +0.000 Cl
ENDBRANCH   1   2
BRANCH   1  10
ATOM     10  O   UNL     1       2.035   5.839  17.615  0.00  0.00    +0.000 OA
ATOM     11  H   UNL     1       1.488   5.057  17.807  0.00  0.00    +0.000 HD
ENDBRANCH   1  10
BRANCH   1  12
ATOM     12  C   UNL     1       4.201   6.198  18.797  0.00  0.00    +0.000 C 
BRANCH  12  13
ATOM     13  C   UNL     1       4.748   5.612  17.493  0.00  0.00    +0.000 A 
ATOM     14  C   UNL     1       4.937   4.234  17.306  0.00  0.00    +0.000 A 
ATOM     15  C   UNL     1       5.332   3.729  16.063  0.00  0.00    +0.000 A 
ATOM     16  C   UNL     1       5.559   4.601  15.008  0.00  0.00    +0.000 A 
ATOM     17  F   UNL     1       5.903   4.115  13.809  0.00  0.00    +0.000 F 
ATOM     18  C   UNL     1       5.431   5.973  15.179  0.00  0.00    +0.000 A 
ATOM     19  C   UNL     1       5.039   6.477  16.420  0.00  0.00    +0.000 A 
ENDBRANCH  12  13
BRANCH  12  20
ATOM     20  O   UNL     1       4.737   5.551  19.948  0.00  0.00    +0.000 OA
ATOM     21  H   UNL     1       5.579   5.138  19.692  0.00  0.00    +0.000 HD
ENDBRANCH  12  20
ENDBRANCH   1  12
BRANCH   1  22
ATOM     22  C   UNL     1       1.990   5.358  19.949  0.00  0.00    +0.000 C 
BRANCH  22  23
ATOM     23  N   UNL     1       1.790   3.957  19.667  0.00  0.00    +0.000 N 
ATOM     24  C   UNL     1       2.313   2.897  20.355  0.00  0.00    +0.000 A 
ATOM     25  N   UNL     1       1.942   1.774  19.787  0.00  0.00    +0.000 NA
ATOM     26  C   UNL     1       1.099   2.200  18.804  0.00  0.00    +0.000 A 
ATOM     27  N   UNL     1       0.913   3.520  18.752  0.00  0.00    +0.000 NA
ENDBRANCH  22  23
ENDBRANCH   1  22
TORSDOF 7
ENDMDL
MODEL 6
REMARK VINA RESULT:      -7.3      3.554      5.689
REMARK  Name = 
REMARK  7 active torsions:
REMARK  status: ('A' for Active; 'I' for Inactive)
REMARK    1  A    between atoms: O_1  and  C_2
REMARK    2  A    between atoms: C_2  and  C_3
REMARK    3  A    between atoms: C_2  and  C_10
REMARK    4  A    between atoms: C_10  and  O_11
REMARK    5  A    between atoms: C_10  and  C_12
REMARK    6  A    between atoms: C_10  and  C_18
REMARK    7  A    between atoms: C_12  and  N_13
REMARK                            x       y       z     vdW  Elec       q    Type
REMARK                         _______ _______ _______ _____ _____    ______ ____
ROOT
ATOM      1  C   UNL     1       5.399   4.864  16.847  0.00  0.00    +0.000 C 
ENDROOT
BRANCH   1   2
ATOM      2  C   UNL     1       4.411   5.402  17.920  0.00  0.00    +0.000 A 
ATOM      3  C   UNL     1       3.797   6.663  17.784  0.00  0.00    +0.000 A 
ATOM      4  C   UNL     1       2.780   7.113  18.633  0.00  0.00    +0.000 A 
ATOM      5  C   UNL     1       2.382   6.324  19.698  0.00  0.00    +0.000 A 
ATOM      6 CL   UNL     1       1.106   6.852  20.720  0.00  0.00    +0.000 Cl
ATOM      7  C   UNL     1       3.035   5.127  19.947  0.00  0.00    +0.000 A 
ATOM      8  C   UNL     1       4.051   4.679  19.087  0.00  0.00    +0.000 A 
ATOM      9 CL   UNL     1       4.861   3.241  19.622  0.00  0.00    +0.000 Cl
ENDBRANCH   1   2
BRANCH   1  10
ATOM     10  O   UNL     1       5.188   3.421  16.892  0.00  0.00    +0.000 OA
ATOM     11  H   UNL     1       5.970   2.983  16.513  0.00  0.00    +0.000 HD
ENDBRANCH   1  10
BRANCH   1  12
ATOM     12  C   UNL     1       5.028   5.409  15.395  0.00  0.00    +0.000 C 
BRANCH  12  13
ATOM     13  C   UNL     1       5.714   4.681  14.236  0.00  0.00    +0.000 A 
ATOM     14  C   UNL     1       5.061   3.709  13.463  0.00  0.00    +0.000 A 
ATOM     15  C   UNL     1       5.685   3.148  12.345  0.00  0.00    +0.000 A 
ATOM     16  C   UNL     1       6.972   3.541  12.007  0.00  0.00    +0.000 A 
ATOM     17  F   UNL     1       7.556   3.030  10.916  0.00  0.00    +0.000 F 
ATOM     18  C   UNL     1       7.662   4.462  12.784  0.00  0.00    +0.000 A 
ATOM     19  C   UNL     1       7.040   5.020  13.902  0.00  0.00    +0.000 A 
ENDBRANCH  12  13
BRANCH  12  20
ATOM     20  O   UNL     1       5.169   6.824  15.305  0.00  0.00    +0.000 OA
ATOM     21  H   UNL     1       6.055   7.013  14.951  0.00  0.00    +0.000 HD
ENDBRANCH  12  20
ENDBRANCH   1  12
BRANCH   1  22
ATOM     22  C   UNL     1       6.933   5.021  17.166  0.00  0.00    +0.000 C 
BRANCH  22  23
ATOM     23  N   UNL     1       7.470   6.282  17.616  0.00  0.00    +0.000 N 
ATOM     24  C   UNL     1       8.135   6.523  18.786  0.00  0.00    +0.000 A 
ATOM     25  N   UNL     1       8.442   7.795  18.868  0.00  0.00    +0.000 NA
ATOM     26  C   UNL     1       8.030   8.279  17.663  0.00  0.00    +0.000 A 
ATOM     27  N   UNL     1       7.509   7.372  16.835  0.00  0.00    +0.000 NA
ENDBRANCH  22  23
ENDBRANCH   1  22
TORSDOF 7
ENDMDL
MODEL 7
REMARK VINA RESULT:      -7.2      1.834      2.269
REMARK  Name = 
REMARK  7 active torsions:
REMARK  status: ('A' for Active; 'I' for Inactive)
REMARK    1  A    between atoms: O_1  and  C_2
REMARK    2  A    between atoms: C_2  and  C_3
REMARK    3  A    between atoms: C_2  and  C_10
REMARK    4  A    between atoms: C_10  and  O_11
REMARK    5  A    between atoms: C_10  and  C_12
REMARK    6  A    between atoms: C_10  and  C_18
REMARK    7  A    between atoms: C_12  and  N_13
REMARK                            x       y       z     vdW  Elec       q    Type
REMARK                         _______ _______ _______ _____ _____    ______ ____
ROOT
ATOM      1  C   UNL     1       5.236   4.212  17.649  0.00  0.00    +0.000 C 
ENDROOT
BRANCH   1   2
ATOM      2  C   UNL     1       6.055   5.508  17.906  0.00  0.00    +0.000 A 
ATOM      3  C   UNL     1       7.104   5.539  18.847  0.00  0.00    +0.000 A 
ATOM      4  C   UNL     1       7.972   6.627  18.990  0.00  0.00    +0.000 A 
ATOM      5  C   UNL     1       7.775   7.761  18.221  0.00  0.00    +0.000 A 
ATOM      6 CL   UNL     1       8.861   9.084  18.361  0.00  0.00    +0.000 Cl
ATOM      7  C   UNL     1       6.688   7.829  17.364  0.00  0.00    +0.000 A 
ATOM      8  C   UNL     1       5.824   6.730  17.223  0.00  0.00    +0.000 A 
ATOM      9 CL   UNL     1       4.436   7.033  16.226  0.00  0.00    +0.000 Cl
ENDBRANCH   1   2
BRANCH   1  10
ATOM     10  O   UNL     1       5.641   3.339  18.746  0.00  0.00    +0.000 OA
ATOM     11  H   UNL     1       5.077   2.546  18.732  0.00  0.00    +0.000 HD
ENDBRANCH   1  10
BRANCH   1  12
ATOM     12  C   UNL     1       3.668   4.491  17.746  0.00  0.00    +0.000 C 
BRANCH  12  13
ATOM     13  C   UNL     1       2.999   3.978  19.024  0.00  0.00    +0.000 A 
ATOM     14  C   UNL     1       2.913   4.749  20.193  0.00  0.00    +0.000 A 
ATOM     15  C   UNL     1       2.197   4.289  21.301  0.00  0.00    +0.000 A 
ATOM     16  C   UNL     1       1.580   3.047  21.254  0.00  0.00    +0.000 A 
ATOM     17  F   UNL     1       0.865   2.622  22.302  0.00  0.00    +0.000 F 
ATOM     18  C   UNL     1       1.693   2.239  20.129  0.00  0.00    +0.000 A 
ATOM     19  C   UNL     1       2.410   2.698  19.024  0.00  0.00    +0.000 A 
ENDBRANCH  12  13
BRANCH  12  20
ATOM     20  O   UNL     1       2.980   4.075  16.570  0.00  0.00    +0.000 OA
ATOM     21  H   UNL     1       3.010   3.104  16.535  0.00  0.00    +0.000 HD
ENDBRANCH  12  20
ENDBRANCH   1  12
BRANCH   1  22
ATOM     22  C   UNL     1       5.615   3.388  16.363  0.00  0.00    +0.000 C 
BRANCH  22  23
ATOM     23  N   UNL     1       6.246   4.026  15.234  0.00  0.00    +0.000 N 
ATOM     24  C   UNL     1       7.387   4.779  15.247  0.00  0.00    +0.000 A 
ATOM     25  N   UNL     1       7.638   5.225  14.040  0.00  0.00    +0.000 NA
ATOM     26  C   UNL     1       6.667   4.626  13.293  0.00  0.00    +0.000 A 
ATOM     27  N   UNL     1       5.850   3.818  13.970  0.00  0.00    +0.000 NA
ENDBRANCH  22  23
ENDBRANCH   1  22
TORSDOF 7
ENDMDL
MODEL 8
REMARK VINA RESULT:      -7.2      4.341      6.134
REMARK  Name = 
REMARK  7 active torsions:
REMARK  status: ('A' for Active; 'I' for Inactive)
REMARK    1  A    between atoms: O_1  and  C_2
REMARK    2  A    between atoms: C_2  and  C_3
REMARK    3  A    between atoms: C_2  and  C_10
REMARK    4  A    between atoms: C_10  and  O_11
REMARK    5  A    between atoms: C_10  and  C_12
REMARK    6  A    between atoms: C_10  and  C_18
REMARK    7  A    between atoms: C_12  and  N_13
REMARK                            x       y       z     vdW  Elec       q    Type
REMARK                         _______ _______ _______ _____ _____    ______ ____
ROOT
ATOM      1  C   UNL     1       2.730   6.262  18.891  0.00  0.00    +0.000 C 
ENDROOT
BRANCH   1   2
ATOM      2  C   UNL     1       2.234   7.734  18.930  0.00  0.00    +0.000 A 
ATOM      3  C   UNL     1       2.478   8.619  17.860  0.00  0.00    +0.000 A 
ATOM      4  C   UNL     1       1.910   9.895  17.777  0.00  0.00    +0.000 A 
ATOM      5  C   UNL     1       1.113  10.354  18.811  0.00  0.00    +0.000 A 
ATOM      6 CL   UNL     1       0.379  11.903  18.699  0.00  0.00    +0.000 Cl
ATOM      7  C   UNL     1       0.935   9.570  19.941  0.00  0.00    +0.000 A 
ATOM      8  C   UNL     1       1.505   8.288  20.014  0.00  0.00    +0.000 A 
ATOM      9 CL   UNL     1       1.310   7.503  21.549  0.00  0.00    +0.000 Cl
ENDBRANCH   1   2
BRANCH   1  10
ATOM     10  O   UNL     1       2.082   5.723  17.699  0.00  0.00    +0.000 OA
ATOM     11  H   UNL     1       2.709   5.130  17.250  0.00  0.00    +0.000 HD
ENDBRANCH   1  10
BRANCH   1  12
ATOM     12  C   UNL     1       4.313   6.190  18.710  0.00  0.00    +0.000 C 
BRANCH  12  13
ATOM     13  C   UNL     1       4.786   5.653  17.357  0.00  0.00    +0.000 A 
ATOM     14  C   UNL     1       4.984   6.484  16.243  0.00  0.00    +0.000 A 
ATOM     15  C   UNL     1       5.522   5.973  15.058  0.00  0.00    +0.000 A 
ATOM     16  C   UNL     1       5.845   4.626  14.975  0.00  0.00    +0.000 A 
ATOM     17  F   UNL     1       6.393   4.145  13.852  0.00  0.00    +0.000 F 
ATOM     18  C   UNL     1       5.610   3.771  16.043  0.00  0.00    +0.000 A 
ATOM     19  C   UNL     1       5.070   4.280  17.225  0.00  0.00    +0.000 A 
ENDBRANCH  12  13
BRANCH  12  20
ATOM     20  O   UNL     1       4.944   5.531  19.805  0.00  0.00    +0.000 OA
ATOM     21  H   UNL     1       4.489   4.683  19.944  0.00  0.00    +0.000 HD
ENDBRANCH  12  20
ENDBRANCH   1  12
BRANCH   1  22
ATOM     22  C   UNL     1       2.220   5.320  20.045  0.00  0.00    +0.000 C 
BRANCH  22  23
ATOM     23  N   UNL     1       1.924   3.932  19.790  0.00  0.00    +0.000 N 
ATOM     24  C   UNL     1       0.686   3.357  19.702  0.00  0.00    +0.000 A 
ATOM     25  N   UNL     1       0.809   2.068  19.497  0.00  0.00    +0.000 NA
ATOM     26  C   UNL     1       2.157   1.914  19.362  0.00  0.00    +0.000 A 
ATOM     27  N   UNL     1       2.866   3.041  19.449  0.00  0.00    +0.000 NA
ENDBRANCH  22  23
ENDBRANCH   1  22
TORSDOF 7
ENDMDL
MODEL 9
REMARK VINA RESULT:      -7.2      3.905      5.815
REMARK  Name = 
REMARK  7 active torsions:
REMARK  status: ('A' for Active; 'I' for Inactive)
REMARK    1  A    between atoms: O_1  and  C_2
REMARK    2  A    between atoms: C_2  and  C_3
REMARK    3  A    between atoms: C_2  and  C_10
REMARK    4  A    between atoms: C_10  and  O_11
REMARK    5  A    between atoms: C_10  and  C_12
REMARK    6  A    between atoms: C_10  and  C_18
REMARK    7  A    between atoms: C_12  and  N_13
REMARK                            x       y       z     vdW  Elec       q    Type
REMARK                         _______ _______ _______ _____ _____    ______ ____
ROOT
ATOM      1  C   UNL     1       2.952   5.659  19.126  0.00  0.00    +0.000 C 
ENDROOT
BRANCH   1   2
ATOM      2  C   UNL     1       2.180   6.912  19.625  0.00  0.00    +0.000 A 
ATOM      3  C   UNL     1       1.540   6.928  20.880  0.00  0.00    +0.000 A 
ATOM      4  C   UNL     1       0.981   8.082  21.440  0.00  0.00    +0.000 A 
ATOM      5  C   UNL     1       0.994   9.264  20.719  0.00  0.00    +0.000 A 
ATOM      6 CL   UNL     1       0.347  10.694  21.415  0.00  0.00    +0.000 Cl
ATOM      7  C   UNL     1       1.507   9.276  19.431  0.00  0.00    +0.000 A 
ATOM      8  C   UNL     1       2.071   8.114  18.879  0.00  0.00    +0.000 A 
ATOM      9 CL   UNL     1       2.529   8.263  17.212  0.00  0.00    +0.000 Cl
ENDBRANCH   1   2
BRANCH   1  10
ATOM     10  O   UNL     1       2.222   5.275  17.922  0.00  0.00    +0.000 OA
ATOM     11  H   UNL     1       1.339   5.681  17.955  0.00  0.00    +0.000 HD
ENDBRANCH   1  10
BRANCH   1  12
ATOM     12  C   UNL     1       4.456   6.022  18.740  0.00  0.00    +0.000 C 
BRANCH  12  13
ATOM     13  C   UNL     1       4.890   5.575  17.341  0.00  0.00    +0.000 A 
ATOM     14  C   UNL     1       4.938   6.455  16.249  0.00  0.00    +0.000 A 
ATOM     15  C   UNL     1       5.446   6.036  15.016  0.00  0.00    +0.000 A 
ATOM     16  C   UNL     1       5.888   4.729  14.863  0.00  0.00    +0.000 A 
ATOM     17  F   UNL     1       6.406   4.338  13.693  0.00  0.00    +0.000 F 
ATOM     18  C   UNL     1       5.803   3.823  15.911  0.00  0.00    +0.000 A 
ATOM     19  C   UNL     1       5.293   4.240  17.142  0.00  0.00    +0.000 A 
ENDBRANCH  12  13
BRANCH  12  20
ATOM     20  O   UNL     1       5.378   5.616  19.748  0.00  0.00    +0.000 OA
ATOM     21  H   UNL     1       5.615   4.689  19.579  0.00  0.00    +0.000 HD
ENDBRANCH  12  20
ENDBRANCH   1  12
BRANCH   1  22
ATOM     22  C   UNL     1       2.865   4.376  20.034  0.00  0.00    +0.000 C 
BRANCH  22  23
ATOM     23  N   UNL     1       3.285   3.088  19.538  0.00  0.00    +0.000 N 
ATOM     24  C   UNL     1       4.269   2.290  20.050  0.00  0.00    +0.000 A 
ATOM     25  N   UNL     1       4.394   1.212  19.315  0.00  0.00    +0.000 NA
ATOM     26  C   UNL     1       3.382   1.347  18.412  0.00  0.00    +0.000 A 
ATOM     27  N   UNL     1       2.628   2.437  18.567  0.00  0.00    +0.000 NA
ENDBRANCH  22  23
ENDBRANCH   1  22
TORSDOF 7
ENDMDL
