MODEL 1
REMARK VINA RESULT:      -6.5      0.000      0.000
REMARK  Name = 
REMARK  8 active torsions:
REMARK  status: ('A' for Active; 'I' for Inactive)
REMARK    1  A    between atoms: C_1  and  C_2
REMARK    2  A    between atoms: C_2  and  O_3
REMARK    3  A    between atoms: O_3  and  C_4
REMARK    4  A    between atoms: C_9  and  N_10
REMARK    5  A    between atoms: C_11  and  O_13
REMARK    6  A    between atoms: O_13  and  C_14
REMARK    7  A    between atoms: C_14  and  C_15
REMARK    8  A    between atoms: C_15  and  N_16
REMARK                            x       y       z     vdW  Elec       q    Type
REMARK                         _______ _______ _______ _____ _____    ______ ____
ROOT
ATOM      1  N   UNL     1       5.825   3.916  18.593  0.00  0.00    +0.000 N 
ATOM      2  C   UNL     1       4.728   3.682  19.381  0.00  0.00    +0.000 C 
ATOM      3  O   UNL     1       4.236   2.562  19.485  0.00  0.00    +0.000 OA
ATOM      4  H   UNL     1       6.073   3.130  18.013  0.00  0.00    +0.000 HD
ENDROOT
BRANCH   1  10
ATOM      5  C   UNL     1       6.148   5.910  17.196  0.00  0.00    +0.000 A 
ATOM      6  C   UNL     1       6.876   7.081  16.939  0.00  0.00    +0.000 A 
ATOM      7  C   UNL     1       7.874   7.520  17.812  0.00  0.00    +0.000 A 
ATOM      8  C   UNL     1       8.167   6.779  18.947  0.00  0.00    +0.000 A 
ATOM      9  C   UNL     1       7.463   5.605  19.205  0.00  0.00    +0.000 A 
ATOM     10  C   UNL     1       6.451   5.155  18.340  0.00  0.00    +0.000 A 
BRANCH   5  11
ATOM     11  O   UNL     1       5.214   5.632  16.230  0.00  0.00    +0.000 OA
BRANCH  11  13
ATOM     12  C   UNL     1       6.058   3.869  14.837  0.00  0.00    +0.000 C 
ATOM     13  C   UNL     1       5.676   5.341  14.910  0.00  0.00    +0.000 C 
ENDBRANCH  11  13
ENDBRANCH   5  11
ENDBRANCH   1  10
BRANCH   2  14
ATOM     14  O   UNL     1       4.152   4.808  19.873  0.00  0.00    +0.000 OA
BRANCH  14  15
ATOM     15  C   UNL     1       2.826   5.029  19.387  0.00  0.00    +0.000 C 
BRANCH  15  16
ATOM     16  C   UNL     1       2.801   6.137  18.330  0.00  0.00    +0.000 C 
BRANCH  16  17
ATOM     17  N   UNL     1       2.500   7.466  18.903  0.00  0.00    +0.000 NA
ATOM     18  C   UNL     1       1.805   8.324  17.927  0.00  0.00    +0.000 C 
ATOM     19  C   UNL     1       1.499   9.705  18.500  0.00  0.00    +0.000 C 
ATOM     20  C   UNL     1       0.685   9.597  19.779  0.00  0.00    +0.000 C 
ATOM     21  C   UNL     1       1.384   8.672  20.767  0.00  0.00    +0.000 C 
ATOM     22  C   UNL     1       1.701   7.316  20.131  0.00  0.00    +0.000 C 
ENDBRANCH  16  17
ENDBRANCH  15  16
ENDBRANCH  14  15
ENDBRANCH   2  14
TORSDOF 7
ENDMDL
MODEL 2
REMARK VINA RESULT:      -6.4      2.288      4.722
REMARK  Name = 
REMARK  8 active torsions:
REMARK  status: ('A' for Active; 'I' for Inactive)
REMARK    1  A    between atoms: C_1  and  C_2
REMARK    2  A    between atoms: C_2  and  O_3
REMARK    3  A    between atoms: O_3  and  C_4
REMARK    4  A    between atoms: C_9  and  N_10
REMARK    5  A    between atoms: C_11  and  O_13
REMARK    6  A    between atoms: O_13  and  C_14
REMARK    7  A    between atoms: C_14  and  C_15
REMARK    8  A    between atoms: C_15  and  N_16
REMARK                            x       y       z     vdW  Elec       q    Type
REMARK                         _______ _______ _______ _____ _____    ______ ____
ROOT
ATOM      1  N   UNL     1       3.943   7.348  16.788  0.00  0.00    +0.000 N 
ATOM      2  C   UNL     1       3.081   7.664  17.806  0.00  0.00    +0.000 C 
ATOM      3  O   UNL     1       2.266   8.575  17.702  0.00  0.00    +0.000 OA
ATOM      4  H   UNL     1       3.938   8.023  16.038  0.00  0.00    +0.000 HD
ENDROOT
BRANCH   1  10
ATOM      5  C   UNL     1       6.304   6.712  17.015  0.00  0.00    +0.000 A 
ATOM      6  C   UNL     1       7.288   5.718  16.908  0.00  0.00    +0.000 A 
ATOM      7  C   UNL     1       6.951   4.395  16.615  0.00  0.00    +0.000 A 
ATOM      8  C   UNL     1       5.622   4.056  16.408  0.00  0.00    +0.000 A 
ATOM      9  C   UNL     1       4.638   5.037  16.495  0.00  0.00    +0.000 A 
ATOM     10  C   UNL     1       4.961   6.371  16.797  0.00  0.00    +0.000 A 
BRANCH   5  11
ATOM     11  O   UNL     1       6.819   7.952  17.303  0.00  0.00    +0.000 OA
BRANCH  11  13
ATOM     12  C   UNL     1       8.456   9.480  18.165  0.00  0.00    +0.000 C 
ATOM     13  C   UNL     1       8.080   8.018  17.971  0.00  0.00    +0.000 C 
ENDBRANCH  11  13
ENDBRANCH   5  11
ENDBRANCH   1  10
BRANCH   2  14
ATOM     14  O   UNL     1       3.334   7.007  18.966  0.00  0.00    +0.000 OA
BRANCH  14  15
ATOM     15  C   UNL     1       2.208   6.285  19.469  0.00  0.00    +0.000 C 
BRANCH  15  16
ATOM     16  C   UNL     1       2.635   5.254  20.518  0.00  0.00    +0.000 C 
BRANCH  16  17
ATOM     17  N   UNL     1       2.633   3.872  19.994  0.00  0.00    +0.000 NA
ATOM     18  C   UNL     1       1.838   3.769  18.758  0.00  0.00    +0.000 C 
ATOM     19  C   UNL     1       1.816   2.344  18.211  0.00  0.00    +0.000 C 
ATOM     20  C   UNL     1       3.226   1.829  17.973  0.00  0.00    +0.000 C 
ATOM     21  C   UNL     1       4.059   1.982  19.240  0.00  0.00    +0.000 C 
ATOM     22  C   UNL     1       4.016   3.418  19.765  0.00  0.00    +0.000 C 
ENDBRANCH  16  17
ENDBRANCH  15  16
ENDBRANCH  14  15
ENDBRANCH   2  14
TORSDOF 7
ENDMDL
MODEL 3
REMARK VINA RESULT:      -6.4      2.173      6.667
REMARK  Name = 
REMARK  8 active torsions:
REMARK  status: ('A' for Active; 'I' for Inactive)
REMARK    1  A    between atoms: C_1  and  C_2
REMARK    2  A    between atoms: C_2  and  O_3
REMARK    3  A    between atoms: O_3  and  C_4
REMARK    4  A    between atoms: C_9  and  N_10
REMARK    5  A    between atoms: C_11  and  O_13
REMARK    6  A    between atoms: O_13  and  C_14
REMARK    7  A    between atoms: C_14  and  C_15
REMARK    8  A    between atoms: C_15  and  N_16
REMARK                            x       y       z     vdW  Elec       q    Type
REMARK                         _______ _______ _______ _____ _____    ______ ____
ROOT
ATOM      1  N   UNL     1       5.149   3.788  19.531  0.00  0.00    +0.000 N 
ATOM      2  C   UNL     1       5.908   4.528  18.662  0.00  0.00    +0.000 C 
ATOM      3  O   UNL     1       7.109   4.705  18.843  0.00  0.00    +0.000 OA
ATOM      4  H   UNL     1       5.635   3.550  20.381  0.00  0.00    +0.000 HD
ENDROOT
BRANCH   1  10
ATOM      5  C   UNL     1       2.833   4.557  19.814  0.00  0.00    +0.000 A 
ATOM      6  C   UNL     1       1.467   4.243  19.841  0.00  0.00    +0.000 A 
ATOM      7  C   UNL     1       1.011   2.964  19.512  0.00  0.00    +0.000 A 
ATOM      8  C   UNL     1       1.924   1.979  19.167  0.00  0.00    +0.000 A 
ATOM      9  C   UNL     1       3.285   2.274  19.152  0.00  0.00    +0.000 A 
ATOM     10  C   UNL     1       3.758   3.558  19.473  0.00  0.00    +0.000 A 
BRANCH   5  11
ATOM     11  O   UNL     1       3.095   5.856  20.171  0.00  0.00    +0.000 OA
BRANCH  11  13
ATOM     12  C   UNL     1       2.540   7.559  18.573  0.00  0.00    +0.000 C 
ATOM     13  C   UNL     1       2.120   6.851  19.854  0.00  0.00    +0.000 C 
ENDBRANCH  11  13
ENDBRANCH   5  11
ENDBRANCH   1  10
BRANCH   2  14
ATOM     14  O   UNL     1       5.186   5.174  17.711  0.00  0.00    +0.000 OA
BRANCH  14  15
ATOM     15  C   UNL     1       5.841   5.235  16.442  0.00  0.00    +0.000 C 
BRANCH  15  16
ATOM     16  C   UNL     1       5.584   3.965  15.625  0.00  0.00    +0.000 C 
BRANCH  16  17
ATOM     17  N   UNL     1       6.437   3.878  14.421  0.00  0.00    +0.000 NA
ATOM     18  C   UNL     1       5.652   3.488  13.236  0.00  0.00    +0.000 C 
ATOM     19  C   UNL     1       6.522   3.381  11.987  0.00  0.00    +0.000 C 
ATOM     20  C   UNL     1       7.260   4.683  11.723  0.00  0.00    +0.000 C 
ATOM     21  C   UNL     1       8.032   5.107  12.966  0.00  0.00    +0.000 C 
ATOM     22  C   UNL     1       7.122   5.162  14.195  0.00  0.00    +0.000 C 
ENDBRANCH  16  17
ENDBRANCH  15  16
ENDBRANCH  14  15
ENDBRANCH   2  14
TORSDOF 7
ENDMDL
MODEL 4
REMARK VINA RESULT:      -6.3      2.151      6.625
REMARK  Name = 
REMARK  8 active torsions:
REMARK  status: ('A' for Active; 'I' for Inactive)
REMARK    1  A    between atoms: C_1  and  C_2
REMARK    2  A    between atoms: C_2  and  O_3
REMARK    3  A    between atoms: O_3  and  C_4
REMARK    4  A    between atoms: C_9  and  N_10
REMARK    5  A    between atoms: C_11  and  O_13
REMARK    6  A    between atoms: O_13  and  C_14
REMARK    7  A    between atoms: C_14  and  C_15
REMARK    8  A    between atoms: C_15  and  N_16
REMARK                            x       y       z     vdW  Elec       q    Type
REMARK                         _______ _______ _______ _____ _____    ______ ____
ROOT
ATOM      1  N   UNL     1       5.080   3.953  19.367  0.00  0.00    +0.000 N 
ATOM      2  C   UNL     1       5.745   5.035  18.853  0.00  0.00    +0.000 C 
ATOM      3  O   UNL     1       6.874   5.336  19.228  0.00  0.00    +0.000 OA
ATOM      4  H   UNL     1       5.540   3.545  20.165  0.00  0.00    +0.000 HD
ENDROOT
BRANCH   1  10
ATOM      5  C   UNL     1       2.656   4.050  19.756  0.00  0.00    +0.000 A 
ATOM      6  C   UNL     1       1.384   3.520  19.495  0.00  0.00    +0.000 A 
ATOM      7  C   UNL     1       1.201   2.509  18.549  0.00  0.00    +0.000 A 
ATOM      8  C   UNL     1       2.296   2.004  17.865  0.00  0.00    +0.000 A 
ATOM      9  C   UNL     1       3.567   2.509  18.127  0.00  0.00    +0.000 A 
ATOM     10  C   UNL     1       3.766   3.532  19.070  0.00  0.00    +0.000 A 
BRANCH   5  11
ATOM     11  O   UNL     1       2.646   5.030  20.716  0.00  0.00    +0.000 OA
BRANCH  11  13
ATOM     12  C   UNL     1       2.164   7.251  19.946  0.00  0.00    +0.000 C 
ATOM     13  C   UNL     1       1.619   6.020  20.656  0.00  0.00    +0.000 C 
ENDBRANCH  11  13
ENDBRANCH   5  11
ENDBRANCH   1  10
BRANCH   2  14
ATOM     14  O   UNL     1       4.984   5.819  18.047  0.00  0.00    +0.000 OA
BRANCH  14  15
ATOM     15  C   UNL     1       5.543   6.009  16.745  0.00  0.00    +0.000 C 
BRANCH  15  16
ATOM     16  C   UNL     1       5.901   4.669  16.095  0.00  0.00    +0.000 C 
BRANCH  16  17
ATOM     17  N   UNL     1       6.048   4.767  14.628  0.00  0.00    +0.000 NA
ATOM     18  C   UNL     1       7.438   5.076  14.248  0.00  0.00    +0.000 C 
ATOM     19  C   UNL     1       7.602   5.194  12.736  0.00  0.00    +0.000 C 
ATOM     20  C   UNL     1       7.136   3.928  12.036  0.00  0.00    +0.000 C 
ATOM     21  C   UNL     1       5.715   3.586  12.467  0.00  0.00    +0.000 C 
ATOM     22  C   UNL     1       5.597   3.518  13.992  0.00  0.00    +0.000 C 
ENDBRANCH  16  17
ENDBRANCH  15  16
ENDBRANCH  14  15
ENDBRANCH   2  14
TORSDOF 7
ENDMDL
MODEL 5
REMARK VINA RESULT:      -6.3      1.576      1.756
REMARK  Name = 
REMARK  8 active torsions:
REMARK  status: ('A' for Active; 'I' for Inactive)
REMARK    1  A    between atoms: C_1  and  C_2
REMARK    2  A    between atoms: C_2  and  O_3
REMARK    3  A    between atoms: O_3  and  C_4
REMARK    4  A    between atoms: C_9  and  N_10
REMARK    5  A    between atoms: C_11  and  O_13
REMARK    6  A    between atoms: O_13  and  C_14
REMARK    7  A    between atoms: C_14  and  C_15
REMARK    8  A    between atoms: C_15  and  N_16
REMARK                            x       y       z     vdW  Elec       q    Type
REMARK                         _______ _______ _______ _____ _____    ______ ____
ROOT
ATOM      1  N   UNL     1       4.252   3.037  17.628  0.00  0.00    +0.000 N 
ATOM      2  C   UNL     1       2.903   3.277  17.633  0.00  0.00    +0.000 C 
ATOM      3  O   UNL     1       2.084   2.364  17.587  0.00  0.00    +0.000 OA
ATOM      4  H   UNL     1       4.484   2.076  17.429  0.00  0.00    +0.000 HD
ENDROOT
BRANCH   1  10
ATOM      5  C   UNL     1       5.946   4.352  16.430  0.00  0.00    +0.000 A 
ATOM      6  C   UNL     1       7.045   5.222  16.492  0.00  0.00    +0.000 A 
ATOM      7  C   UNL     1       7.480   5.752  17.709  0.00  0.00    +0.000 A 
ATOM      8  C   UNL     1       6.830   5.400  18.882  0.00  0.00    +0.000 A 
ATOM      9  C   UNL     1       5.749   4.523  18.836  0.00  0.00    +0.000 A 
ATOM     10  C   UNL     1       5.294   3.989  17.619  0.00  0.00    +0.000 A 
BRANCH   5  11
ATOM     11  O   UNL     1       5.665   3.929  15.155  0.00  0.00    +0.000 OA
BRANCH  11  13
ATOM     12  C   UNL     1       6.174   3.581  12.836  0.00  0.00    +0.000 C 
ATOM     13  C   UNL     1       6.529   4.352  14.100  0.00  0.00    +0.000 C 
ENDBRANCH  11  13
ENDBRANCH   5  11
ENDBRANCH   1  10
BRANCH   2  14
ATOM     14  O   UNL     1       2.576   4.590  17.518  0.00  0.00    +0.000 OA
BRANCH  14  15
ATOM     15  C   UNL     1       1.828   5.090  18.628  0.00  0.00    +0.000 C 
BRANCH  15  16
ATOM     16  C   UNL     1       2.721   5.885  19.585  0.00  0.00    +0.000 C 
BRANCH  16  17
ATOM     17  N   UNL     1       2.462   7.339  19.534  0.00  0.00    +0.000 NA
ATOM     18  C   UNL     1       2.080   7.768  18.176  0.00  0.00    +0.000 C 
ATOM     19  C   UNL     1       1.823   9.270  18.105  0.00  0.00    +0.000 C 
ATOM     20  C   UNL     1       0.760   9.690  19.107  0.00  0.00    +0.000 C 
ATOM     21  C   UNL     1       1.136   9.204  20.501  0.00  0.00    +0.000 C 
ATOM     22  C   UNL     1       1.420   7.700  20.509  0.00  0.00    +0.000 C 
ENDBRANCH  16  17
ENDBRANCH  15  16
ENDBRANCH  14  15
ENDBRANCH   2  14
TORSDOF 7
ENDMDL
MODEL 6
REMARK VINA RESULT:      -6.3      2.072      6.236
REMARK  Name = 
REMARK  8 active torsions:
REMARK  status: ('A' for Active; 'I' for Inactive)
REMARK    1  A    between atoms: C_1  and  C_2
REMARK    2  A    between atoms: C_2  and  O_3
REMARK    3  A    between atoms: O_3  and  C_4
REMARK    4  A    between atoms: C_9  and  N_10
REMARK    5  A    between atoms: C_11  and  O_13
REMARK    6  A    between atoms: O_13  and  C_14
REMARK    7  A    between atoms: C_14  and  C_15
REMARK    8  A    between atoms: C_15  and  N_16
REMARK                            x       y       z     vdW  Elec       q    Type
REMARK                         _______ _______ _______ _____ _____    ______ ____
ROOT
ATOM      1  N   UNL     1       2.280   6.176  20.832  0.00  0.00    +0.000 N 
ATOM      2  C   UNL     1       1.978   4.863  20.580  0.00  0.00    +0.000 C 
ATOM      3  O   UNL     1       2.211   3.978  21.399  0.00  0.00    +0.000 OA
ATOM      4  H   UNL     1       2.834   6.304  21.665  0.00  0.00    +0.000 HD
ENDROOT
BRANCH   1  10
ATOM      5  C   UNL     1       1.257   8.337  20.273  0.00  0.00    +0.000 A 
ATOM      6  C   UNL     1       1.054   9.352  19.326  0.00  0.00    +0.000 A 
ATOM      7  C   UNL     1       1.716   9.337  18.096  0.00  0.00    +0.000 A 
ATOM      8  C   UNL     1       2.576   8.292  17.793  0.00  0.00    +0.000 A 
ATOM      9  C   UNL     1       2.772   7.269  18.718  0.00  0.00    +0.000 A 
ATOM     10  C   UNL     1       2.120   7.275  19.963  0.00  0.00    +0.000 A 
BRANCH   5  11
ATOM     11  O   UNL     1       0.522   8.514  21.419  0.00  0.00    +0.000 OA
BRANCH  11  13
ATOM     12  C   UNL     1      -0.383   9.933  23.130  0.00  0.00    +0.000 C 
ATOM     13  C   UNL     1      -0.072   9.793  21.646  0.00  0.00    +0.000 C 
ENDBRANCH  11  13
ENDBRANCH   5  11
ENDBRANCH   1  10
BRANCH   2  14
ATOM     14  O   UNL     1       1.577   4.624  19.305  0.00  0.00    +0.000 OA
BRANCH  14  15
ATOM     15  C   UNL     1       2.062   3.387  18.778  0.00  0.00    +0.000 C 
BRANCH  15  16
ATOM     16  C   UNL     1       2.742   3.592  17.421  0.00  0.00    +0.000 C 
BRANCH  16  17
ATOM     17  N   UNL     1       3.981   4.392  17.518  0.00  0.00    +0.000 NA
ATOM     18  C   UNL     1       4.817   3.951  18.648  0.00  0.00    +0.000 C 
ATOM     19  C   UNL     1       6.094   4.777  18.769  0.00  0.00    +0.000 C 
ATOM     20  C   UNL     1       6.894   4.736  17.477  0.00  0.00    +0.000 C 
ATOM     21  C   UNL     1       6.013   5.148  16.304  0.00  0.00    +0.000 C 
ATOM     22  C   UNL     1       4.730   4.315  16.252  0.00  0.00    +0.000 C 
ENDBRANCH  16  17
ENDBRANCH  15  16
ENDBRANCH  14  15
ENDBRANCH   2  14
TORSDOF 7
ENDMDL
MODEL 7
REMARK VINA RESULT:      -6.3      0.938      1.421
REMARK  Name = 
REMARK  8 active torsions:
REMARK  status: ('A' for Active; 'I' for Inactive)
REMARK    1  A    between atoms: C_1  and  C_2
REMARK    2  A    between atoms: C_2  and  O_3
REMARK    3  A    between atoms: O_3  and  C_4
REMARK    4  A    between atoms: C_9  and  N_10
REMARK    5  A    between atoms: C_11  and  O_13
REMARK    6  A    between atoms: O_13  and  C_14
REMARK    7  A    between atoms: C_14  and  C_15
REMARK    8  A    between atoms: C_15  and  N_16
REMARK                            x       y       z     vdW  Elec       q    Type
REMARK                         _______ _______ _______ _____ _____    ______ ____
ROOT
ATOM      1  N   UNL     1       5.462   3.425  18.551  0.00  0.00    +0.000 N 
ATOM      2  C   UNL     1       4.106   3.246  18.636  0.00  0.00    +0.000 C 
ATOM      3  O   UNL     1       3.614   2.142  18.851  0.00  0.00    +0.000 OA
ATOM      4  H   UNL     1       5.978   2.560  18.528  0.00  0.00    +0.000 HD
ENDROOT
BRANCH   1  10
ATOM      5  C   UNL     1       6.162   5.157  16.957  0.00  0.00    +0.000 A 
ATOM      6  C   UNL     1       6.951   6.287  16.692  0.00  0.00    +0.000 A 
ATOM      7  C   UNL     1       7.702   6.897  17.698  0.00  0.00    +0.000 A 
ATOM      8  C   UNL     1       7.685   6.371  18.981  0.00  0.00    +0.000 A 
ATOM      9  C   UNL     1       6.920   5.239  19.253  0.00  0.00    +0.000 A 
ATOM     10  C   UNL     1       6.152   4.619  18.253  0.00  0.00    +0.000 A 
BRANCH   5  11
ATOM     11  O   UNL     1       5.499   4.691  15.849  0.00  0.00    +0.000 OA
BRANCH  11  13
ATOM     12  C   UNL     1       6.456   4.242  13.695  0.00  0.00    +0.000 C 
ATOM     13  C   UNL     1       6.126   3.673  15.067  0.00  0.00    +0.000 C 
ENDBRANCH  11  13
ENDBRANCH   5  11
ENDBRANCH   1  10
BRANCH   2  14
ATOM     14  O   UNL     1       3.381   4.341  18.291  0.00  0.00    +0.000 OA
BRANCH  14  15
ATOM     15  C   UNL     1       2.583   4.854  19.359  0.00  0.00    +0.000 C 
BRANCH  15  16
ATOM     16  C   UNL     1       3.025   6.267  19.751  0.00  0.00    +0.000 C 
BRANCH  16  17
ATOM     17  N   UNL     1       2.022   7.296  19.407  0.00  0.00    +0.000 NA
ATOM     18  C   UNL     1       1.737   8.172  20.558  0.00  0.00    +0.000 C 
ATOM     19  C   UNL     1       0.692   9.232  20.222  0.00  0.00    +0.000 C 
ATOM     20  C   UNL     1       1.122  10.062  19.024  0.00  0.00    +0.000 C 
ATOM     21  C   UNL     1       1.461   9.150  17.851  0.00  0.00    +0.000 C 
ATOM     22  C   UNL     1       2.483   8.084  18.252  0.00  0.00    +0.000 C 
ENDBRANCH  16  17
ENDBRANCH  15  16
ENDBRANCH  14  15
ENDBRANCH   2  14
TORSDOF 7
ENDMDL
MODEL 8
REMARK VINA RESULT:      -6.2      3.168      5.685
REMARK  Name = 
REMARK  8 active torsions:
REMARK  status: ('A' for Active; 'I' for Inactive)
REMARK    1  A    between atoms: C_1  and  C_2
REMARK    2  A    between atoms: C_2  and  O_3
REMARK    3  A    between atoms: O_3  and  C_4
REMARK    4  A    between atoms: C_9  and  N_10
REMARK    5  A    between atoms: C_11  and  O_13
REMARK    6  A    between atoms: O_13  and  C_14
REMARK    7  A    between atoms: C_14  and  C_15
REMARK    8  A    between atoms: C_15  and  N_16
REMARK                            x       y       z     vdW  Elec       q    Type
REMARK                         _______ _______ _______ _____ _____    ______ ____
ROOT
ATOM      1  N   UNL     1       7.023   4.518  18.226  0.00  0.00    +0.000 N 
ATOM      2  C   UNL     1       7.381   5.610  18.973  0.00  0.00    +0.000 C 
ATOM      3  O   UNL     1       7.719   5.505  20.148  0.00  0.00    +0.000 OA
ATOM      4  H   UNL     1       6.920   3.678  18.773  0.00  0.00    +0.000 HD
ENDROOT
BRANCH   1  10
ATOM      5  C   UNL     1       5.222   4.225  16.582  0.00  0.00    +0.000 A 
ATOM      6  C   UNL     1       4.840   4.119  15.236  0.00  0.00    +0.000 A 
ATOM      7  C   UNL     1       5.762   4.313  14.205  0.00  0.00    +0.000 A 
ATOM      8  C   UNL     1       7.084   4.598  14.512  0.00  0.00    +0.000 A 
ATOM      9  C   UNL     1       7.479   4.689  15.844  0.00  0.00    +0.000 A 
ATOM     10  C   UNL     1       6.562   4.504  16.893  0.00  0.00    +0.000 A 
BRANCH   5  11
ATOM     11  O   UNL     1       4.187   3.999  17.455  0.00  0.00    +0.000 OA
BRANCH  11  13
ATOM     12  C   UNL     1       1.925   4.611  17.971  0.00  0.00    +0.000 C 
ATOM     13  C   UNL     1       3.357   5.103  17.816  0.00  0.00    +0.000 C 
ENDBRANCH  11  13
ENDBRANCH   5  11
ENDBRANCH   1  10
BRANCH   2  14
ATOM     14  O   UNL     1       7.159   6.798  18.355  0.00  0.00    +0.000 OA
BRANCH  14  15
ATOM     15  C   UNL     1       8.261   7.703  18.449  0.00  0.00    +0.000 C 
BRANCH  15  16
ATOM     16  C   UNL     1       7.900   9.077  17.877  0.00  0.00    +0.000 C 
BRANCH  16  17
ATOM     17  N   UNL     1       8.930  10.100  18.154  0.00  0.00    +0.000 NA
ATOM     18  C   UNL     1       8.506  11.429  17.679  0.00  0.00    +0.000 C 
ATOM     19  C   UNL     1       9.565  12.494  17.946  0.00  0.00    +0.000 C 
ATOM     20  C   UNL     1       9.921  12.553  19.423  0.00  0.00    +0.000 C 
ATOM     21  C   UNL     1      10.313  11.167  19.920  0.00  0.00    +0.000 C 
ATOM     22  C   UNL     1       9.235  10.132  19.594  0.00  0.00    +0.000 C 
ENDBRANCH  16  17
ENDBRANCH  15  16
ENDBRANCH  14  15
ENDBRANCH   2  14
TORSDOF 7
ENDMDL
MODEL 9
REMARK VINA RESULT:      -6.2      2.295      4.303
REMARK  Name = 
REMARK  8 active torsions:
REMARK  status: ('A' for Active; 'I' for Inactive)
REMARK    1  A    between atoms: C_1  and  C_2
REMARK    2  A    between atoms: C_2  and  O_3
REMARK    3  A    between atoms: O_3  and  C_4
REMARK    4  A    between atoms: C_9  and  N_10
REMARK    5  A    between atoms: C_11  and  O_13
REMARK    6  A    between atoms: O_13  and  C_14
REMARK    7  A    between atoms: C_14  and  C_15
REMARK    8  A    between atoms: C_15  and  N_16
REMARK                            x       y       z     vdW  Elec       q    Type
REMARK                         _______ _______ _______ _____ _____    ______ ____
ROOT
ATOM      1  N   UNL     1       7.379   6.127  18.298  0.00  0.00    +0.000 N 
ATOM      2  C   UNL     1       7.250   5.351  19.421  0.00  0.00    +0.000 C 
ATOM      3  O   UNL     1       7.832   5.626  20.466  0.00  0.00    +0.000 OA
ATOM      4  H   UNL     1       8.098   6.829  18.380  0.00  0.00    +0.000 HD
ENDROOT
BRANCH   1  10
ATOM      5  C   UNL     1       5.625   6.517  16.624  0.00  0.00    +0.000 A 
ATOM      6  C   UNL     1       5.053   6.169  15.391  0.00  0.00    +0.000 A 
ATOM      7  C   UNL     1       5.663   5.238  14.548  0.00  0.00    +0.000 A 
ATOM      8  C   UNL     1       6.846   4.629  14.940  0.00  0.00    +0.000 A 
ATOM      9  C   UNL     1       7.414   4.953  16.170  0.00  0.00    +0.000 A 
ATOM     10  C   UNL     1       6.817   5.895  17.025  0.00  0.00    +0.000 A 
BRANCH   5  11
ATOM     11  O   UNL     1       4.886   7.442  17.319  0.00  0.00    +0.000 OA
BRANCH  11  13
ATOM     12  C   UNL     1       2.909   6.784  18.510  0.00  0.00    +0.000 C 
ATOM     13  C   UNL     1       3.463   7.378  17.222  0.00  0.00    +0.000 C 
ENDBRANCH  11  13
ENDBRANCH   5  11
ENDBRANCH   1  10
BRANCH   2  14
ATOM     14  O   UNL     1       6.581   4.188  19.214  0.00  0.00    +0.000 OA
BRANCH  14  15
ATOM     15  C   UNL     1       5.169   4.303  19.400  0.00  0.00    +0.000 C 
BRANCH  15  16
ATOM     16  C   UNL     1       4.409   3.348  18.475  0.00  0.00    +0.000 C 
BRANCH  16  17
ATOM     17  N   UNL     1       3.166   2.831  19.084  0.00  0.00    +0.000 NA
ATOM     18  C   UNL     1       2.944   3.408  20.422  0.00  0.00    +0.000 C 
ATOM     19  C   UNL     1       1.670   2.873  21.069  0.00  0.00    +0.000 C 
ATOM     20  C   UNL     1       0.461   3.123  20.183  0.00  0.00    +0.000 C 
ATOM     21  C   UNL     1       0.713   2.566  18.787  0.00  0.00    +0.000 C 
ATOM     22  C   UNL     1       2.020   3.104  18.200  0.00  0.00    +0.000 C 
ENDBRANCH  16  17
ENDBRANCH  15  16
ENDBRANCH  14  15
ENDBRANCH   2  14
TORSDOF 7
ENDMDL
