MODEL 1
REMARK VINA RESULT:      -8.0      0.000      0.000
REMARK  Name = 
REMARK  6 active torsions:
REMARK  status: ('A' for Active; 'I' for Inactive)
REMARK    1  A    between atoms: C_1  and  C_2
REMARK    2  A    between atoms: C_2  and  N_3
REMARK    3  A    between atoms: C_13  and  S_14
REMARK    4  A    between atoms: S_14  and  C_15
REMARK    5  A    between atoms: C_15  and  C_16
REMARK    6  A    between atoms: C_21  and  C_22
REMARK                            x       y       z     vdW  Elec       q    Type
REMARK                         _______ _______ _______ _____ _____    ______ ____
ROOT
ATOM      1  N   UNL     1       2.640   4.923  19.974  0.00  0.00    +0.000 N 
ATOM      2  C   UNL     1       3.407   4.677  18.851  0.00  0.00    +0.000 A 
ATOM      3  C   UNL     1       4.034   3.499  18.407  0.00  0.00    +0.000 A 
ATOM      4  C   UNL     1       4.775   3.552  17.225  0.00  0.00    +0.000 A 
ATOM      5  C   UNL     1       4.894   4.738  16.509  0.00  0.00    +0.000 A 
ATOM      6  C   UNL     1       4.259   5.910  16.950  0.00  0.00    +0.000 A 
ATOM      7  C   UNL     1       3.495   5.885  18.138  0.00  0.00    +0.000 A 
ATOM      8  C   UNL     1       2.723   6.847  18.853  0.00  0.00    +0.000 A 
ATOM      9  N   UNL     1       2.434   8.158  18.630  0.00  0.00    +0.000 NA
ATOM     10  N   UNL     1       1.663   8.766  19.552  0.00  0.00    +0.000 NA
ATOM     11  C   UNL     1       1.189   8.087  20.634  0.00  0.00    +0.000 A 
ATOM     12  N   UNL     1       1.426   6.795  20.908  0.00  0.00    +0.000 NA
ATOM     13  C   UNL     1       2.206   6.223  19.974  0.00  0.00    +0.000 A 
ENDROOT
BRANCH   1  15
ATOM     14  C   UNL     1       1.123   3.140  20.764  0.00  0.00    +0.000 C 
ATOM     15  C   UNL     1       2.357   3.978  21.040  0.00  0.00    +0.000 C 
ENDBRANCH   1  15
BRANCH  11  16
ATOM     16  S   UNL     1       0.222   8.942  21.858  0.00  0.00    +0.000 S 
BRANCH  16  17
ATOM     17  C   UNL     1       0.337  10.674  21.326  0.00  0.00    +0.000 C 
BRANCH  17  18
ATOM     18  C   UNL     1      -0.798  11.065  20.405  0.00  0.00    +0.000 C 
ATOM     19  O   UNL     1      -1.685  11.815  20.799  0.00  0.00    +0.000 OA
ATOM     20  N   UNL     1      -0.714  10.487  19.147  0.00  0.00    +0.000 N 
ATOM     21  C   UNL     1      -1.640  10.727  18.151  0.00  0.00    +0.000 A 
ATOM     22  C   UNL     1      -1.816   9.909  17.006  0.00  0.00    +0.000 A 
ATOM     23  C   UNL     1      -2.852  10.506  16.318  0.00  0.00    +0.000 A 
ATOM     24  C   UNL     1      -3.594  10.205  15.088  0.00  0.00    +0.000 C 
ATOM     25  O   UNL     1      -3.239  11.626  16.981  0.00  0.00    +0.000 OA
ATOM     26  N   UNL     1      -2.485  11.758  18.126  0.00  0.00    +0.000 NA
ATOM     27  H   UNL     1      -0.068   9.721  18.991  0.00  0.00    +0.000 HD
ENDBRANCH  17  18
ENDBRANCH  16  17
ENDBRANCH  11  16
TORSDOF 4
ENDMDL
MODEL 2
REMARK VINA RESULT:      -7.9      1.143      1.478
REMARK  Name = 
REMARK  6 active torsions:
REMARK  status: ('A' for Active; 'I' for Inactive)
REMARK    1  A    between atoms: C_1  and  C_2
REMARK    2  A    between atoms: C_2  and  N_3
REMARK    3  A    between atoms: C_13  and  S_14
REMARK    4  A    between atoms: S_14  and  C_15
REMARK    5  A    between atoms: C_15  and  C_16
REMARK    6  A    between atoms: C_21  and  C_22
REMARK                            x       y       z     vdW  Elec       q    Type
REMARK                         _______ _______ _______ _____ _____    ______ ____
ROOT
ATOM      1  N   UNL     1       3.881   4.714  18.535  0.00  0.00    +0.000 N 
ATOM      2  C   UNL     1       4.587   4.752  17.347  0.00  0.00    +0.000 A 
ATOM      3  C   UNL     1       5.341   3.761  16.695  0.00  0.00    +0.000 A 
ATOM      4  C   UNL     1       5.975   4.096  15.497  0.00  0.00    +0.000 A 
ATOM      5  C   UNL     1       5.867   5.376  14.965  0.00  0.00    +0.000 A 
ATOM      6  C   UNL     1       5.106   6.361  15.615  0.00  0.00    +0.000 A 
ATOM      7  C   UNL     1       4.446   6.049  16.824  0.00  0.00    +0.000 A 
ATOM      8  C   UNL     1       3.601   6.768  17.719  0.00  0.00    +0.000 A 
ATOM      9  N   UNL     1       3.110   8.037  17.715  0.00  0.00    +0.000 NA
ATOM     10  N   UNL     1       2.332   8.381  18.759  0.00  0.00    +0.000 NA
ATOM     11  C   UNL     1       2.045   7.490  19.749  0.00  0.00    +0.000 A 
ATOM     12  N   UNL     1       2.486   6.223  19.808  0.00  0.00    +0.000 NA
ATOM     13  C   UNL     1       3.266   5.918  18.757  0.00  0.00    +0.000 A 
ENDROOT
BRANCH   1  15
ATOM     14  C   UNL     1       2.761   2.578  19.070  0.00  0.00    +0.000 C 
ATOM     15  C   UNL     1       3.819   3.594  19.456  0.00  0.00    +0.000 C 
ENDBRANCH   1  15
BRANCH  11  16
ATOM     16  S   UNL     1       1.060   8.001  21.139  0.00  0.00    +0.000 S 
BRANCH  16  17
ATOM     17  C   UNL     1       1.104   9.812  21.021  0.00  0.00    +0.000 C 
BRANCH  17  18
ATOM     18  C   UNL     1      -0.180  10.377  20.454  0.00  0.00    +0.000 C 
ATOM     19  O   UNL     1      -0.969  10.973  21.181  0.00  0.00    +0.000 OA
ATOM     20  N   UNL     1      -0.341  10.134  19.099  0.00  0.00    +0.000 N 
ATOM     21  C   UNL     1      -1.436  10.580  18.383  0.00  0.00    +0.000 A 
ATOM     22  C   UNL     1      -1.833  10.066  17.123  0.00  0.00    +0.000 A 
ATOM     23  C   UNL     1      -2.974  10.777  16.811  0.00  0.00    +0.000 A 
ATOM     24  C   UNL     1      -3.937  10.765  15.705  0.00  0.00    +0.000 C 
ATOM     25  O   UNL     1      -3.217  11.682  17.794  0.00  0.00    +0.000 OA
ATOM     26  N   UNL     1      -2.259  11.553  18.776  0.00  0.00    +0.000 NA
ATOM     27  H   UNL     1       0.255   9.456  18.638  0.00  0.00    +0.000 HD
ENDBRANCH  17  18
ENDBRANCH  16  17
ENDBRANCH  11  16
TORSDOF 4
ENDMDL
MODEL 3
REMARK VINA RESULT:      -7.8      5.994      8.439
REMARK  Name = 
REMARK  6 active torsions:
REMARK  status: ('A' for Active; 'I' for Inactive)
REMARK    1  A    between atoms: C_1  and  C_2
REMARK    2  A    between atoms: C_2  and  N_3
REMARK    3  A    between atoms: C_13  and  S_14
REMARK    4  A    between atoms: S_14  and  C_15
REMARK    5  A    between atoms: C_15  and  C_16
REMARK    6  A    between atoms: C_21  and  C_22
REMARK                            x       y       z     vdW  Elec       q    Type
REMARK                         _______ _______ _______ _____ _____    ______ ____
ROOT
ATOM      1  N   UNL     1       2.836   5.687  18.715  0.00  0.00    +0.000 N 
ATOM      2  C   UNL     1       2.326   4.637  19.455  0.00  0.00    +0.000 A 
ATOM      3  C   UNL     1       1.004   4.329  19.822  0.00  0.00    +0.000 A 
ATOM      4  C   UNL     1       0.786   3.195  20.607  0.00  0.00    +0.000 A 
ATOM      5  C   UNL     1       1.846   2.396  21.020  0.00  0.00    +0.000 A 
ATOM      6  C   UNL     1       3.164   2.703  20.644  0.00  0.00    +0.000 A 
ATOM      7  C   UNL     1       3.415   3.838  19.842  0.00  0.00    +0.000 A 
ATOM      8  C   UNL     1       4.584   4.425  19.275  0.00  0.00    +0.000 A 
ATOM      9  N   UNL     1       5.900   4.081  19.296  0.00  0.00    +0.000 NA
ATOM     10  N   UNL     1       6.744   4.901  18.641  0.00  0.00    +0.000 NA
ATOM     11  C   UNL     1       6.287   6.002  17.980  0.00  0.00    +0.000 A 
ATOM     12  N   UNL     1       5.004   6.392  17.910  0.00  0.00    +0.000 NA
ATOM     13  C   UNL     1       4.193   5.557  18.583  0.00  0.00    +0.000 A 
ENDROOT
BRANCH   1  15
ATOM     14  C   UNL     1       2.072   8.003  19.110  0.00  0.00    +0.000 C 
ATOM     15  C   UNL     1       2.077   6.804  18.181  0.00  0.00    +0.000 C 
ENDBRANCH   1  15
BRANCH  11  16
ATOM     16  S   UNL     1       7.441   7.091  17.176  0.00  0.00    +0.000 S 
BRANCH  16  17
ATOM     17  C   UNL     1       8.348   7.820  18.569  0.00  0.00    +0.000 C 
BRANCH  17  18
ATOM     18  C   UNL     1       8.532   9.313  18.410  0.00  0.00    +0.000 C 
ATOM     19  O   UNL     1       7.899   9.928  17.557  0.00  0.00    +0.000 OA
ATOM     20  N   UNL     1       9.460   9.853  19.287  0.00  0.00    +0.000 N 
ATOM     21  C   UNL     1       9.764  11.200  19.319  0.00  0.00    +0.000 A 
ATOM     22  C   UNL     1      10.931  11.745  19.912  0.00  0.00    +0.000 A 
ATOM     23  C   UNL     1      10.827  13.102  19.682  0.00  0.00    +0.000 A 
ATOM     24  C   UNL     1      11.665  14.272  19.964  0.00  0.00    +0.000 C 
ATOM     25  O   UNL     1       9.660  13.355  19.036  0.00  0.00    +0.000 OA
ATOM     26  N   UNL     1       9.001  12.167  18.807  0.00  0.00    +0.000 NA
ATOM     27  H   UNL     1      10.080   9.237  19.801  0.00  0.00    +0.000 HD
ENDBRANCH  17  18
ENDBRANCH  16  17
ENDBRANCH  11  16
TORSDOF 4
ENDMDL
MODEL 4
REMARK VINA RESULT:      -7.7      4.165      8.144
REMARK  Name = 
REMARK  6 active torsions:
REMARK  status: ('A' for Active; 'I' for Inactive)
REMARK    1  A    between atoms: C_1  and  C_2
REMARK    2  A    between atoms: C_2  and  N_3
REMARK    3  A    between atoms: C_13  and  S_14
REMARK    4  A    between atoms: S_14  and  C_15
REMARK    5  A    between atoms: C_15  and  C_16
REMARK    6  A    between atoms: C_21  and  C_22
REMARK                            x       y       z     vdW  Elec       q    Type
REMARK                         _______ _______ _______ _____ _____    ______ ____
ROOT
ATOM      1  N   UNL     1       1.063   9.713  20.907  0.00  0.00    +0.000 N 
ATOM      2  C   UNL     1       0.743  11.000  20.518  0.00  0.00    +0.000 A 
ATOM      3  C   UNL     1       0.241  12.085  21.258  0.00  0.00    +0.000 A 
ATOM      4  C   UNL     1      -0.014  13.281  20.584  0.00  0.00    +0.000 A 
ATOM      5  C   UNL     1       0.218  13.394  19.217  0.00  0.00    +0.000 A 
ATOM      6  C   UNL     1       0.728  12.311  18.484  0.00  0.00    +0.000 A 
ATOM      7  C   UNL     1       1.004  11.092  19.140  0.00  0.00    +0.000 A 
ATOM      8  C   UNL     1       1.527   9.830  18.731  0.00  0.00    +0.000 A 
ATOM      9  N   UNL     1       1.968   9.349  17.537  0.00  0.00    +0.000 NA
ATOM     10  N   UNL     1       2.390   8.071  17.524  0.00  0.00    +0.000 NA
ATOM     11  C   UNL     1       2.390   7.317  18.660  0.00  0.00    +0.000 A 
ATOM     12  N   UNL     1       1.980   7.731  19.869  0.00  0.00    +0.000 NA
ATOM     13  C   UNL     1       1.556   9.007  19.842  0.00  0.00    +0.000 A 
ENDROOT
BRANCH   1  15
ATOM     14  C   UNL     1      -0.586   8.876  22.545  0.00  0.00    +0.000 C 
ATOM     15  C   UNL     1       0.873   9.148  22.231  0.00  0.00    +0.000 C 
ENDBRANCH   1  15
BRANCH  11  16
ATOM     16  S   UNL     1       2.903   5.615  18.589  0.00  0.00    +0.000 S 
BRANCH  16  17
ATOM     17  C   UNL     1       4.674   5.711  18.971  0.00  0.00    +0.000 C 
BRANCH  17  18
ATOM     18  C   UNL     1       5.515   5.918  17.731  0.00  0.00    +0.000 C 
ATOM     19  O   UNL     1       6.176   6.944  17.594  0.00  0.00    +0.000 OA
ATOM     20  N   UNL     1       5.432   4.873  16.823  0.00  0.00    +0.000 N 
ATOM     21  C   UNL     1       6.134   4.856  15.634  0.00  0.00    +0.000 A 
ATOM     22  C   UNL     1       5.820   4.025  14.529  0.00  0.00    +0.000 A 
ATOM     23  C   UNL     1       6.754   4.365  13.572  0.00  0.00    +0.000 A 
ATOM     24  C   UNL     1       7.020   3.959  12.188  0.00  0.00    +0.000 C 
ATOM     25  O   UNL     1       7.593   5.302  14.083  0.00  0.00    +0.000 OA
ATOM     26  N   UNL     1       7.201   5.610  15.368  0.00  0.00    +0.000 NA
ATOM     27  H   UNL     1       4.700   4.178  16.928  0.00  0.00    +0.000 HD
ENDBRANCH  17  18
ENDBRANCH  16  17
ENDBRANCH  11  16
TORSDOF 4
ENDMDL
MODEL 5
REMARK VINA RESULT:      -7.7      2.730      3.519
REMARK  Name = 
REMARK  6 active torsions:
REMARK  status: ('A' for Active; 'I' for Inactive)
REMARK    1  A    between atoms: C_1  and  C_2
REMARK    2  A    between atoms: C_2  and  N_3
REMARK    3  A    between atoms: C_13  and  S_14
REMARK    4  A    between atoms: S_14  and  C_15
REMARK    5  A    between atoms: C_15  and  C_16
REMARK    6  A    between atoms: C_21  and  C_22
REMARK                            x       y       z     vdW  Elec       q    Type
REMARK                         _______ _______ _______ _____ _____    ______ ____
ROOT
ATOM      1  N   UNL     1       3.564   4.885  18.791  0.00  0.00    +0.000 N 
ATOM      2  C   UNL     1       4.307   4.847  17.626  0.00  0.00    +0.000 A 
ATOM      3  C   UNL     1       5.023   3.796  17.027  0.00  0.00    +0.000 A 
ATOM      4  C   UNL     1       5.710   4.058  15.841  0.00  0.00    +0.000 A 
ATOM      5  C   UNL     1       5.692   5.326  15.269  0.00  0.00    +0.000 A 
ATOM      6  C   UNL     1       4.969   6.371  15.866  0.00  0.00    +0.000 A 
ATOM      7  C   UNL     1       4.256   6.133  17.062  0.00  0.00    +0.000 A 
ATOM      8  C   UNL     1       3.427   6.926  17.908  0.00  0.00    +0.000 A 
ATOM      9  N   UNL     1       3.009   8.220  17.853  0.00  0.00    +0.000 NA
ATOM     10  N   UNL     1       2.221   8.639  18.861  0.00  0.00    +0.000 NA
ATOM     11  C   UNL     1       1.854   7.795  19.866  0.00  0.00    +0.000 A 
ATOM     12  N   UNL     1       2.219   6.508  19.976  0.00  0.00    +0.000 NA
ATOM     13  C   UNL     1       3.013   6.128  18.959  0.00  0.00    +0.000 A 
ENDROOT
BRANCH   1  15
ATOM     14  C   UNL     1       2.205   2.927  19.442  0.00  0.00    +0.000 C 
ATOM     15  C   UNL     1       3.410   3.799  19.742  0.00  0.00    +0.000 C 
ENDBRANCH   1  15
BRANCH  11  16
ATOM     16  S   UNL     1       0.859   8.404  21.209  0.00  0.00    +0.000 S 
BRANCH  16  17
ATOM     17  C   UNL     1      -0.071   9.760  20.441  0.00  0.00    +0.000 C 
BRANCH  17  18
ATOM     18  C   UNL     1       0.658  11.082  20.546  0.00  0.00    +0.000 C 
ATOM     19  O   UNL     1       0.672  11.699  21.606  0.00  0.00    +0.000 OA
ATOM     20  N   UNL     1       1.254  11.481  19.359  0.00  0.00    +0.000 N 
ATOM     21  C   UNL     1       1.983  12.649  19.243  0.00  0.00    +0.000 A 
ATOM     22  C   UNL     1       2.293  13.282  18.013  0.00  0.00    +0.000 A 
ATOM     23  C   UNL     1       2.997  14.411  18.380  0.00  0.00    +0.000 A 
ATOM     24  C   UNL     1       3.593  15.543  17.664  0.00  0.00    +0.000 C 
ATOM     25  O   UNL     1       3.135  14.429  19.731  0.00  0.00    +0.000 OA
ATOM     26  N   UNL     1       2.498  13.331  20.267  0.00  0.00    +0.000 NA
ATOM     27  H   UNL     1       1.006  11.014  18.494  0.00  0.00    +0.000 HD
ENDBRANCH  17  18
ENDBRANCH  16  17
ENDBRANCH  11  16
TORSDOF 4
ENDMDL
MODEL 6
REMARK VINA RESULT:      -7.6      1.376      2.807
REMARK  Name = 
REMARK  6 active torsions:
REMARK  status: ('A' for Active; 'I' for Inactive)
REMARK    1  A    between atoms: C_1  and  C_2
REMARK    2  A    between atoms: C_2  and  N_3
REMARK    3  A    between atoms: C_13  and  S_14
REMARK    4  A    between atoms: S_14  and  C_15
REMARK    5  A    between atoms: C_15  and  C_16
REMARK    6  A    between atoms: C_21  and  C_22
REMARK                            x       y       z     vdW  Elec       q    Type
REMARK                         _______ _______ _______ _____ _____    ______ ____
ROOT
ATOM      1  N   UNL     1       3.264   5.887  18.589  0.00  0.00    +0.000 N 
ATOM      2  C   UNL     1       3.226   4.752  19.377  0.00  0.00    +0.000 A 
ATOM      3  C   UNL     1       3.852   3.503  19.218  0.00  0.00    +0.000 A 
ATOM      4  C   UNL     1       3.610   2.517  20.177  0.00  0.00    +0.000 A 
ATOM      5  C   UNL     1       2.770   2.763  21.258  0.00  0.00    +0.000 A 
ATOM      6  C   UNL     1       2.153   4.014  21.417  0.00  0.00    +0.000 A 
ATOM      7  C   UNL     1       2.386   5.033  20.467  0.00  0.00    +0.000 A 
ATOM      8  C   UNL     1       1.957   6.386  20.323  0.00  0.00    +0.000 A 
ATOM      9  N   UNL     1       1.163   7.194  21.076  0.00  0.00    +0.000 NA
ATOM     10  N   UNL     1       0.965   8.442  20.610  0.00  0.00    +0.000 NA
ATOM     11  C   UNL     1       1.551   8.864  19.455  0.00  0.00    +0.000 A 
ATOM     12  N   UNL     1       2.352   8.125  18.672  0.00  0.00    +0.000 NA
ATOM     13  C   UNL     1       2.519   6.883  19.162  0.00  0.00    +0.000 A 
ENDROOT
BRANCH   1  15
ATOM     14  C   UNL     1       5.405   6.400  17.468  0.00  0.00    +0.000 C 
ATOM     15  C   UNL     1       3.945   6.019  17.313  0.00  0.00    +0.000 C 
ENDBRANCH   1  15
BRANCH  11  16
ATOM     16  S   UNL     1       1.218  10.501  18.844  0.00  0.00    +0.000 S 
BRANCH  16  17
ATOM     17  C   UNL     1      -0.240  11.002  19.803  0.00  0.00    +0.000 C 
BRANCH  17  18
ATOM     18  C   UNL     1      -1.469  11.153  18.934  0.00  0.00    +0.000 C 
ATOM     19  O   UNL     1      -2.481  11.684  19.379  0.00  0.00    +0.000 OA
ATOM     20  N   UNL     1      -1.314  10.631  17.659  0.00  0.00    +0.000 N 
ATOM     21  C   UNL     1      -2.310  10.681  16.703  0.00  0.00    +0.000 A 
ATOM     22  C   UNL     1      -2.350   9.866  15.543  0.00  0.00    +0.000 A 
ATOM     23  C   UNL     1      -3.519  10.236  14.909  0.00  0.00    +0.000 A 
ATOM     24  C   UNL     1      -4.227   9.804  13.700  0.00  0.00    +0.000 C 
ATOM     25  O   UNL     1      -4.112  11.232  15.616  0.00  0.00    +0.000 OA
ATOM     26  N   UNL     1      -3.358  11.504  16.736  0.00  0.00    +0.000 NA
ATOM     27  H   UNL     1      -0.524  10.027  17.459  0.00  0.00    +0.000 HD
ENDBRANCH  17  18
ENDBRANCH  16  17
ENDBRANCH  11  16
TORSDOF 4
ENDMDL
MODEL 7
REMARK VINA RESULT:      -7.5      2.686      4.057
REMARK  Name = 
REMARK  6 active torsions:
REMARK  status: ('A' for Active; 'I' for Inactive)
REMARK    1  A    between atoms: C_1  and  C_2
REMARK    2  A    between atoms: C_2  and  N_3
REMARK    3  A    between atoms: C_13  and  S_14
REMARK    4  A    between atoms: S_14  and  C_15
REMARK    5  A    between atoms: C_15  and  C_16
REMARK    6  A    between atoms: C_21  and  C_22
REMARK                            x       y       z     vdW  Elec       q    Type
REMARK                         _______ _______ _______ _____ _____    ______ ____
ROOT
ATOM      1  N   UNL     1       3.536   4.998  18.831  0.00  0.00    +0.000 N 
ATOM      2  C   UNL     1       4.288   4.965  17.672  0.00  0.00    +0.000 A 
ATOM      3  C   UNL     1       5.025   3.921  17.085  0.00  0.00    +0.000 A 
ATOM      4  C   UNL     1       5.718   4.187  15.902  0.00  0.00    +0.000 A 
ATOM      5  C   UNL     1       5.684   5.451  15.323  0.00  0.00    +0.000 A 
ATOM      6  C   UNL     1       4.940   6.488  15.908  0.00  0.00    +0.000 A 
ATOM      7  C   UNL     1       4.222   6.247  17.099  0.00  0.00    +0.000 A 
ATOM      8  C   UNL     1       3.374   7.032  17.935  0.00  0.00    +0.000 A 
ATOM      9  N   UNL     1       2.936   8.318  17.868  0.00  0.00    +0.000 NA
ATOM     10  N   UNL     1       2.134   8.731  18.867  0.00  0.00    +0.000 NA
ATOM     11  C   UNL     1       1.772   7.888  19.875  0.00  0.00    +0.000 A 
ATOM     12  N   UNL     1       2.157   6.607  19.995  0.00  0.00    +0.000 NA
ATOM     13  C   UNL     1       2.964   6.233  18.987  0.00  0.00    +0.000 A 
ENDROOT
BRANCH   1  15
ATOM     14  C   UNL     1       2.240   2.988  19.449  0.00  0.00    +0.000 C 
ATOM     15  C   UNL     1       3.392   3.915  19.787  0.00  0.00    +0.000 C 
ENDBRANCH   1  15
BRANCH  11  16
ATOM     16  S   UNL     1       0.757   8.488  21.206  0.00  0.00    +0.000 S 
BRANCH  16  17
ATOM     17  C   UNL     1      -0.066   9.929  20.469  0.00  0.00    +0.000 C 
BRANCH  17  18
ATOM     18  C   UNL     1       0.237  11.205  21.223  0.00  0.00    +0.000 C 
ATOM     19  O   UNL     1       1.382  11.644  21.264  0.00  0.00    +0.000 OA
ATOM     20  N   UNL     1      -0.875  11.766  21.832  0.00  0.00    +0.000 N 
ATOM     21  C   UNL     1      -0.820  12.941  22.555  0.00  0.00    +0.000 A 
ATOM     22  C   UNL     1      -1.806  13.359  23.484  0.00  0.00    +0.000 A 
ATOM     23  C   UNL     1      -1.324  14.555  23.977  0.00  0.00    +0.000 A 
ATOM     24  C   UNL     1      -1.776  15.523  24.981  0.00  0.00    +0.000 C 
ATOM     25  O   UNL     1      -0.154  14.852  23.355  0.00  0.00    +0.000 OA
ATOM     26  N   UNL     1       0.160  13.842  22.473  0.00  0.00    +0.000 NA
ATOM     27  H   UNL     1      -1.725  11.220  21.920  0.00  0.00    +0.000 HD
ENDBRANCH  17  18
ENDBRANCH  16  17
ENDBRANCH  11  16
TORSDOF 4
ENDMDL
MODEL 8
REMARK VINA RESULT:      -7.4      2.727      3.545
REMARK  Name = 
REMARK  6 active torsions:
REMARK  status: ('A' for Active; 'I' for Inactive)
REMARK    1  A    between atoms: C_1  and  C_2
REMARK    2  A    between atoms: C_2  and  N_3
REMARK    3  A    between atoms: C_13  and  S_14
REMARK    4  A    between atoms: S_14  and  C_15
REMARK    5  A    between atoms: C_15  and  C_16
REMARK    6  A    between atoms: C_21  and  C_22
REMARK                            x       y       z     vdW  Elec       q    Type
REMARK                         _______ _______ _______ _____ _____    ______ ____
ROOT
ATOM      1  N   UNL     1       2.809   5.298  19.766  0.00  0.00    +0.000 N 
ATOM      2  C   UNL     1       3.595   5.094  18.648  0.00  0.00    +0.000 A 
ATOM      3  C   UNL     1       4.292   3.954  18.211  0.00  0.00    +0.000 A 
ATOM      4  C   UNL     1       5.035   4.047  17.033  0.00  0.00    +0.000 A 
ATOM      5  C   UNL     1       5.089   5.236  16.314  0.00  0.00    +0.000 A 
ATOM      6  C   UNL     1       4.385   6.370  16.749  0.00  0.00    +0.000 A 
ATOM      7  C   UNL     1       3.616   6.304  17.932  0.00  0.00    +0.000 A 
ATOM      8  C   UNL     1       2.786   7.221  18.641  0.00  0.00    +0.000 A 
ATOM      9  N   UNL     1       2.422   8.512  18.413  0.00  0.00    +0.000 NA
ATOM     10  N   UNL     1       1.612   9.077  19.328  0.00  0.00    +0.000 NA
ATOM     11  C   UNL     1       1.172   8.374  20.410  0.00  0.00    +0.000 A 
ATOM     12  N   UNL     1       1.483   7.098  20.688  0.00  0.00    +0.000 NA
ATOM     13  C   UNL     1       2.300   6.570  19.760  0.00  0.00    +0.000 A 
ENDROOT
BRANCH   1  15
ATOM     14  C   UNL     1       1.320   3.517  20.612  0.00  0.00    +0.000 C 
ATOM     15  C   UNL     1       2.575   4.341  20.832  0.00  0.00    +0.000 C 
ENDBRANCH   1  15
BRANCH  11  16
ATOM     16  S   UNL     1       0.150   9.174  21.625  0.00  0.00    +0.000 S 
BRANCH  16  17
ATOM     17  C   UNL     1      -0.494  10.615  20.728  0.00  0.00    +0.000 C 
BRANCH  17  18
ATOM     18  C   UNL     1       0.463  11.786  20.769  0.00  0.00    +0.000 C 
ATOM     19  O   UNL     1       0.548  12.481  21.778  0.00  0.00    +0.000 OA
ATOM     20  N   UNL     1       1.169  11.967  19.590  0.00  0.00    +0.000 N 
ATOM     21  C   UNL     1       2.105  12.969  19.424  0.00  0.00    +0.000 A 
ATOM     22  C   UNL     1       2.577  13.426  18.168  0.00  0.00    +0.000 A 
ATOM     23  C   UNL     1       3.462  14.436  18.484  0.00  0.00    +0.000 A 
ATOM     24  C   UNL     1       4.285  15.376  17.716  0.00  0.00    +0.000 C 
ATOM     25  O   UNL     1       3.546  14.546  19.835  0.00  0.00    +0.000 OA
ATOM     26  N   UNL     1       2.696  13.633  20.419  0.00  0.00    +0.000 NA
ATOM     27  H   UNL     1       0.874  11.479  18.751  0.00  0.00    +0.000 HD
ENDBRANCH  17  18
ENDBRANCH  16  17
ENDBRANCH  11  16
TORSDOF 4
ENDMDL
MODEL 9
REMARK VINA RESULT:      -7.4      4.337      8.426
REMARK  Name = 
REMARK  6 active torsions:
REMARK  status: ('A' for Active; 'I' for Inactive)
REMARK    1  A    between atoms: C_1  and  C_2
REMARK    2  A    between atoms: C_2  and  N_3
REMARK    3  A    between atoms: C_13  and  S_14
REMARK    4  A    between atoms: S_14  and  C_15
REMARK    5  A    between atoms: C_15  and  C_16
REMARK    6  A    between atoms: C_21  and  C_22
REMARK                            x       y       z     vdW  Elec       q    Type
REMARK                         _______ _______ _______ _____ _____    ______ ____
ROOT
ATOM      1  N   UNL     1       1.202   9.656  19.451  0.00  0.00    +0.000 N 
ATOM      2  C   UNL     1       0.468  10.115  20.529  0.00  0.00    +0.000 A 
ATOM      3  C   UNL     1      -0.140  11.361  20.761  0.00  0.00    +0.000 A 
ATOM      4  C   UNL     1      -0.810  11.553  21.971  0.00  0.00    +0.000 A 
ATOM      5  C   UNL     1      -0.870  10.540  22.922  0.00  0.00    +0.000 A 
ATOM      6  C   UNL     1      -0.269   9.294  22.683  0.00  0.00    +0.000 A 
ATOM      7  C   UNL     1       0.408   9.068  21.464  0.00  0.00    +0.000 A 
ATOM      8  C   UNL     1       1.096   7.959  20.891  0.00  0.00    +0.000 A 
ATOM      9  N   UNL     1       1.338   6.691  21.323  0.00  0.00    +0.000 NA
ATOM     10  N   UNL     1       2.052   5.903  20.497  0.00  0.00    +0.000 NA
ATOM     11  C   UNL     1       2.486   6.358  19.287  0.00  0.00    +0.000 A 
ATOM     12  N   UNL     1       2.274   7.589  18.797  0.00  0.00    +0.000 NA
ATOM     13  C   UNL     1       1.567   8.351  19.651  0.00  0.00    +0.000 A 
ENDROOT
BRANCH   1  15
ATOM     14  C   UNL     1       1.976  11.856  18.636  0.00  0.00    +0.000 C 
ATOM     15  C   UNL     1       1.586  10.432  18.286  0.00  0.00    +0.000 C 
ENDBRANCH   1  15
BRANCH  11  16
ATOM     16  S   UNL     1       3.475   5.304  18.251  0.00  0.00    +0.000 S 
BRANCH  16  17
ATOM     17  C   UNL     1       5.147   5.976  18.469  0.00  0.00    +0.000 C 
BRANCH  17  18
ATOM     18  C   UNL     1       5.898   6.070  17.159  0.00  0.00    +0.000 C 
ATOM     19  O   UNL     1       6.573   7.063  16.902  0.00  0.00    +0.000 OA
ATOM     20  N   UNL     1       5.721   4.967  16.338  0.00  0.00    +0.000 N 
ATOM     21  C   UNL     1       6.333   4.846  15.106  0.00  0.00    +0.000 A 
ATOM     22  C   UNL     1       5.917   3.949  14.089  0.00  0.00    +0.000 A 
ATOM     23  C   UNL     1       6.786   4.193  13.045  0.00  0.00    +0.000 A 
ATOM     24  C   UNL     1       6.938   3.683  11.678  0.00  0.00    +0.000 C 
ATOM     25  O   UNL     1       7.684   5.137  13.425  0.00  0.00    +0.000 OA
ATOM     26  N   UNL     1       7.397   5.546  14.709  0.00  0.00    +0.000 NA
ATOM     27  H   UNL     1       4.982   4.304  16.544  0.00  0.00    +0.000 HD
ENDBRANCH  17  18
ENDBRANCH  16  17
ENDBRANCH  11  16
TORSDOF 4
ENDMDL
