MODEL 1
REMARK VINA RESULT:      -8.1      0.000      0.000
REMARK  Name = 
REMARK  6 active torsions:
REMARK  status: ('A' for Active; 'I' for Inactive)
REMARK    1  A    between atoms: C_1  and  O_2
REMARK    2  A    between atoms: O_2  and  C_3
REMARK    3  A    between atoms: C_3  and  C_5
REMARK    4  A    between atoms: C_6  and  C_7
REMARK    5  A    between atoms: C_11  and  C_12
REMARK    6  A    between atoms: N_23  and  C_24
REMARK                            x       y       z     vdW  Elec       q    Type
REMARK                         _______ _______ _______ _____ _____    ______ ____
ROOT
ATOM      1  C   UNL     1       2.143   5.377  19.098  0.00  0.00    +0.000 C 
ATOM      2  C   UNL     1       2.610   4.904  17.704  0.00  0.00    +0.000 C 
ATOM      3  C   UNL     1       2.051   3.438  17.624  0.00  0.00    +0.000 C 
ATOM      4  C   UNL     1       2.392   2.579  18.875  0.00  0.00    +0.000 C 
ATOM      5  C   UNL     1       1.308   2.487  19.972  0.00  0.00    +0.000 C 
ATOM      6  C   UNL     1       1.526   3.705  20.879  0.00  0.00    +0.000 C 
ATOM      7  C   UNL     1       2.705   4.432  20.231  0.00  0.00    +0.000 C 
ATOM      8  N   UNL     1       3.438   3.306  19.590  0.00  0.00    +0.000 NA
ATOM      9  C   UNL     1       4.279   2.445  20.403  0.00  0.00    +0.000 C 
ENDROOT
BRANCH   2  10
ATOM     10  C   UNL     1       4.122   5.055  17.417  0.00  0.00    +0.000 A 
ATOM     11  C   UNL     1       4.978   5.624  18.358  0.00  0.00    +0.000 A 
ATOM     12  C   UNL     1       6.333   5.841  18.053  0.00  0.00    +0.000 A 
ATOM     13  C   UNL     1       6.853   5.509  16.794  0.00  0.00    +0.000 A 
ATOM     14  C   UNL     1       6.028   4.928  15.834  0.00  0.00    +0.000 A 
ATOM     15  C   UNL     1       4.693   4.675  16.183  0.00  0.00    +0.000 A 
BRANCH  14  16
ATOM     16  C   UNL     1       6.474   4.620  14.471  0.00  0.00    +0.000 A 
ATOM     17  C   UNL     1       7.529   5.281  13.744  0.00  0.00    +0.000 A 
ATOM     18  C   UNL     1       7.681   4.809  12.459  0.00  0.00    +0.000 A 
ATOM     19  S   UNL     1       6.583   3.546  12.118  0.00  0.00    +0.000 S 
ATOM     20  C   UNL     1       5.891   3.647  13.683  0.00  0.00    +0.000 A 
ENDBRANCH  14  16
ENDBRANCH   2  10
BRANCH   1  21
ATOM     21  C   UNL     1       2.272   6.881  19.314  0.00  0.00    +0.000 C 
ATOM     22  O   UNL     1       2.306   7.455  20.394  0.00  0.00    +0.000 OA
BRANCH  21  24
ATOM     23  C   UNL     1       1.794   8.855  18.089  0.00  0.00    +0.000 C 
ATOM     24  O   UNL     1       2.240   7.499  18.095  0.00  0.00    +0.000 OA
ENDBRANCH  21  24
ENDBRANCH   1  21
TORSDOF 4
ENDMDL
MODEL 2
REMARK VINA RESULT:      -7.9      0.691      1.250
REMARK  Name = 
REMARK  6 active torsions:
REMARK  status: ('A' for Active; 'I' for Inactive)
REMARK    1  A    between atoms: C_1  and  O_2
REMARK    2  A    between atoms: O_2  and  C_3
REMARK    3  A    between atoms: C_3  and  C_5
REMARK    4  A    between atoms: C_6  and  C_7
REMARK    5  A    between atoms: C_11  and  C_12
REMARK    6  A    between atoms: N_23  and  C_24
REMARK                            x       y       z     vdW  Elec       q    Type
REMARK                         _______ _______ _______ _____ _____    ______ ____
ROOT
ATOM      1  C   UNL     1       2.093   5.367  19.215  0.00  0.00    +0.000 C 
ATOM      2  C   UNL     1       2.484   4.885  17.801  0.00  0.00    +0.000 C 
ATOM      3  C   UNL     1       1.856   3.448  17.732  0.00  0.00    +0.000 C 
ATOM      4  C   UNL     1       2.205   2.563  18.963  0.00  0.00    +0.000 C 
ATOM      5  C   UNL     1       1.160   2.511  20.099  0.00  0.00    +0.000 C 
ATOM      6  C   UNL     1       1.467   3.709  21.006  0.00  0.00    +0.000 C 
ATOM      7  C   UNL     1       2.653   4.388  20.319  0.00  0.00    +0.000 C 
ATOM      8  N   UNL     1       3.309   3.235  19.642  0.00  0.00    +0.000 NA
ATOM      9  C   UNL     1       4.140   2.330  20.416  0.00  0.00    +0.000 C 
ENDROOT
BRANCH   2  10
ATOM     10  C   UNL     1       3.990   4.970  17.457  0.00  0.00    +0.000 A 
ATOM     11  C   UNL     1       4.909   5.474  18.376  0.00  0.00    +0.000 A 
ATOM     12  C   UNL     1       6.261   5.632  18.022  0.00  0.00    +0.000 A 
ATOM     13  C   UNL     1       6.714   5.306  16.737  0.00  0.00    +0.000 A 
ATOM     14  C   UNL     1       5.825   4.790  15.797  0.00  0.00    +0.000 A 
ATOM     15  C   UNL     1       4.494   4.594  16.193  0.00  0.00    +0.000 A 
BRANCH  14  16
ATOM     16  C   UNL     1       6.202   4.495  14.411  0.00  0.00    +0.000 A 
ATOM     17  C   UNL     1       5.539   3.576  13.519  0.00  0.00    +0.000 A 
ATOM     18  C   UNL     1       6.159   3.468  12.293  0.00  0.00    +0.000 A 
ATOM     19  S   UNL     1       7.525   4.488  12.185  0.00  0.00    +0.000 S 
ATOM     20  C   UNL     1       7.298   5.058  13.786  0.00  0.00    +0.000 A 
ENDBRANCH  14  16
ENDBRANCH   2  10
BRANCH   1  21
ATOM     21  C   UNL     1       2.299   6.862  19.437  0.00  0.00    +0.000 C 
ATOM     22  O   UNL     1       2.674   7.671  18.600  0.00  0.00    +0.000 OA
BRANCH  21  24
ATOM     23  C   UNL     1       1.270   8.267  21.048  0.00  0.00    +0.000 C 
ATOM     24  O   UNL     1       2.094   7.137  20.761  0.00  0.00    +0.000 OA
ENDBRANCH  21  24
ENDBRANCH   1  21
TORSDOF 4
ENDMDL
MODEL 3
REMARK VINA RESULT:      -7.7      4.090      6.760
REMARK  Name = 
REMARK  6 active torsions:
REMARK  status: ('A' for Active; 'I' for Inactive)
REMARK    1  A    between atoms: C_1  and  O_2
REMARK    2  A    between atoms: O_2  and  C_3
REMARK    3  A    between atoms: C_3  and  C_5
REMARK    4  A    between atoms: C_6  and  C_7
REMARK    5  A    between atoms: C_11  and  C_12
REMARK    6  A    between atoms: N_23  and  C_24
REMARK                            x       y       z     vdW  Elec       q    Type
REMARK                         _______ _______ _______ _____ _____    ______ ____
ROOT
ATOM      1  C   UNL     1       4.229   4.328  19.047  0.00  0.00    +0.000 C 
ATOM      2  C   UNL     1       3.432   5.184  20.056  0.00  0.00    +0.000 C 
ATOM      3  C   UNL     1       2.392   4.162  20.641  0.00  0.00    +0.000 C 
ATOM      4  C   UNL     1       1.627   3.366  19.545  0.00  0.00    +0.000 C 
ATOM      5  C   UNL     1       2.176   1.967  19.192  0.00  0.00    +0.000 C 
ATOM      6  C   UNL     1       3.253   2.196  18.125  0.00  0.00    +0.000 C 
ATOM      7  C   UNL     1       3.272   3.715  17.950  0.00  0.00    +0.000 C 
ATOM      8  N   UNL     1       1.868   4.074  18.291  0.00  0.00    +0.000 NA
ATOM      9  C   UNL     1       0.819   3.868  17.307  0.00  0.00    +0.000 C 
ENDROOT
BRANCH   2  10
ATOM     10  C   UNL     1       2.833   6.495  19.497  0.00  0.00    +0.000 A 
ATOM     11  C   UNL     1       3.176   6.958  18.227  0.00  0.00    +0.000 A 
ATOM     12  C   UNL     1       2.698   8.196  17.763  0.00  0.00    +0.000 A 
ATOM     13  C   UNL     1       1.883   9.004  18.568  0.00  0.00    +0.000 A 
ATOM     14  C   UNL     1       1.511   8.568  19.838  0.00  0.00    +0.000 A 
ATOM     15  C   UNL     1       1.960   7.306  20.255  0.00  0.00    +0.000 A 
BRANCH  14  16
ATOM     16  C   UNL     1       0.725   9.383  20.769  0.00  0.00    +0.000 A 
ATOM     17  C   UNL     1       0.381   9.042  22.128  0.00  0.00    +0.000 A 
ATOM     18  C   UNL     1      -0.417   9.984  22.738  0.00  0.00    +0.000 A 
ATOM     19  S   UNL     1      -0.738  11.304  21.702  0.00  0.00    +0.000 S 
ATOM     20  C   UNL     1       0.173  10.603  20.431  0.00  0.00    +0.000 A 
ENDBRANCH  14  16
ENDBRANCH   2  10
BRANCH   1  21
ATOM     21  C   UNL     1       5.517   4.985  18.562  0.00  0.00    +0.000 C 
ATOM     22  O   UNL     1       5.864   5.119  17.397  0.00  0.00    +0.000 OA
BRANCH  21  24
ATOM     23  C   UNL     1       7.618   5.716  19.386  0.00  0.00    +0.000 C 
ATOM     24  O   UNL     1       6.274   5.311  19.652  0.00  0.00    +0.000 OA
ENDBRANCH  21  24
ENDBRANCH   1  21
TORSDOF 4
ENDMDL
MODEL 4
REMARK VINA RESULT:      -7.7      3.750      6.700
REMARK  Name = 
REMARK  6 active torsions:
REMARK  status: ('A' for Active; 'I' for Inactive)
REMARK    1  A    between atoms: C_1  and  O_2
REMARK    2  A    between atoms: O_2  and  C_3
REMARK    3  A    between atoms: C_3  and  C_5
REMARK    4  A    between atoms: C_6  and  C_7
REMARK    5  A    between atoms: C_11  and  C_12
REMARK    6  A    between atoms: N_23  and  C_24
REMARK                            x       y       z     vdW  Elec       q    Type
REMARK                         _______ _______ _______ _____ _____    ______ ____
ROOT
ATOM      1  C   UNL     1       4.242   4.294  19.227  0.00  0.00    +0.000 C 
ATOM      2  C   UNL     1       3.371   5.150  20.173  0.00  0.00    +0.000 C 
ATOM      3  C   UNL     1       2.296   4.126  20.685  0.00  0.00    +0.000 C 
ATOM      4  C   UNL     1       1.615   3.322  19.541  0.00  0.00    +0.000 C 
ATOM      5  C   UNL     1       2.195   1.924  19.235  0.00  0.00    +0.000 C 
ATOM      6  C   UNL     1       3.345   2.153  18.247  0.00  0.00    +0.000 C 
ATOM      7  C   UNL     1       3.370   3.672  18.068  0.00  0.00    +0.000 C 
ATOM      8  N   UNL     1       1.943   4.026  18.304  0.00  0.00    +0.000 NA
ATOM      9  C   UNL     1       0.969   3.812  17.249  0.00  0.00    +0.000 C 
ENDROOT
BRANCH   2  10
ATOM     10  C   UNL     1       2.808   6.457  19.566  0.00  0.00    +0.000 A 
ATOM     11  C   UNL     1       3.227   6.907  18.315  0.00  0.00    +0.000 A 
ATOM     12  C   UNL     1       2.780   8.141  17.812  0.00  0.00    +0.000 A 
ATOM     13  C   UNL     1       1.919   8.957  18.558  0.00  0.00    +0.000 A 
ATOM     14  C   UNL     1       1.471   8.533  19.807  0.00  0.00    +0.000 A 
ATOM     15  C   UNL     1       1.892   7.275  20.263  0.00  0.00    +0.000 A 
BRANCH  14  16
ATOM     16  C   UNL     1       0.631   9.357  20.682  0.00  0.00    +0.000 A 
ATOM     17  C   UNL     1      -0.079  10.556  20.309  0.00  0.00    +0.000 A 
ATOM     18  C   UNL     1      -0.740  11.145  21.364  0.00  0.00    +0.000 A 
ATOM     19  S   UNL     1      -0.547  10.253  22.807  0.00  0.00    +0.000 S 
ATOM     20  C   UNL     1       0.441   9.090  22.024  0.00  0.00    +0.000 A 
ENDBRANCH  14  16
ENDBRANCH   2  10
BRANCH   1  21
ATOM     21  C   UNL     1       5.559   4.955  18.834  0.00  0.00    +0.000 C 
ATOM     22  O   UNL     1       6.302   5.582  19.576  0.00  0.00    +0.000 OA
BRANCH  21  24
ATOM     23  C   UNL     1       7.057   4.558  17.037  0.00  0.00    +0.000 C 
ATOM     24  O   UNL     1       5.726   4.820  17.484  0.00  0.00    +0.000 OA
ENDBRANCH  21  24
ENDBRANCH   1  21
TORSDOF 4
ENDMDL
MODEL 5
REMARK VINA RESULT:      -7.7      2.095      3.003
REMARK  Name = 
REMARK  6 active torsions:
REMARK  status: ('A' for Active; 'I' for Inactive)
REMARK    1  A    between atoms: C_1  and  O_2
REMARK    2  A    between atoms: O_2  and  C_3
REMARK    3  A    between atoms: C_3  and  C_5
REMARK    4  A    between atoms: C_6  and  C_7
REMARK    5  A    between atoms: C_11  and  C_12
REMARK    6  A    between atoms: N_23  and  C_24
REMARK                            x       y       z     vdW  Elec       q    Type
REMARK                         _______ _______ _______ _____ _____    ______ ____
ROOT
ATOM      1  C   UNL     1       2.174   5.256  19.093  0.00  0.00    +0.000 C 
ATOM      2  C   UNL     1       2.367   4.605  17.706  0.00  0.00    +0.000 C 
ATOM      3  C   UNL     1       1.730   3.181  17.893  0.00  0.00    +0.000 C 
ATOM      4  C   UNL     1       2.241   2.439  19.161  0.00  0.00    +0.000 C 
ATOM      5  C   UNL     1       1.362   2.541  20.427  0.00  0.00    +0.000 C 
ATOM      6  C   UNL     1       1.794   3.830  21.136  0.00  0.00    +0.000 C 
ATOM      7  C   UNL     1       2.878   4.401  20.219  0.00  0.00    +0.000 C 
ATOM      8  N   UNL     1       3.430   3.164  19.600  0.00  0.00    +0.000 NA
ATOM      9  C   UNL     1       4.356   2.339  20.357  0.00  0.00    +0.000 C 
ENDROOT
BRANCH   2  10
ATOM     10  C   UNL     1       3.812   4.619  17.154  0.00  0.00    +0.000 A 
ATOM     11  C   UNL     1       4.286   3.579  16.355  0.00  0.00    +0.000 A 
ATOM     12  C   UNL     1       5.626   3.555  15.933  0.00  0.00    +0.000 A 
ATOM     13  C   UNL     1       6.523   4.561  16.317  0.00  0.00    +0.000 A 
ATOM     14  C   UNL     1       6.082   5.621  17.106  0.00  0.00    +0.000 A 
ATOM     15  C   UNL     1       4.727   5.647  17.470  0.00  0.00    +0.000 A 
BRANCH  14  16
ATOM     16  C   UNL     1       6.970   6.671  17.613  0.00  0.00    +0.000 A 
ATOM     17  C   UNL     1       7.926   6.542  18.685  0.00  0.00    +0.000 A 
ATOM     18  C   UNL     1       8.579   7.721  18.974  0.00  0.00    +0.000 A 
ATOM     19  S   UNL     1       8.078   8.988  17.944  0.00  0.00    +0.000 S 
ATOM     20  C   UNL     1       6.973   7.964  17.127  0.00  0.00    +0.000 A 
ENDBRANCH  14  16
ENDBRANCH   2  10
BRANCH   1  21
ATOM     21  C   UNL     1       2.415   6.762  19.107  0.00  0.00    +0.000 C 
ATOM     22  O   UNL     1       2.731   7.434  20.079  0.00  0.00    +0.000 OA
BRANCH  21  24
ATOM     23  C   UNL     1       1.932   8.673  17.787  0.00  0.00    +0.000 C 
ATOM     24  O   UNL     1       2.118   7.260  17.869  0.00  0.00    +0.000 OA
ENDBRANCH  21  24
ENDBRANCH   1  21
TORSDOF 4
ENDMDL
MODEL 6
REMARK VINA RESULT:      -7.6      3.560      6.866
REMARK  Name = 
REMARK  6 active torsions:
REMARK  status: ('A' for Active; 'I' for Inactive)
REMARK    1  A    between atoms: C_1  and  O_2
REMARK    2  A    between atoms: O_2  and  C_3
REMARK    3  A    between atoms: C_3  and  C_5
REMARK    4  A    between atoms: C_6  and  C_7
REMARK    5  A    between atoms: C_11  and  C_12
REMARK    6  A    between atoms: N_23  and  C_24
REMARK                            x       y       z     vdW  Elec       q    Type
REMARK                         _______ _______ _______ _____ _____    ______ ____
ROOT
ATOM      1  C   UNL     1       4.318   4.436  16.966  0.00  0.00    +0.000 C 
ATOM      2  C   UNL     1       3.612   5.789  17.203  0.00  0.00    +0.000 C 
ATOM      3  C   UNL     1       4.702   6.835  16.774  0.00  0.00    +0.000 C 
ATOM      4  C   UNL     1       6.092   6.577  17.421  0.00  0.00    +0.000 C 
ATOM      5  C   UNL     1       7.116   5.787  16.577  0.00  0.00    +0.000 C 
ATOM      6  C   UNL     1       6.831   4.305  16.851  0.00  0.00    +0.000 C 
ATOM      7  C   UNL     1       5.644   4.338  17.815  0.00  0.00    +0.000 C 
ATOM      8  N   UNL     1       5.859   5.636  18.513  0.00  0.00    +0.000 NA
ATOM      9  C   UNL     1       6.855   5.724  19.567  0.00  0.00    +0.000 C 
ENDROOT
BRANCH   2  10
ATOM     10  C   UNL     1       3.012   5.995  18.613  0.00  0.00    +0.000 A 
ATOM     11  C   UNL     1       2.899   4.932  19.508  0.00  0.00    +0.000 A 
ATOM     12  C   UNL     1       2.269   5.108  20.753  0.00  0.00    +0.000 A 
ATOM     13  C   UNL     1       1.725   6.347  21.118  0.00  0.00    +0.000 A 
ATOM     14  C   UNL     1       1.830   7.434  20.254  0.00  0.00    +0.000 A 
ATOM     15  C   UNL     1       2.509   7.243  19.041  0.00  0.00    +0.000 A 
BRANCH  14  16
ATOM     16  C   UNL     1       1.224   8.740  20.528  0.00  0.00    +0.000 A 
ATOM     17  C   UNL     1       0.785   9.230  21.811  0.00  0.00    +0.000 A 
ATOM     18  C   UNL     1       0.202  10.477  21.746  0.00  0.00    +0.000 A 
ATOM     19  S   UNL     1       0.201  11.089  20.151  0.00  0.00    +0.000 S 
ATOM     20  C   UNL     1       0.962   9.677  19.546  0.00  0.00    +0.000 A 
ENDBRANCH  14  16
ENDBRANCH   2  10
BRANCH   1  21
ATOM     21  C   UNL     1       3.377   3.236  16.997  0.00  0.00    +0.000 C 
ATOM     22  O   UNL     1       2.199   3.233  16.668  0.00  0.00    +0.000 OA
BRANCH  21  24
ATOM     23  C   UNL     1       3.355   1.482  18.594  0.00  0.00    +0.000 C 
ATOM     24  O   UNL     1       4.041   2.178  17.554  0.00  0.00    +0.000 OA
ENDBRANCH  21  24
ENDBRANCH   1  21
TORSDOF 4
ENDMDL
MODEL 7
REMARK VINA RESULT:      -7.5      3.834      6.552
REMARK  Name = 
REMARK  6 active torsions:
REMARK  status: ('A' for Active; 'I' for Inactive)
REMARK    1  A    between atoms: C_1  and  O_2
REMARK    2  A    between atoms: O_2  and  C_3
REMARK    3  A    between atoms: C_3  and  C_5
REMARK    4  A    between atoms: C_6  and  C_7
REMARK    5  A    between atoms: C_11  and  C_12
REMARK    6  A    between atoms: N_23  and  C_24
REMARK                            x       y       z     vdW  Elec       q    Type
REMARK                         _______ _______ _______ _____ _____    ______ ____
ROOT
ATOM      1  C   UNL     1       4.529   4.219  18.414  0.00  0.00    +0.000 C 
ATOM      2  C   UNL     1       4.048   5.159  19.540  0.00  0.00    +0.000 C 
ATOM      3  C   UNL     1       3.278   4.188  20.505  0.00  0.00    +0.000 C 
ATOM      4  C   UNL     1       2.246   3.283  19.774  0.00  0.00    +0.000 C 
ATOM      5  C   UNL     1       2.715   1.862  19.393  0.00  0.00    +0.000 C 
ATOM      6  C   UNL     1       3.402   1.999  18.029  0.00  0.00    +0.000 C 
ATOM      7  C   UNL     1       3.308   3.495  17.725  0.00  0.00    +0.000 C 
ATOM      8  N   UNL     1       2.062   3.870  18.450  0.00  0.00    +0.000 NA
ATOM      9  C   UNL     1       0.771   3.561  17.860  0.00  0.00    +0.000 C 
ENDROOT
BRANCH   2  10
ATOM     10  C   UNL     1       3.255   6.406  19.081  0.00  0.00    +0.000 A 
ATOM     11  C   UNL     1       3.450   6.953  17.814  0.00  0.00    +0.000 A 
ATOM     12  C   UNL     1       2.793   8.138  17.438  0.00  0.00    +0.000 A 
ATOM     13  C   UNL     1       1.944   8.808  18.330  0.00  0.00    +0.000 A 
ATOM     14  C   UNL     1       1.718   8.283  19.600  0.00  0.00    +0.000 A 
ATOM     15  C   UNL     1       2.345   7.072  19.930  0.00  0.00    +0.000 A 
BRANCH  14  16
ATOM     16  C   UNL     1       0.906   8.959  20.616  0.00  0.00    +0.000 A 
ATOM     17  C   UNL     1      -0.046  10.018  20.389  0.00  0.00    +0.000 A 
ATOM     18  C   UNL     1      -0.616  10.494  21.549  0.00  0.00    +0.000 A 
ATOM     19  S   UNL     1      -0.043   9.656  22.922  0.00  0.00    +0.000 S 
ATOM     20  C   UNL     1       0.984   8.672  21.966  0.00  0.00    +0.000 A 
ENDBRANCH  14  16
ENDBRANCH   2  10
BRANCH   1  21
ATOM     21  C   UNL     1       5.580   4.840  17.499  0.00  0.00    +0.000 C 
ATOM     22  O   UNL     1       5.543   4.874  16.277  0.00  0.00    +0.000 OA
BRANCH  21  24
ATOM     23  C   UNL     1       7.188   6.532  17.922  0.00  0.00    +0.000 C 
ATOM     24  O   UNL     1       6.628   5.264  18.267  0.00  0.00    +0.000 OA
ENDBRANCH  21  24
ENDBRANCH   1  21
TORSDOF 4
ENDMDL
MODEL 8
REMARK VINA RESULT:      -7.1      2.214      3.130
REMARK  Name = 
REMARK  6 active torsions:
REMARK  status: ('A' for Active; 'I' for Inactive)
REMARK    1  A    between atoms: C_1  and  O_2
REMARK    2  A    between atoms: O_2  and  C_3
REMARK    3  A    between atoms: C_3  and  C_5
REMARK    4  A    between atoms: C_6  and  C_7
REMARK    5  A    between atoms: C_11  and  C_12
REMARK    6  A    between atoms: N_23  and  C_24
REMARK                            x       y       z     vdW  Elec       q    Type
REMARK                         _______ _______ _______ _____ _____    ______ ____
ROOT
ATOM      1  C   UNL     1       2.147   5.279  18.952  0.00  0.00    +0.000 C 
ATOM      2  C   UNL     1       2.422   4.593  17.595  0.00  0.00    +0.000 C 
ATOM      3  C   UNL     1       1.828   3.154  17.801  0.00  0.00    +0.000 C 
ATOM      4  C   UNL     1       2.310   2.470  19.113  0.00  0.00    +0.000 C 
ATOM      5  C   UNL     1       1.374   2.578  20.337  0.00  0.00    +0.000 C 
ATOM      6  C   UNL     1       1.730   3.904  21.021  0.00  0.00    +0.000 C 
ATOM      7  C   UNL     1       2.831   4.485  20.132  0.00  0.00    +0.000 C 
ATOM      8  N   UNL     1       3.453   3.251  19.578  0.00  0.00    +0.000 NA
ATOM      9  C   UNL     1       4.374   2.485  20.398  0.00  0.00    +0.000 C 
ENDROOT
BRANCH   2  10
ATOM     10  C   UNL     1       3.887   4.643  17.104  0.00  0.00    +0.000 A 
ATOM     11  C   UNL     1       4.434   3.595  16.365  0.00  0.00    +0.000 A 
ATOM     12  C   UNL     1       5.792   3.607  16.001  0.00  0.00    +0.000 A 
ATOM     13  C   UNL     1       6.633   4.661  16.384  0.00  0.00    +0.000 A 
ATOM     14  C   UNL     1       6.118   5.731  17.113  0.00  0.00    +0.000 A 
ATOM     15  C   UNL     1       4.749   5.717  17.418  0.00  0.00    +0.000 A 
BRANCH  14  16
ATOM     16  C   UNL     1       6.944   6.832  17.616  0.00  0.00    +0.000 A 
ATOM     17  C   UNL     1       6.959   8.187  17.123  0.00  0.00    +0.000 A 
ATOM     18  C   UNL     1       7.884   8.986  17.760  0.00  0.00    +0.000 A 
ATOM     19  S   UNL     1       8.723   8.131  18.977  0.00  0.00    +0.000 S 
ATOM     20  C   UNL     1       7.864   6.687  18.637  0.00  0.00    +0.000 A 
ENDBRANCH  14  16
ENDBRANCH   2  10
BRANCH   1  21
ATOM     21  C   UNL     1       2.333   6.792  18.927  0.00  0.00    +0.000 C 
ATOM     22  O   UNL     1       2.363   7.500  17.929  0.00  0.00    +0.000 OA
BRANCH  21  24
ATOM     23  C   UNL     1       1.497   7.928  20.835  0.00  0.00    +0.000 C 
ATOM     24  O   UNL     1       2.566   7.222  20.204  0.00  0.00    +0.000 OA
ENDBRANCH  21  24
ENDBRANCH   1  21
TORSDOF 4
ENDMDL
MODEL 9
REMARK VINA RESULT:      -6.6      3.575      6.533
REMARK  Name = 
REMARK  6 active torsions:
REMARK  status: ('A' for Active; 'I' for Inactive)
REMARK    1  A    between atoms: C_1  and  O_2
REMARK    2  A    between atoms: O_2  and  C_3
REMARK    3  A    between atoms: C_3  and  C_5
REMARK    4  A    between atoms: C_6  and  C_7
REMARK    5  A    between atoms: C_11  and  C_12
REMARK    6  A    between atoms: N_23  and  C_24
REMARK                            x       y       z     vdW  Elec       q    Type
REMARK                         _______ _______ _______ _____ _____    ______ ____
ROOT
ATOM      1  C   UNL     1       4.429   3.973  17.385  0.00  0.00    +0.000 C 
ATOM      2  C   UNL     1       3.595   5.263  17.227  0.00  0.00    +0.000 C 
ATOM      3  C   UNL     1       4.553   6.205  16.414  0.00  0.00    +0.000 C 
ATOM      4  C   UNL     1       5.985   6.292  17.013  0.00  0.00    +0.000 C 
ATOM      5  C   UNL     1       7.054   5.364  16.395  0.00  0.00    +0.000 C 
ATOM      6  C   UNL     1       6.936   4.032  17.145  0.00  0.00    +0.000 C 
ATOM      7  C   UNL     1       5.789   4.270  18.128  0.00  0.00    +0.000 C 
ATOM      8  N   UNL     1       5.893   5.737  18.360  0.00  0.00    +0.000 NA
ATOM      9  C   UNL     1       6.912   6.248  19.261  0.00  0.00    +0.000 C 
ENDROOT
BRANCH   2  10
ATOM     10  C   UNL     1       3.029   5.860  18.536  0.00  0.00    +0.000 A 
ATOM     11  C   UNL     1       2.900   5.080  19.685  0.00  0.00    +0.000 A 
ATOM     12  C   UNL     1       2.301   5.605  20.843  0.00  0.00    +0.000 A 
ATOM     13  C   UNL     1       1.803   6.915  20.869  0.00  0.00    +0.000 A 
ATOM     14  C   UNL     1       1.925   7.727  19.743  0.00  0.00    +0.000 A 
ATOM     15  C   UNL     1       2.574   7.194  18.618  0.00  0.00    +0.000 A 
BRANCH  14  16
ATOM     16  C   UNL     1       1.366   9.079  19.662  0.00  0.00    +0.000 A 
ATOM     17  C   UNL     1       1.433   9.969  18.530  0.00  0.00    +0.000 A 
ATOM     18  C   UNL     1       0.864  11.200  18.773  0.00  0.00    +0.000 A 
ATOM     19  S   UNL     1       0.213  11.294  20.349  0.00  0.00    +0.000 S 
ATOM     20  C   UNL     1       0.713   9.695  20.713  0.00  0.00    +0.000 A 
ENDBRANCH  14  16
ENDBRANCH   2  10
BRANCH   1  21
ATOM     21  C   UNL     1       3.621   2.770  17.860  0.00  0.00    +0.000 C 
ATOM     22  O   UNL     1       4.033   1.855  18.561  0.00  0.00    +0.000 OA
BRANCH  21  24
ATOM     23  C   UNL     1       1.282   2.479  18.132  0.00  0.00    +0.000 C 
ATOM     24  O   UNL     1       2.381   2.826  17.288  0.00  0.00    +0.000 OA
ENDBRANCH  21  24
ENDBRANCH   1  21
TORSDOF 4
ENDMDL
