MODEL 1
REMARK VINA RESULT:      -7.1      0.000      0.000
REMARK  Name = 
REMARK  6 active torsions:
REMARK  status: ('A' for Active; 'I' for Inactive)
REMARK    1  A    between atoms: C_2  and  O_3
REMARK    2  A    between atoms: C_2  and  C_4
REMARK    3  A    between atoms: C_4  and  C_5
REMARK    4  A    between atoms: C_4  and  O_12
REMARK    5  A    between atoms: C_5  and  C_6
REMARK    6  A    between atoms: O_12  and  C_13
REMARK                            x       y       z     vdW  Elec       q    Type
REMARK                         _______ _______ _______ _____ _____    ______ ____
ROOT
ATOM      1  C   UNL     1       3.857   3.780  17.981  0.00  0.00    +0.000 C 
ENDROOT
BRANCH   1   3
ATOM      2  O   UNL     1       2.168   2.098  17.423  0.00  0.00    +0.000 OA
ATOM      3  C   UNL     1       3.285   2.363  17.848  0.00  0.00    +0.000 C 
BRANCH   3   4
ATOM      4  O   UNL     1       4.199   1.398  18.119  0.00  0.00    +0.000 OA
ATOM      5  H   UNL     1       3.761   0.525  18.226  0.00  0.00    +0.000 HD
ENDBRANCH   3   4
ENDBRANCH   1   3
BRANCH   1   6
ATOM      6  C   UNL     1       5.053   4.047  17.057  0.00  0.00    +0.000 C 
BRANCH   6   7
ATOM      7  C   UNL     1       6.094   5.028  17.542  0.00  0.00    +0.000 A 
ATOM      8  C   UNL     1       6.513   6.097  16.742  0.00  0.00    +0.000 A 
ATOM      9  C   UNL     1       7.455   7.010  17.216  0.00  0.00    +0.000 A 
ATOM     10  C   UNL     1       7.981   6.878  18.499  0.00  0.00    +0.000 A 
ATOM     11  C   UNL     1       7.569   5.823  19.309  0.00  0.00    +0.000 A 
ATOM     12  C   UNL     1       6.631   4.906  18.833  0.00  0.00    +0.000 A 
ENDBRANCH   6   7
ENDBRANCH   1   6
BRANCH   1  13
ATOM     13  O   UNL     1       2.791   4.733  17.848  0.00  0.00    +0.000 OA
BRANCH  13  14
ATOM     14  C   UNL     1       2.406   5.544  18.889  0.00  0.00    +0.000 A 
ATOM     15  C   UNL     1       2.615   6.928  18.678  0.00  0.00    +0.000 A 
ATOM     16 CL   UNL     1       3.377   7.512  17.234  0.00  0.00    +0.000 Cl
ATOM     17  C   UNL     1       2.204   7.892  19.604  0.00  0.00    +0.000 A 
ATOM     18  C   UNL     1       1.550   7.491  20.759  0.00  0.00    +0.000 A 
ATOM     19 CL   UNL     1       0.993   8.662  21.888  0.00  0.00    +0.000 Cl
ATOM     20  C   UNL     1       1.321   6.144  20.994  0.00  0.00    +0.000 A 
ATOM     21  C   UNL     1       1.733   5.170  20.069  0.00  0.00    +0.000 A 
ATOM     22 CL   UNL     1       1.242   3.569  20.484  0.00  0.00    +0.000 Cl
ENDBRANCH  13  14
ENDBRANCH   1  13
TORSDOF 6
ENDMDL
MODEL 2
REMARK VINA RESULT:      -7.0      0.065      1.053
REMARK  Name = 
REMARK  6 active torsions:
REMARK  status: ('A' for Active; 'I' for Inactive)
REMARK    1  A    between atoms: C_2  and  O_3
REMARK    2  A    between atoms: C_2  and  C_4
REMARK    3  A    between atoms: C_4  and  C_5
REMARK    4  A    between atoms: C_4  and  O_12
REMARK    5  A    between atoms: C_5  and  C_6
REMARK    6  A    between atoms: O_12  and  C_13
REMARK                            x       y       z     vdW  Elec       q    Type
REMARK                         _______ _______ _______ _____ _____    ______ ____
ROOT
ATOM      1  C   UNL     1       3.803   3.790  18.015  0.00  0.00    +0.000 C 
ENDROOT
BRANCH   1   3
ATOM      2  O   UNL     1       2.153   2.086  17.406  0.00  0.00    +0.000 OA
ATOM      3  C   UNL     1       3.258   2.364  17.854  0.00  0.00    +0.000 C 
BRANCH   3   4
ATOM      4  O   UNL     1       4.184   1.411  18.129  0.00  0.00    +0.000 OA
ATOM      5  H   UNL     1       4.421   0.913  17.317  0.00  0.00    +0.000 HD
ENDBRANCH   3   4
ENDBRANCH   1   3
BRANCH   1   6
ATOM      6  C   UNL     1       5.001   4.093  17.105  0.00  0.00    +0.000 C 
BRANCH   6   7
ATOM      7  C   UNL     1       6.032   5.067  17.623  0.00  0.00    +0.000 A 
ATOM      8  C   UNL     1       6.608   4.911  18.889  0.00  0.00    +0.000 A 
ATOM      9  C   UNL     1       7.579   5.804  19.341  0.00  0.00    +0.000 A 
ATOM     10  C   UNL     1       8.001   6.856  18.532  0.00  0.00    +0.000 A 
ATOM     11  C   UNL     1       7.441   7.021  17.268  0.00  0.00    +0.000 A 
ATOM     12  C   UNL     1       6.465   6.132  16.817  0.00  0.00    +0.000 A 
ENDBRANCH   6   7
ENDBRANCH   1   6
BRANCH   1  13
ATOM     13  O   UNL     1       2.721   4.725  17.889  0.00  0.00    +0.000 OA
BRANCH  13  14
ATOM     14  C   UNL     1       2.353   5.556  18.920  0.00  0.00    +0.000 A 
ATOM     15  C   UNL     1       2.578   6.934  18.687  0.00  0.00    +0.000 A 
ATOM     16 CL   UNL     1       3.337   7.487  17.229  0.00  0.00    +0.000 Cl
ATOM     17  C   UNL     1       2.186   7.917  19.601  0.00  0.00    +0.000 A 
ATOM     18  C   UNL     1       1.536   7.541  20.766  0.00  0.00    +0.000 A 
ATOM     19 CL   UNL     1       1.001   8.735  21.882  0.00  0.00    +0.000 Cl
ATOM     20  C   UNL     1       1.291   6.201  21.023  0.00  0.00    +0.000 A 
ATOM     21  C   UNL     1       1.685   5.208  20.109  0.00  0.00    +0.000 A 
ATOM     22 CL   UNL     1       1.177   3.620  20.552  0.00  0.00    +0.000 Cl
ENDBRANCH  13  14
ENDBRANCH   1  13
TORSDOF 6
ENDMDL
MODEL 3
REMARK VINA RESULT:      -6.9      0.359      2.390
REMARK  Name = 
REMARK  6 active torsions:
REMARK  status: ('A' for Active; 'I' for Inactive)
REMARK    1  A    between atoms: C_2  and  O_3
REMARK    2  A    between atoms: C_2  and  C_4
REMARK    3  A    between atoms: C_4  and  C_5
REMARK    4  A    between atoms: C_4  and  O_12
REMARK    5  A    between atoms: C_5  and  C_6
REMARK    6  A    between atoms: O_12  and  C_13
REMARK                            x       y       z     vdW  Elec       q    Type
REMARK                         _______ _______ _______ _____ _____    ______ ____
ROOT
ATOM      1  C   UNL     1       3.650   3.488  18.042  0.00  0.00    +0.000 C 
ENDROOT
BRANCH   1   3
ATOM      2  O   UNL     1       3.912   1.104  18.532  0.00  0.00    +0.000 OA
ATOM      3  C   UNL     1       3.272   2.002  18.001  0.00  0.00    +0.000 C 
BRANCH   3   4
ATOM      4  O   UNL     1       2.062   1.781  17.428  0.00  0.00    +0.000 OA
ATOM      5  H   UNL     1       2.166   1.338  16.558  0.00  0.00    +0.000 HD
ENDBRANCH   3   4
ENDBRANCH   1   3
BRANCH   1   6
ATOM      6  C   UNL     1       4.787   3.858  17.079  0.00  0.00    +0.000 C 
BRANCH   6   7
ATOM      7  C   UNL     1       5.826   4.832  17.580  0.00  0.00    +0.000 A 
ATOM      8  C   UNL     1       6.247   4.823  18.916  0.00  0.00    +0.000 A 
ATOM      9  C   UNL     1       7.228   5.712  19.355  0.00  0.00    +0.000 A 
ATOM     10  C   UNL     1       7.816   6.610  18.467  0.00  0.00    +0.000 A 
ATOM     11  C   UNL     1       7.412   6.627  17.135  0.00  0.00    +0.000 A 
ATOM     12  C   UNL     1       6.426   5.743  16.695  0.00  0.00    +0.000 A 
ENDBRANCH   6   7
ENDBRANCH   1   6
BRANCH   1  13
ATOM     13  O   UNL     1       2.464   4.281  17.878  0.00  0.00    +0.000 OA
BRANCH  13  14
ATOM     14  C   UNL     1       2.199   5.367  18.679  0.00  0.00    +0.000 A 
ATOM     15  C   UNL     1       1.580   5.061  19.914  0.00  0.00    +0.000 A 
ATOM     16 CL   UNL     1       1.132   3.435  20.318  0.00  0.00    +0.000 Cl
ATOM     17  C   UNL     1       1.317   6.041  20.877  0.00  0.00    +0.000 A 
ATOM     18  C   UNL     1       1.689   7.353  20.631  0.00  0.00    +0.000 A 
ATOM     19 CL   UNL     1       1.419   8.566  21.819  0.00  0.00    +0.000 Cl
ATOM     20  C   UNL     1       2.305   7.687  19.435  0.00  0.00    +0.000 A 
ATOM     21  C   UNL     1       2.571   6.707  18.462  0.00  0.00    +0.000 A 
ATOM     22 CL   UNL     1       3.455   7.301  17.106  0.00  0.00    +0.000 Cl
ENDBRANCH  13  14
ENDBRANCH   1  13
TORSDOF 6
ENDMDL
MODEL 4
REMARK VINA RESULT:      -6.8      0.440      2.166
REMARK  Name = 
REMARK  6 active torsions:
REMARK  status: ('A' for Active; 'I' for Inactive)
REMARK    1  A    between atoms: C_2  and  O_3
REMARK    2  A    between atoms: C_2  and  C_4
REMARK    3  A    between atoms: C_4  and  C_5
REMARK    4  A    between atoms: C_4  and  O_12
REMARK    5  A    between atoms: C_5  and  C_6
REMARK    6  A    between atoms: O_12  and  C_13
REMARK                            x       y       z     vdW  Elec       q    Type
REMARK                         _______ _______ _______ _____ _____    ______ ____
ROOT
ATOM      1  C   UNL     1       3.625   3.417  18.108  0.00  0.00    +0.000 C 
ENDROOT
BRANCH   1   3
ATOM      2  O   UNL     1       4.042   1.038  18.512  0.00  0.00    +0.000 OA
ATOM      3  C   UNL     1       3.284   1.921  18.132  0.00  0.00    +0.000 C 
BRANCH   3   4
ATOM      4  O   UNL     1       1.988   1.670  17.819  0.00  0.00    +0.000 OA
ATOM      5  H   UNL     1       1.870   1.615  16.846  0.00  0.00    +0.000 HD
ENDBRANCH   3   4
ENDBRANCH   1   3
BRANCH   1   6
ATOM      6  C   UNL     1       4.705   3.783  17.081  0.00  0.00    +0.000 C 
BRANCH   6   7
ATOM      7  C   UNL     1       5.791   4.731  17.529  0.00  0.00    +0.000 A 
ATOM      8  C   UNL     1       6.403   5.612  16.630  0.00  0.00    +0.000 A 
ATOM      9  C   UNL     1       7.385   6.501  17.067  0.00  0.00    +0.000 A 
ATOM     10  C   UNL     1       7.758   6.536  18.408  0.00  0.00    +0.000 A 
ATOM     11  C   UNL     1       7.154   5.670  19.315  0.00  0.00    +0.000 A 
ATOM     12  C   UNL     1       6.176   4.776  18.878  0.00  0.00    +0.000 A 
ENDBRANCH   6   7
ENDBRANCH   1   6
BRANCH   1  13
ATOM     13  O   UNL     1       2.413   4.174  17.977  0.00  0.00    +0.000 OA
BRANCH  13  14
ATOM     14  C   UNL     1       2.164   5.288  18.744  0.00  0.00    +0.000 A 
ATOM     15  C   UNL     1       1.558   5.028  19.996  0.00  0.00    +0.000 A 
ATOM     16 CL   UNL     1       1.104   3.420  20.459  0.00  0.00    +0.000 Cl
ATOM     17  C   UNL     1       1.313   6.042  20.929  0.00  0.00    +0.000 A 
ATOM     18  C   UNL     1       1.692   7.342  20.634  0.00  0.00    +0.000 A 
ATOM     19 CL   UNL     1       1.445   8.596  21.784  0.00  0.00    +0.000 Cl
ATOM     20  C   UNL     1       2.296   7.632  19.420  0.00  0.00    +0.000 A 
ATOM     21  C   UNL     1       2.543   6.618  18.478  0.00  0.00    +0.000 A 
ATOM     22 CL   UNL     1       3.415   7.160  17.092  0.00  0.00    +0.000 Cl
ENDBRANCH  13  14
ENDBRANCH   1  13
TORSDOF 6
ENDMDL
MODEL 5
REMARK VINA RESULT:      -6.8      0.642      2.356
REMARK  Name = 
REMARK  6 active torsions:
REMARK  status: ('A' for Active; 'I' for Inactive)
REMARK    1  A    between atoms: C_2  and  O_3
REMARK    2  A    between atoms: C_2  and  C_4
REMARK    3  A    between atoms: C_4  and  C_5
REMARK    4  A    between atoms: C_4  and  O_12
REMARK    5  A    between atoms: C_5  and  C_6
REMARK    6  A    between atoms: O_12  and  C_13
REMARK                            x       y       z     vdW  Elec       q    Type
REMARK                         _______ _______ _______ _____ _____    ______ ____
ROOT
ATOM      1  C   UNL     1       4.082   3.929  18.608  0.00  0.00    +0.000 C 
ENDROOT
BRANCH   1   3
ATOM      2  O   UNL     1       3.218   1.666  18.252  0.00  0.00    +0.000 OA
ATOM      3  C   UNL     1       3.977   2.417  18.850  0.00  0.00    +0.000 C 
BRANCH   3   4
ATOM      4  O   UNL     1       4.920   1.953  19.708  0.00  0.00    +0.000 OA
ATOM      5  H   UNL     1       5.321   1.124  19.367  0.00  0.00    +0.000 HD
ENDBRANCH   3   4
ENDBRANCH   1   3
BRANCH   1   6
ATOM      6  C   UNL     1       5.090   4.305  17.513  0.00  0.00    +0.000 C 
BRANCH   6   7
ATOM      7  C   UNL     1       6.160   5.307  17.875  0.00  0.00    +0.000 A 
ATOM      8  C   UNL     1       6.921   5.168  19.042  0.00  0.00    +0.000 A 
ATOM      9  C   UNL     1       7.924   6.088  19.347  0.00  0.00    +0.000 A 
ATOM     10  C   UNL     1       8.195   7.148  18.485  0.00  0.00    +0.000 A 
ATOM     11  C   UNL     1       7.451   7.295  17.317  0.00  0.00    +0.000 A 
ATOM     12  C   UNL     1       6.442   6.380  17.014  0.00  0.00    +0.000 A 
ENDBRANCH   6   7
ENDBRANCH   1   6
BRANCH   1  13
ATOM     13  O   UNL     1       2.767   4.466  18.402  0.00  0.00    +0.000 OA
BRANCH  13  14
ATOM     14  C   UNL     1       2.326   5.586  19.067  0.00  0.00    +0.000 A 
ATOM     15  C   UNL     1       1.724   5.336  20.324  0.00  0.00    +0.000 A 
ATOM     16 CL   UNL     1       1.505   3.720  20.911  0.00  0.00    +0.000 Cl
ATOM     17  C   UNL     1       1.297   6.371  21.162  0.00  0.00    +0.000 A 
ATOM     18  C   UNL     1       1.483   7.687  20.768  0.00  0.00    +0.000 A 
ATOM     19 CL   UNL     1       1.009   8.975  21.803  0.00  0.00    +0.000 Cl
ATOM     20  C   UNL     1       2.077   7.968  19.547  0.00  0.00    +0.000 A 
ATOM     21  C   UNL     1       2.507   6.933  18.699  0.00  0.00    +0.000 A 
ATOM     22 CL   UNL     1       3.333   7.490  17.291  0.00  0.00    +0.000 Cl
ENDBRANCH  13  14
ENDBRANCH   1  13
TORSDOF 6
ENDMDL
MODEL 6
REMARK VINA RESULT:      -6.7      2.608      5.437
REMARK  Name = 
REMARK  6 active torsions:
REMARK  status: ('A' for Active; 'I' for Inactive)
REMARK    1  A    between atoms: C_2  and  O_3
REMARK    2  A    between atoms: C_2  and  C_4
REMARK    3  A    between atoms: C_4  and  C_5
REMARK    4  A    between atoms: C_4  and  O_12
REMARK    5  A    between atoms: C_5  and  C_6
REMARK    6  A    between atoms: O_12  and  C_13
REMARK                            x       y       z     vdW  Elec       q    Type
REMARK                         _______ _______ _______ _____ _____    ______ ____
ROOT
ATOM      1  C   UNL     1       2.731   4.688  19.899  0.00  0.00    +0.000 C 
ENDROOT
BRANCH   1   3
ATOM      2  O   UNL     1       2.602   2.763  21.408  0.00  0.00    +0.000 OA
ATOM      3  C   UNL     1       2.044   3.527  20.631  0.00  0.00    +0.000 C 
BRANCH   3   4
ATOM      4  O   UNL     1       0.700   3.508  20.445  0.00  0.00    +0.000 OA
ATOM      5  H   UNL     1       0.248   3.115  21.223  0.00  0.00    +0.000 HD
ENDBRANCH   3   4
ENDBRANCH   1   3
BRANCH   1   6
ATOM      6  C   UNL     1       2.586   6.036  20.618  0.00  0.00    +0.000 C 
BRANCH   6   7
ATOM      7  C   UNL     1       2.181   7.225  19.780  0.00  0.00    +0.000 A 
ATOM      8  C   UNL     1       1.428   8.273  20.321  0.00  0.00    +0.000 A 
ATOM      9  C   UNL     1       1.086   9.377  19.540  0.00  0.00    +0.000 A 
ATOM     10  C   UNL     1       1.504   9.459  18.213  0.00  0.00    +0.000 A 
ATOM     11  C   UNL     1       2.259   8.427  17.663  0.00  0.00    +0.000 A 
ATOM     12  C   UNL     1       2.596   7.319  18.441  0.00  0.00    +0.000 A 
ENDBRANCH   6   7
ENDBRANCH   1   6
BRANCH   1  13
ATOM     13  O   UNL     1       4.088   4.323  19.607  0.00  0.00    +0.000 OA
BRANCH  13  14
ATOM     14  C   UNL     1       4.602   4.391  18.334  0.00  0.00    +0.000 A 
ATOM     15  C   UNL     1       5.913   4.918  18.246  0.00  0.00    +0.000 A 
ATOM     16 CL   UNL     1       6.746   5.497  19.652  0.00  0.00    +0.000 Cl
ATOM     17  C   UNL     1       6.611   4.979  17.035  0.00  0.00    +0.000 A 
ATOM     18  C   UNL     1       6.015   4.492  15.882  0.00  0.00    +0.000 A 
ATOM     19 CL   UNL     1       6.871   4.513  14.391  0.00  0.00    +0.000 Cl
ATOM     20  C   UNL     1       4.735   3.961  15.933  0.00  0.00    +0.000 A 
ATOM     21  C   UNL     1       4.028   3.898  17.146  0.00  0.00    +0.000 A 
ATOM     22 CL   UNL     1       2.510   3.090  17.021  0.00  0.00    +0.000 Cl
ENDBRANCH  13  14
ENDBRANCH   1  13
TORSDOF 6
ENDMDL
MODEL 7
REMARK VINA RESULT:      -6.6      2.575      5.374
REMARK  Name = 
REMARK  6 active torsions:
REMARK  status: ('A' for Active; 'I' for Inactive)
REMARK    1  A    between atoms: C_2  and  O_3
REMARK    2  A    between atoms: C_2  and  C_4
REMARK    3  A    between atoms: C_4  and  C_5
REMARK    4  A    between atoms: C_4  and  O_12
REMARK    5  A    between atoms: C_5  and  C_6
REMARK    6  A    between atoms: O_12  and  C_13
REMARK                            x       y       z     vdW  Elec       q    Type
REMARK                         _______ _______ _______ _____ _____    ______ ____
ROOT
ATOM      1  C   UNL     1       2.729   4.285  19.990  0.00  0.00    +0.000 C 
ENDROOT
BRANCH   1   3
ATOM      2  O   UNL     1       0.816   2.847  20.508  0.00  0.00    +0.000 OA
ATOM      3  C   UNL     1       1.880   3.343  20.854  0.00  0.00    +0.000 C 
BRANCH   3   4
ATOM      4  O   UNL     1       2.497   2.989  22.009  0.00  0.00    +0.000 OA
ATOM      5  H   UNL     1       3.187   2.311  21.840  0.00  0.00    +0.000 HD
ENDBRANCH   3   4
ENDBRANCH   1   3
BRANCH   1   6
ATOM      6  C   UNL     1       2.860   5.699  20.572  0.00  0.00    +0.000 C 
BRANCH   6   7
ATOM      7  C   UNL     1       2.462   6.852  19.683  0.00  0.00    +0.000 A 
ATOM      8  C   UNL     1       1.701   7.920  20.174  0.00  0.00    +0.000 A 
ATOM      9  C   UNL     1       1.365   8.990  19.345  0.00  0.00    +0.000 A 
ATOM     10  C   UNL     1       1.796   9.019  18.021  0.00  0.00    +0.000 A 
ATOM     11  C   UNL     1       2.558   7.967  17.520  0.00  0.00    +0.000 A 
ATOM     12  C   UNL     1       2.889   6.893  18.346  0.00  0.00    +0.000 A 
ENDBRANCH   6   7
ENDBRANCH   1   6
BRANCH   1  13
ATOM     13  O   UNL     1       3.985   3.654  19.697  0.00  0.00    +0.000 OA
BRANCH  13  14
ATOM     14  C   UNL     1       4.674   3.908  18.536  0.00  0.00    +0.000 A 
ATOM     15  C   UNL     1       4.055   3.429  17.356  0.00  0.00    +0.000 A 
ATOM     16 CL   UNL     1       2.578   2.523  17.420  0.00  0.00    +0.000 Cl
ATOM     17  C   UNL     1       4.585   3.676  16.085  0.00  0.00    +0.000 A 
ATOM     18  C   UNL     1       5.741   4.431  15.965  0.00  0.00    +0.000 A 
ATOM     19 CL   UNL     1       6.384   4.787  14.411  0.00  0.00    +0.000 Cl
ATOM     20  C   UNL     1       6.369   4.923  17.099  0.00  0.00    +0.000 A 
ATOM     21  C   UNL     1       5.843   4.678  18.379  0.00  0.00    +0.000 A 
ATOM     22 CL   UNL     1       6.697   5.482  19.644  0.00  0.00    +0.000 Cl
ENDBRANCH  13  14
ENDBRANCH   1  13
TORSDOF 6
ENDMDL
MODEL 8
REMARK VINA RESULT:      -6.5      2.577      5.476
REMARK  Name = 
REMARK  6 active torsions:
REMARK  status: ('A' for Active; 'I' for Inactive)
REMARK    1  A    between atoms: C_2  and  O_3
REMARK    2  A    between atoms: C_2  and  C_4
REMARK    3  A    between atoms: C_4  and  C_5
REMARK    4  A    between atoms: C_4  and  O_12
REMARK    5  A    between atoms: C_5  and  C_6
REMARK    6  A    between atoms: O_12  and  C_13
REMARK                            x       y       z     vdW  Elec       q    Type
REMARK                         _______ _______ _______ _____ _____    ______ ____
ROOT
ATOM      1  C   UNL     1       2.835   4.648  19.460  0.00  0.00    +0.000 C 
ENDROOT
BRANCH   1   3
ATOM      2  O   UNL     1       0.613   4.011  20.268  0.00  0.00    +0.000 OA
ATOM      3  C   UNL     1       1.780   3.707  20.058  0.00  0.00    +0.000 C 
BRANCH   3   4
ATOM      4  O   UNL     1       2.231   2.436  20.207  0.00  0.00    +0.000 OA
ATOM      5  H   UNL     1       2.573   2.294  21.116  0.00  0.00    +0.000 HD
ENDBRANCH   3   4
ENDBRANCH   1   3
BRANCH   1   6
ATOM      6  C   UNL     1       2.986   5.968  20.229  0.00  0.00    +0.000 C 
BRANCH   6   7
ATOM      7  C   UNL     1       2.417   7.210  19.587  0.00  0.00    +0.000 A 
ATOM      8  C   UNL     1       2.631   7.491  18.232  0.00  0.00    +0.000 A 
ATOM      9  C   UNL     1       2.075   8.629  17.648  0.00  0.00    +0.000 A 
ATOM     10  C   UNL     1       1.284   9.493  18.402  0.00  0.00    +0.000 A 
ATOM     11  C   UNL     1       1.058   9.224  19.749  0.00  0.00    +0.000 A 
ATOM     12  C   UNL     1       1.619   8.089  20.336  0.00  0.00    +0.000 A 
ENDBRANCH   6   7
ENDBRANCH   1   6
BRANCH   1  13
ATOM     13  O   UNL     1       4.065   3.928  19.287  0.00  0.00    +0.000 OA
BRANCH  13  14
ATOM     14  C   UNL     1       4.892   4.148  18.211  0.00  0.00    +0.000 A 
ATOM     15  C   UNL     1       4.359   3.760  16.959  0.00  0.00    +0.000 A 
ATOM     16 CL   UNL     1       2.808   2.995  16.839  0.00  0.00    +0.000 Cl
ATOM     17  C   UNL     1       5.039   3.991  15.758  0.00  0.00    +0.000 A 
ATOM     18  C   UNL     1       6.265   4.637  15.784  0.00  0.00    +0.000 A 
ATOM     19 CL   UNL     1       7.096   4.974  14.317  0.00  0.00    +0.000 Cl
ATOM     20  C   UNL     1       6.813   5.038  16.993  0.00  0.00    +0.000 A 
ATOM     21  C   UNL     1       6.136   4.808  18.203  0.00  0.00    +0.000 A 
ATOM     22 CL   UNL     1       6.922   5.495  19.576  0.00  0.00    +0.000 Cl
ENDBRANCH  13  14
ENDBRANCH   1  13
TORSDOF 6
ENDMDL
MODEL 9
REMARK VINA RESULT:      -6.5      2.758      4.121
REMARK  Name = 
REMARK  6 active torsions:
REMARK  status: ('A' for Active; 'I' for Inactive)
REMARK    1  A    between atoms: C_2  and  O_3
REMARK    2  A    between atoms: C_2  and  C_4
REMARK    3  A    between atoms: C_4  and  C_5
REMARK    4  A    between atoms: C_4  and  O_12
REMARK    5  A    between atoms: C_5  and  C_6
REMARK    6  A    between atoms: O_12  and  C_13
REMARK                            x       y       z     vdW  Elec       q    Type
REMARK                         _______ _______ _______ _____ _____    ______ ____
ROOT
ATOM      1  C   UNL     1       5.107   4.961  16.744  0.00  0.00    +0.000 C 
ENDROOT
BRANCH   1   3
ATOM      2  O   UNL     1       6.048   6.113  18.689  0.00  0.00    +0.000 OA
ATOM      3  C   UNL     1       5.963   5.098  18.009  0.00  0.00    +0.000 C 
BRANCH   3   4
ATOM      4  O   UNL     1       6.523   3.925  18.397  0.00  0.00    +0.000 OA
ATOM      5  H   UNL     1       7.354   3.756  17.902  0.00  0.00    +0.000 HD
ENDBRANCH   3   4
ENDBRANCH   1   3
BRANCH   1   6
ATOM      6  C   UNL     1       5.504   3.769  15.861  0.00  0.00    +0.000 C 
BRANCH   6   7
ATOM      7  C   UNL     1       6.136   4.080  14.526  0.00  0.00    +0.000 A 
ATOM      8  C   UNL     1       7.203   4.980  14.419  0.00  0.00    +0.000 A 
ATOM      9  C   UNL     1       7.794   5.234  13.182  0.00  0.00    +0.000 A 
ATOM     10  C   UNL     1       7.341   4.583  12.037  0.00  0.00    +0.000 A 
ATOM     11  C   UNL     1       6.284   3.681  12.128  0.00  0.00    +0.000 A 
ATOM     12  C   UNL     1       5.688   3.431  13.365  0.00  0.00    +0.000 A 
ENDBRANCH   6   7
ENDBRANCH   1   6
BRANCH   1  13
ATOM     13  O   UNL     1       3.718   4.980  17.110  0.00  0.00    +0.000 OA
BRANCH  13  14
ATOM     14  C   UNL     1       3.259   4.371  18.254  0.00  0.00    +0.000 A 
ATOM     15  C   UNL     1       2.700   5.248  19.215  0.00  0.00    +0.000 A 
ATOM     16 CL   UNL     1       2.687   6.964  18.966  0.00  0.00    +0.000 Cl
ATOM     17  C   UNL     1       2.115   4.781  20.396  0.00  0.00    +0.000 A 
ATOM     18  C   UNL     1       2.057   3.417  20.633  0.00  0.00    +0.000 A 
ATOM     19 CL   UNL     1       1.299   2.818  22.056  0.00  0.00    +0.000 Cl
ATOM     20  C   UNL     1       2.587   2.528  19.710  0.00  0.00    +0.000 A 
ATOM     21  C   UNL     1       3.178   2.991  18.521  0.00  0.00    +0.000 A 
ATOM     22 CL   UNL     1       3.659   1.727  17.451  0.00  0.00    +0.000 Cl
ENDBRANCH  13  14
ENDBRANCH   1  13
TORSDOF 6
ENDMDL
