MODEL 1
REMARK VINA RESULT:      -6.6      0.000      0.000
REMARK  Name = 
REMARK  10 active torsions:
REMARK  status: ('A' for Active; 'I' for Inactive)
REMARK    1  A    between atoms: C_1  and  O_2
REMARK    2  A    between atoms: O_2  and  C_3
REMARK    3  A    between atoms: C_3  and  C_5
REMARK    4  A    between atoms: C_7  and  O_8
REMARK    5  A    between atoms: O_8  and  C_9
REMARK    6  A    between atoms: C_10  and  O_11
REMARK    7  A    between atoms: O_11  and  C_12
REMARK    8  A    between atoms: C_14  and  N_15
REMARK    9  A    between atoms: C_16  and  S_17
REMARK   10  A    between atoms: N_21  and  C_22
REMARK                            x       y       z     vdW  Elec       q    Type
REMARK                         _______ _______ _______ _____ _____    ______ ____
ROOT
ATOM      1  N   UNL     1       2.584   7.265  18.430  0.00  0.00    +0.000 NA
ATOM      2  C   UNL     1       2.106   7.082  19.632  0.00  0.00    +0.000 C 
ATOM      3  N   UNL     1       1.061   7.862  20.127  0.00  0.00    +0.000 N 
ATOM      4  C   UNL     1       0.710   8.003  21.552  0.00  0.00    +0.000 C 
ATOM      5  C   UNL     1       1.312   9.304  22.116  0.00  0.00    +0.000 C 
ATOM      6  N   UNL     1       0.831  10.465  21.348  0.00  0.00    +0.000 N 
ATOM      7  C   UNL     1       1.032  10.362  19.883  0.00  0.00    +0.000 C 
ATOM      8  C   UNL     1       0.534   8.999  19.334  0.00  0.00    +0.000 C 
ENDROOT
BRANCH   1  14
ATOM      9  C   UNL     1       3.284   5.080  17.462  0.00  0.00    +0.000 A 
ATOM     10  C   UNL     1       4.302   4.308  16.862  0.00  0.00    +0.000 A 
ATOM     11  C   UNL     1       5.573   4.839  16.606  0.00  0.00    +0.000 A 
ATOM     12  C   UNL     1       5.833   6.173  16.933  0.00  0.00    +0.000 A 
ATOM     13  C   UNL     1       4.839   6.907  17.592  0.00  0.00    +0.000 A 
ATOM     14  C   UNL     1       3.532   6.419  17.804  0.00  0.00    +0.000 A 
BRANCH   9  15
ATOM     15  C   UNL     1       2.006   4.366  17.704  0.00  0.00    +0.000 C 
ATOM     16  O   UNL     1       0.957   4.682  17.161  0.00  0.00    +0.000 OA
BRANCH  15  18
ATOM     17  C   UNL     1       0.973   2.611  18.850  0.00  0.00    +0.000 C 
ATOM     18  O   UNL     1       2.186   3.262  18.473  0.00  0.00    +0.000 OA
ENDBRANCH  15  18
ENDBRANCH   9  15
BRANCH  11  19
ATOM     19  O   UNL     1       6.437   3.952  16.017  0.00  0.00    +0.000 OA
ATOM     20  C   UNL     1       6.373   3.847  14.596  0.00  0.00    +0.000 C 
ENDBRANCH  11  19
BRANCH  12  21
ATOM     21  O   UNL     1       7.042   6.708  16.579  0.00  0.00    +0.000 OA
ATOM     22  C   UNL     1       7.686   7.575  17.505  0.00  0.00    +0.000 C 
ENDBRANCH  12  21
ENDBRANCH   1  14
BRANCH   6  23
ATOM     23  C   UNL     1      -0.052  11.386  21.884  0.00  0.00    +0.000 A 
ATOM     24  C   UNL     1      -1.066  10.977  22.764  0.00  0.00    +0.000 A 
ATOM     25  C   UNL     1      -2.009  11.877  23.276  0.00  0.00    +0.000 A 
ATOM     26  C   UNL     1      -1.952  13.221  22.929  0.00  0.00    +0.000 A 
ATOM     27  C   UNL     1      -0.953  13.659  22.069  0.00  0.00    +0.000 A 
ATOM     28  C   UNL     1      -0.019  12.750  21.554  0.00  0.00    +0.000 A 
ENDBRANCH   6  23
BRANCH   2  29
ATOM     29  S   UNL     1       2.668   5.781  20.695  0.00  0.00    +0.000 S 
ATOM     30  H   UNL     1       3.960   5.926  20.359  0.00  0.00    +0.000 HD
ENDBRANCH   2  29
TORSDOF 7
ENDMDL
MODEL 2
REMARK VINA RESULT:      -6.4      5.341     10.264
REMARK  Name = 
REMARK  10 active torsions:
REMARK  status: ('A' for Active; 'I' for Inactive)
REMARK    1  A    between atoms: C_1  and  O_2
REMARK    2  A    between atoms: O_2  and  C_3
REMARK    3  A    between atoms: C_3  and  C_5
REMARK    4  A    between atoms: C_7  and  O_8
REMARK    5  A    between atoms: O_8  and  C_9
REMARK    6  A    between atoms: C_10  and  O_11
REMARK    7  A    between atoms: O_11  and  C_12
REMARK    8  A    between atoms: C_14  and  N_15
REMARK    9  A    between atoms: C_16  and  S_17
REMARK   10  A    between atoms: N_21  and  C_22
REMARK                            x       y       z     vdW  Elec       q    Type
REMARK                         _______ _______ _______ _____ _____    ______ ____
ROOT
ATOM      1  N   UNL     1      -0.813  11.910  22.027  0.00  0.00    +0.000 NA
ATOM      2  C   UNL     1      -0.809  11.584  20.762  0.00  0.00    +0.000 C 
ATOM      3  N   UNL     1      -0.609  10.266  20.350  0.00  0.00    +0.000 N 
ATOM      4  C   UNL     1      -0.212   9.855  18.991  0.00  0.00    +0.000 C 
ATOM      5  C   UNL     1       1.306   9.594  18.943  0.00  0.00    +0.000 C 
ATOM      6  N   UNL     1       1.680   8.564  19.926  0.00  0.00    +0.000 N 
ATOM      7  C   UNL     1       1.216   8.831  21.308  0.00  0.00    +0.000 C 
ATOM      8  C   UNL     1      -0.288   9.212  21.342  0.00  0.00    +0.000 C 
ENDROOT
BRANCH   1  14
ATOM      9  C   UNL     1      -2.451  13.541  22.954  0.00  0.00    +0.000 A 
ATOM     10  C   UNL     1      -2.706  14.850  23.415  0.00  0.00    +0.000 A 
ATOM     11  C   UNL     1      -1.702  15.827  23.446  0.00  0.00    +0.000 A 
ATOM     12  C   UNL     1      -0.409  15.489  23.032  0.00  0.00    +0.000 A 
ATOM     13  C   UNL     1      -0.186  14.209  22.511  0.00  0.00    +0.000 A 
ATOM     14  C   UNL     1      -1.160  13.189  22.526  0.00  0.00    +0.000 A 
BRANCH   9  15
ATOM     15  C   UNL     1      -3.625  12.632  22.944  0.00  0.00    +0.000 C 
ATOM     16  O   UNL     1      -4.292  12.423  21.941  0.00  0.00    +0.000 OA
BRANCH  15  18
ATOM     17  C   UNL     1      -4.956  12.300  24.835  0.00  0.00    +0.000 C 
ATOM     18  O   UNL     1      -3.761  11.977  24.125  0.00  0.00    +0.000 OA
ENDBRANCH  15  18
ENDBRANCH   9  15
BRANCH  11  19
ATOM     19  O   UNL     1      -2.122  17.041  23.924  0.00  0.00    +0.000 OA
ATOM     20  C   UNL     1      -2.362  17.125  25.328  0.00  0.00    +0.000 C 
ENDBRANCH  11  19
BRANCH  12  21
ATOM     21  O   UNL     1       0.584  16.421  23.170  0.00  0.00    +0.000 OA
ATOM     22  C   UNL     1       1.125  17.000  21.989  0.00  0.00    +0.000 C 
ENDBRANCH  12  21
ENDBRANCH   1  14
BRANCH   6  23
ATOM     23  C   UNL     1       2.089   7.298  19.544  0.00  0.00    +0.000 A 
ATOM     24  C   UNL     1       1.930   6.203  20.406  0.00  0.00    +0.000 A 
ATOM     25  C   UNL     1       2.387   4.922  20.071  0.00  0.00    +0.000 A 
ATOM     26  C   UNL     1       3.008   4.702  18.848  0.00  0.00    +0.000 A 
ATOM     27  C   UNL     1       3.170   5.763  17.966  0.00  0.00    +0.000 A 
ATOM     28  C   UNL     1       2.718   7.043  18.314  0.00  0.00    +0.000 A 
ENDBRANCH   6  23
BRANCH   2  29
ATOM     29  S   UNL     1      -1.147  12.752  19.474  0.00  0.00    +0.000 S 
ATOM     30  H   UNL     1      -1.793  13.609  20.281  0.00  0.00    +0.000 HD
ENDBRANCH   2  29
TORSDOF 7
ENDMDL
MODEL 3
REMARK VINA RESULT:      -6.4      4.099      9.324
REMARK  Name = 
REMARK  10 active torsions:
REMARK  status: ('A' for Active; 'I' for Inactive)
REMARK    1  A    between atoms: C_1  and  O_2
REMARK    2  A    between atoms: O_2  and  C_3
REMARK    3  A    between atoms: C_3  and  C_5
REMARK    4  A    between atoms: C_7  and  O_8
REMARK    5  A    between atoms: O_8  and  C_9
REMARK    6  A    between atoms: C_10  and  O_11
REMARK    7  A    between atoms: O_11  and  C_12
REMARK    8  A    between atoms: C_14  and  N_15
REMARK    9  A    between atoms: C_16  and  S_17
REMARK   10  A    between atoms: N_21  and  C_22
REMARK                            x       y       z     vdW  Elec       q    Type
REMARK                         _______ _______ _______ _____ _____    ______ ____
ROOT
ATOM      1  N   UNL     1      -0.138  10.436  19.303  0.00  0.00    +0.000 NA
ATOM      2  C   UNL     1       0.388   9.537  20.091  0.00  0.00    +0.000 C 
ATOM      3  N   UNL     1       1.604   8.923  19.787  0.00  0.00    +0.000 N 
ATOM      4  C   UNL     1       2.088   7.664  20.380  0.00  0.00    +0.000 C 
ATOM      5  C   UNL     1       1.804   6.489  19.425  0.00  0.00    +0.000 C 
ATOM      6  N   UNL     1       2.443   6.726  18.119  0.00  0.00    +0.000 N 
ATOM      7  C   UNL     1       2.110   8.029  17.496  0.00  0.00    +0.000 C 
ATOM      8  C   UNL     1       2.281   9.201  18.498  0.00  0.00    +0.000 C 
ENDROOT
BRANCH   1  14
ATOM      9  C   UNL     1      -2.470  11.194  18.866  0.00  0.00    +0.000 A 
ATOM     10  C   UNL     1      -3.550  12.020  19.244  0.00  0.00    +0.000 A 
ATOM     11  C   UNL     1      -3.469  12.876  20.350  0.00  0.00    +0.000 A 
ATOM     12  C   UNL     1      -2.296  12.896  21.112  0.00  0.00    +0.000 A 
ATOM     13  C   UNL     1      -1.208  12.126  20.686  0.00  0.00    +0.000 A 
ATOM     14  C   UNL     1      -1.282  11.209  19.616  0.00  0.00    +0.000 A 
BRANCH   9  15
ATOM     15  C   UNL     1      -2.694  10.373  17.650  0.00  0.00    +0.000 C 
ATOM     16  O   UNL     1      -3.339   9.334  17.662  0.00  0.00    +0.000 OA
BRANCH  15  18
ATOM     17  C   UNL     1      -3.059  10.832  15.389  0.00  0.00    +0.000 C 
ATOM     18  O   UNL     1      -2.224  10.989  16.536  0.00  0.00    +0.000 OA
ENDBRANCH  15  18
ENDBRANCH   9  15
BRANCH  11  19
ATOM     19  O   UNL     1      -4.609  13.603  20.574  0.00  0.00    +0.000 OA
ATOM     20  C   UNL     1      -5.673  12.931  21.248  0.00  0.00    +0.000 C 
ENDBRANCH  11  19
BRANCH  12  21
ATOM     21  O   UNL     1      -2.271  13.656  22.250  0.00  0.00    +0.000 OA
ATOM     22  C   UNL     1      -1.087  13.641  23.038  0.00  0.00    +0.000 C 
ENDBRANCH  12  21
ENDBRANCH   1  14
BRANCH   6  23
ATOM     23  C   UNL     1       3.531   5.987  17.689  0.00  0.00    +0.000 A 
ATOM     24  C   UNL     1       4.670   6.624  17.173  0.00  0.00    +0.000 A 
ATOM     25  C   UNL     1       5.762   5.902  16.677  0.00  0.00    +0.000 A 
ATOM     26  C   UNL     1       5.748   4.513  16.698  0.00  0.00    +0.000 A 
ATOM     27  C   UNL     1       4.640   3.852  17.214  0.00  0.00    +0.000 A 
ATOM     28  C   UNL     1       3.547   4.583  17.699  0.00  0.00    +0.000 A 
ENDBRANCH   6  23
BRANCH   2  29
ATOM     29  S   UNL     1      -0.334   9.090  21.646  0.00  0.00    +0.000 S 
ATOM     30  H   UNL     1      -0.002  10.243  22.248  0.00  0.00    +0.000 HD
ENDBRANCH   2  29
TORSDOF 7
ENDMDL
MODEL 4
REMARK VINA RESULT:      -6.4      5.322     10.222
REMARK  Name = 
REMARK  10 active torsions:
REMARK  status: ('A' for Active; 'I' for Inactive)
REMARK    1  A    between atoms: C_1  and  O_2
REMARK    2  A    between atoms: O_2  and  C_3
REMARK    3  A    between atoms: C_3  and  C_5
REMARK    4  A    between atoms: C_7  and  O_8
REMARK    5  A    between atoms: O_8  and  C_9
REMARK    6  A    between atoms: C_10  and  O_11
REMARK    7  A    between atoms: O_11  and  C_12
REMARK    8  A    between atoms: C_14  and  N_15
REMARK    9  A    between atoms: C_16  and  S_17
REMARK   10  A    between atoms: N_21  and  C_22
REMARK                            x       y       z     vdW  Elec       q    Type
REMARK                         _______ _______ _______ _____ _____    ______ ____
ROOT
ATOM      1  N   UNL     1      -0.691  11.838  22.002  0.00  0.00    +0.000 NA
ATOM      2  C   UNL     1      -0.694  11.500  20.740  0.00  0.00    +0.000 C 
ATOM      3  N   UNL     1      -0.510  10.177  20.340  0.00  0.00    +0.000 N 
ATOM      4  C   UNL     1      -0.122   9.749  18.984  0.00  0.00    +0.000 C 
ATOM      5  C   UNL     1       1.393   9.470  18.934  0.00  0.00    +0.000 C 
ATOM      6  N   UNL     1       1.757   8.445  19.925  0.00  0.00    +0.000 N 
ATOM      7  C   UNL     1       1.301   8.730  21.306  0.00  0.00    +0.000 C 
ATOM      8  C   UNL     1      -0.198   9.128  21.340  0.00  0.00    +0.000 C 
ENDROOT
BRANCH   1  14
ATOM      9  C   UNL     1      -2.296  13.482  22.963  0.00  0.00    +0.000 A 
ATOM     10  C   UNL     1      -2.536  14.799  23.409  0.00  0.00    +0.000 A 
ATOM     11  C   UNL     1      -1.534  15.779  23.383  0.00  0.00    +0.000 A 
ATOM     12  C   UNL     1      -0.259  15.436  22.924  0.00  0.00    +0.000 A 
ATOM     13  C   UNL     1      -0.052  14.147  22.418  0.00  0.00    +0.000 A 
ATOM     14  C   UNL     1      -1.022  13.125  22.491  0.00  0.00    +0.000 A 
BRANCH   9  15
ATOM     15  C   UNL     1      -3.466  12.571  23.016  0.00  0.00    +0.000 C 
ATOM     16  O   UNL     1      -3.787  11.962  24.027  0.00  0.00    +0.000 OA
BRANCH  15  18
ATOM     17  C   UNL     1      -5.583  12.868  22.071  0.00  0.00    +0.000 C 
ATOM     18  O   UNL     1      -4.191  12.619  21.869  0.00  0.00    +0.000 OA
ENDBRANCH  15  18
ENDBRANCH   9  15
BRANCH  11  19
ATOM     19  O   UNL     1      -1.939  17.000  23.854  0.00  0.00    +0.000 OA
ATOM     20  C   UNL     1      -2.687  17.000  25.069  0.00  0.00    +0.000 C 
ENDBRANCH  11  19
BRANCH  12  21
ATOM     21  O   UNL     1       0.737  16.373  23.005  0.00  0.00    +0.000 OA
ATOM     22  C   UNL     1       1.651  16.472  21.921  0.00  0.00    +0.000 C 
ENDBRANCH  12  21
ENDBRANCH   1  14
BRANCH   6  23
ATOM     23  C   UNL     1       2.151   7.171  19.553  0.00  0.00    +0.000 A 
ATOM     24  C   UNL     1       2.750   6.943  18.304  0.00  0.00    +0.000 A 
ATOM     25  C   UNL     1       3.106   5.658  17.877  0.00  0.00    +0.000 A 
ATOM     26  C   UNL     1       2.883   4.562  18.702  0.00  0.00    +0.000 A 
ATOM     27  C   UNL     1       2.304   4.756  19.949  0.00  0.00    +0.000 A 
ATOM     28  C   UNL     1       1.941   6.044  20.364  0.00  0.00    +0.000 A 
ENDBRANCH   6  23
BRANCH   2  29
ATOM     29  S   UNL     1      -1.023  12.661  19.443  0.00  0.00    +0.000 S 
ATOM     30  H   UNL     1       0.254  13.063  19.341  0.00  0.00    +0.000 HD
ENDBRANCH   2  29
TORSDOF 7
ENDMDL
MODEL 5
REMARK VINA RESULT:      -6.3      3.603      5.501
REMARK  Name = 
REMARK  10 active torsions:
REMARK  status: ('A' for Active; 'I' for Inactive)
REMARK    1  A    between atoms: C_1  and  O_2
REMARK    2  A    between atoms: O_2  and  C_3
REMARK    3  A    between atoms: C_3  and  C_5
REMARK    4  A    between atoms: C_7  and  O_8
REMARK    5  A    between atoms: O_8  and  C_9
REMARK    6  A    between atoms: C_10  and  O_11
REMARK    7  A    between atoms: O_11  and  C_12
REMARK    8  A    between atoms: C_14  and  N_15
REMARK    9  A    between atoms: C_16  and  S_17
REMARK   10  A    between atoms: N_21  and  C_22
REMARK                            x       y       z     vdW  Elec       q    Type
REMARK                         _______ _______ _______ _____ _____    ______ ____
ROOT
ATOM      1  N   UNL     1       1.736   9.937  19.088  0.00  0.00    +0.000 NA
ATOM      2  C   UNL     1       0.630  10.531  18.727  0.00  0.00    +0.000 C 
ATOM      3  N   UNL     1       0.623  11.856  18.292  0.00  0.00    +0.000 N 
ATOM      4  C   UNL     1      -0.569  12.721  18.231  0.00  0.00    +0.000 C 
ATOM      5  C   UNL     1      -0.623  13.632  19.473  0.00  0.00    +0.000 C 
ATOM      6  N   UNL     1       0.602  14.443  19.566  0.00  0.00    +0.000 N 
ATOM      7  C   UNL     1       1.863  13.667  19.513  0.00  0.00    +0.000 C 
ATOM      8  C   UNL     1       1.866  12.664  18.330  0.00  0.00    +0.000 C 
ENDROOT
BRANCH   1  14
ATOM      9  C   UNL     1       1.575   8.008  20.655  0.00  0.00    +0.000 A 
ATOM     10  C   UNL     1       1.738   6.623  20.868  0.00  0.00    +0.000 A 
ATOM     11  C   UNL     1       2.180   5.769  19.849  0.00  0.00    +0.000 A 
ATOM     12  C   UNL     1       2.446   6.300  18.583  0.00  0.00    +0.000 A 
ATOM     13  C   UNL     1       2.349   7.685  18.403  0.00  0.00    +0.000 A 
ATOM     14  C   UNL     1       1.847   8.558  19.391  0.00  0.00    +0.000 A 
BRANCH   9  15
ATOM     15  C   UNL     1       1.138   8.786  21.842  0.00  0.00    +0.000 C 
ATOM     16  O   UNL     1       1.894   9.510  22.474  0.00  0.00    +0.000 OA
BRANCH  15  18
ATOM     17  C   UNL     1      -0.734   9.702  22.897  0.00  0.00    +0.000 C 
ATOM     18  O   UNL     1      -0.203   8.698  22.032  0.00  0.00    +0.000 OA
ENDBRANCH  15  18
ENDBRANCH   9  15
BRANCH  11  19
ATOM     19  O   UNL     1       2.278   4.456  20.228  0.00  0.00    +0.000 OA
ATOM     20  C   UNL     1       1.058   3.791  20.550  0.00  0.00    +0.000 C 
ENDBRANCH  11  19
BRANCH  12  21
ATOM     21  O   UNL     1       2.772   5.439  17.570  0.00  0.00    +0.000 OA
ATOM     22  C   UNL     1       4.151   5.213  17.304  0.00  0.00    +0.000 C 
ENDBRANCH  12  21
ENDBRANCH   1  14
BRANCH   6  23
ATOM     23  C   UNL     1       0.596  15.810  19.346  0.00  0.00    +0.000 A 
ATOM     24  C   UNL     1       1.637  16.617  19.828  0.00  0.00    +0.000 A 
ATOM     25  C   UNL     1       1.629  18.009  19.670  0.00  0.00    +0.000 A 
ATOM     26  C   UNL     1       0.577  18.630  19.009  0.00  0.00    +0.000 A 
ATOM     27  C   UNL     1      -0.463  17.858  18.509  0.00  0.00    +0.000 A 
ATOM     28  C   UNL     1      -0.452  16.467  18.680  0.00  0.00    +0.000 A 
ENDBRANCH   6  23
BRANCH   2  29
ATOM     29  S   UNL     1      -0.928   9.691  18.667  0.00  0.00    +0.000 S 
ATOM     30  H   UNL     1      -0.445   8.628  18.003  0.00  0.00    +0.000 HD
ENDBRANCH   2  29
TORSDOF 7
ENDMDL
MODEL 6
REMARK VINA RESULT:      -6.3      5.911     10.194
REMARK  Name = 
REMARK  10 active torsions:
REMARK  status: ('A' for Active; 'I' for Inactive)
REMARK    1  A    between atoms: C_1  and  O_2
REMARK    2  A    between atoms: O_2  and  C_3
REMARK    3  A    between atoms: C_3  and  C_5
REMARK    4  A    between atoms: C_7  and  O_8
REMARK    5  A    between atoms: O_8  and  C_9
REMARK    6  A    between atoms: C_10  and  O_11
REMARK    7  A    between atoms: O_11  and  C_12
REMARK    8  A    between atoms: C_14  and  N_15
REMARK    9  A    between atoms: C_16  and  S_17
REMARK   10  A    between atoms: N_21  and  C_22
REMARK                            x       y       z     vdW  Elec       q    Type
REMARK                         _______ _______ _______ _____ _____    ______ ____
ROOT
ATOM      1  N   UNL     1       0.593  13.362  21.650  0.00  0.00    +0.000 NA
ATOM      2  C   UNL     1       0.942  13.199  20.402  0.00  0.00    +0.000 C 
ATOM      3  N   UNL     1       2.277  13.277  20.003  0.00  0.00    +0.000 N 
ATOM      4  C   UNL     1       2.736  13.489  18.619  0.00  0.00    +0.000 C 
ATOM      5  C   UNL     1       3.083  14.974  18.400  0.00  0.00    +0.000 C 
ATOM      6  N   UNL     1       4.114  15.404  19.359  0.00  0.00    +0.000 N 
ATOM      7  C   UNL     1       3.795  15.122  20.778  0.00  0.00    +0.000 C 
ATOM      8  C   UNL     1       3.329  13.656  20.977  0.00  0.00    +0.000 C 
ENDROOT
BRANCH   1  14
ATOM      9  C   UNL     1      -1.190  11.899  22.591  0.00  0.00    +0.000 A 
ATOM     10  C   UNL     1      -2.517  11.778  23.055  0.00  0.00    +0.000 A 
ATOM     11  C   UNL     1      -3.389  12.874  23.082  0.00  0.00    +0.000 A 
ATOM     12  C   UNL     1      -2.926  14.124  22.660  0.00  0.00    +0.000 A 
ATOM     13  C   UNL     1      -1.632  14.216  22.135  0.00  0.00    +0.000 A 
ATOM     14  C   UNL     1      -0.713  13.146  22.154  0.00  0.00    +0.000 A 
BRANCH   9  15
ATOM     15  C   UNL     1      -0.402  10.641  22.586  0.00  0.00    +0.000 C 
ATOM     16  O   UNL     1       0.080  10.157  23.600  0.00  0.00    +0.000 OA
BRANCH  15  18
ATOM     17  C   UNL     1       0.839   9.481  20.982  0.00  0.00    +0.000 C 
ATOM     18  O   UNL     1      -0.414  10.047  21.366  0.00  0.00    +0.000 OA
ENDBRANCH  15  18
ENDBRANCH   9  15
BRANCH  11  19
ATOM     19  O   UNL     1      -4.638  12.578  23.565  0.00  0.00    +0.000 OA
ATOM     20  C   UNL     1      -4.738  12.329  24.966  0.00  0.00    +0.000 C 
ENDBRANCH  11  19
BRANCH  12  21
ATOM     21  O   UNL     1      -3.755  15.205  22.793  0.00  0.00    +0.000 OA
ATOM     22  C   UNL     1      -3.574  16.050  23.923  0.00  0.00    +0.000 C 
ENDBRANCH  12  21
ENDBRANCH   1  14
BRANCH   6  23
ATOM     23  C   UNL     1       5.408  15.697  18.964  0.00  0.00    +0.000 A 
ATOM     24  C   UNL     1       5.981  16.944  19.256  0.00  0.00    +0.000 A 
ATOM     25  C   UNL     1       7.266  17.290  18.819  0.00  0.00    +0.000 A 
ATOM     26  C   UNL     1       8.021  16.383  18.085  0.00  0.00    +0.000 A 
ATOM     27  C   UNL     1       7.487  15.135  17.790  0.00  0.00    +0.000 A 
ATOM     28  C   UNL     1       6.196  14.801  18.222  0.00  0.00    +0.000 A 
ENDBRANCH   6  23
BRANCH   2  29
ATOM     29  S   UNL     1      -0.219  12.775  19.133  0.00  0.00    +0.000 S 
ATOM     30  H   UNL     1       0.725  12.526  18.211  0.00  0.00    +0.000 HD
ENDBRANCH   2  29
TORSDOF 7
ENDMDL
MODEL 7
REMARK VINA RESULT:      -6.2      6.000     10.171
REMARK  Name = 
REMARK  10 active torsions:
REMARK  status: ('A' for Active; 'I' for Inactive)
REMARK    1  A    between atoms: C_1  and  O_2
REMARK    2  A    between atoms: O_2  and  C_3
REMARK    3  A    between atoms: C_3  and  C_5
REMARK    4  A    between atoms: C_7  and  O_8
REMARK    5  A    between atoms: O_8  and  C_9
REMARK    6  A    between atoms: C_10  and  O_11
REMARK    7  A    between atoms: O_11  and  C_12
REMARK    8  A    between atoms: C_14  and  N_15
REMARK    9  A    between atoms: C_16  and  S_17
REMARK   10  A    between atoms: N_21  and  C_22
REMARK                            x       y       z     vdW  Elec       q    Type
REMARK                         _______ _______ _______ _____ _____    ______ ____
ROOT
ATOM      1  N   UNL     1       0.519  13.402  21.631  0.00  0.00    +0.000 NA
ATOM      2  C   UNL     1       0.865  13.219  20.385  0.00  0.00    +0.000 C 
ATOM      3  N   UNL     1       2.197  13.306  19.979  0.00  0.00    +0.000 N 
ATOM      4  C   UNL     1       2.647  13.495  18.588  0.00  0.00    +0.000 C 
ATOM      5  C   UNL     1       2.975  14.979  18.338  0.00  0.00    +0.000 C 
ATOM      6  N   UNL     1       4.005  15.441  19.283  0.00  0.00    +0.000 N 
ATOM      7  C   UNL     1       3.695  15.184  20.710  0.00  0.00    +0.000 C 
ATOM      8  C   UNL     1       3.248  13.716  20.940  0.00  0.00    +0.000 C 
ENDROOT
BRANCH   1  14
ATOM      9  C   UNL     1      -1.245  11.935  22.598  0.00  0.00    +0.000 A 
ATOM     10  C   UNL     1      -2.568  11.807  23.072  0.00  0.00    +0.000 A 
ATOM     11  C   UNL     1      -3.450  12.895  23.092  0.00  0.00    +0.000 A 
ATOM     12  C   UNL     1      -3.001  14.145  22.653  0.00  0.00    +0.000 A 
ATOM     13  C   UNL     1      -1.710  14.243  22.119  0.00  0.00    +0.000 A 
ATOM     14  C   UNL     1      -0.782  13.181  22.145  0.00  0.00    +0.000 A 
BRANCH   9  15
ATOM     15  C   UNL     1      -0.446  10.683  22.603  0.00  0.00    +0.000 C 
ATOM     16  O   UNL     1       0.058  10.223  23.617  0.00  0.00    +0.000 OA
BRANCH  15  18
ATOM     17  C   UNL     1      -0.138   8.680  21.441  0.00  0.00    +0.000 C 
ATOM     18  O   UNL     1      -0.475  10.066  21.394  0.00  0.00    +0.000 OA
ENDBRANCH  15  18
ENDBRANCH   9  15
BRANCH  11  19
ATOM     19  O   UNL     1      -4.693  12.595  23.586  0.00  0.00    +0.000 OA
ATOM     20  C   UNL     1      -4.776  12.319  24.983  0.00  0.00    +0.000 C 
ENDBRANCH  11  19
BRANCH  12  21
ATOM     21  O   UNL     1      -3.838  15.221  22.779  0.00  0.00    +0.000 OA
ATOM     22  C   UNL     1      -4.628  15.588  21.655  0.00  0.00    +0.000 C 
ENDBRANCH  12  21
ENDBRANCH   1  14
BRANCH   6  23
ATOM     23  C   UNL     1       5.294  15.742  18.876  0.00  0.00    +0.000 A 
ATOM     24  C   UNL     1       6.058  14.802  18.168  0.00  0.00    +0.000 A 
ATOM     25  C   UNL     1       7.384  15.056  17.794  0.00  0.00    +0.000 A 
ATOM     26  C   UNL     1       7.977  16.272  18.110  0.00  0.00    +0.000 A 
ATOM     27  C   UNL     1       7.243  17.228  18.801  0.00  0.00    +0.000 A 
ATOM     28  C   UNL     1       5.921  16.962  19.180  0.00  0.00    +0.000 A 
ENDBRANCH   6  23
BRANCH   2  29
ATOM     29  S   UNL     1      -0.296  12.756  19.130  0.00  0.00    +0.000 S 
ATOM     30  H   UNL     1      -1.291  13.507  19.630  0.00  0.00    +0.000 HD
ENDBRANCH   2  29
TORSDOF 7
ENDMDL
MODEL 8
REMARK VINA RESULT:      -6.1      2.576      4.488
REMARK  Name = 
REMARK  10 active torsions:
REMARK  status: ('A' for Active; 'I' for Inactive)
REMARK    1  A    between atoms: C_1  and  O_2
REMARK    2  A    between atoms: O_2  and  C_3
REMARK    3  A    between atoms: C_3  and  C_5
REMARK    4  A    between atoms: C_7  and  O_8
REMARK    5  A    between atoms: O_8  and  C_9
REMARK    6  A    between atoms: C_10  and  O_11
REMARK    7  A    between atoms: O_11  and  C_12
REMARK    8  A    between atoms: C_14  and  N_15
REMARK    9  A    between atoms: C_16  and  S_17
REMARK   10  A    between atoms: N_21  and  C_22
REMARK                            x       y       z     vdW  Elec       q    Type
REMARK                         _______ _______ _______ _____ _____    ______ ____
ROOT
ATOM      1  N   UNL     1       2.474   7.866  18.734  0.00  0.00    +0.000 NA
ATOM      2  C   UNL     1       1.694   8.492  19.574  0.00  0.00    +0.000 C 
ATOM      3  N   UNL     1       1.087   9.703  19.242  0.00  0.00    +0.000 N 
ATOM      4  C   UNL     1       0.519  10.660  20.209  0.00  0.00    +0.000 C 
ATOM      5  C   UNL     1       1.528  11.791  20.485  0.00  0.00    +0.000 C 
ATOM      6  N   UNL     1       1.886  12.474  19.231  0.00  0.00    +0.000 N 
ATOM      7  C   UNL     1       2.356  11.576  18.150  0.00  0.00    +0.000 C 
ATOM      8  C   UNL     1       1.400  10.370  17.955  0.00  0.00    +0.000 C 
ENDROOT
BRANCH   1  14
ATOM      9  C   UNL     1       4.108   6.051  18.248  0.00  0.00    +0.000 A 
ATOM     10  C   UNL     1       4.543   4.734  18.503  0.00  0.00    +0.000 A 
ATOM     11  C   UNL     1       3.888   3.908  19.426  0.00  0.00    +0.000 A 
ATOM     12  C   UNL     1       2.787   4.411  20.128  0.00  0.00    +0.000 A 
ATOM     13  C   UNL     1       2.322   5.693  19.814  0.00  0.00    +0.000 A 
ATOM     14  C   UNL     1       2.999   6.567  18.938  0.00  0.00    +0.000 A 
BRANCH   9  15
ATOM     15  C   UNL     1       4.881   6.786  17.215  0.00  0.00    +0.000 C 
ATOM     16  O   UNL     1       4.471   6.953  16.075  0.00  0.00    +0.000 OA
BRANCH  15  18
ATOM     17  C   UNL     1       7.217   6.814  17.221  0.00  0.00    +0.000 C 
ATOM     18  O   UNL     1       5.999   7.353  17.735  0.00  0.00    +0.000 OA
ENDBRANCH  15  18
ENDBRANCH   9  15
BRANCH  11  19
ATOM     19  O   UNL     1       4.445   2.663  19.552  0.00  0.00    +0.000 OA
ATOM     20  C   UNL     1       3.846   1.615  18.792  0.00  0.00    +0.000 C 
ENDBRANCH  11  19
BRANCH  12  21
ATOM     21  O   UNL     1       2.224   3.631  21.103  0.00  0.00    +0.000 OA
ATOM     22  C   UNL     1       0.999   2.973  20.806  0.00  0.00    +0.000 C 
ENDBRANCH  12  21
ENDBRANCH   1  14
BRANCH   6  23
ATOM     23  C   UNL     1       1.474  13.767  18.955  0.00  0.00    +0.000 A 
ATOM     24  C   UNL     1       2.411  14.773  18.676  0.00  0.00    +0.000 A 
ATOM     25  C   UNL     1       2.028  16.101  18.450  0.00  0.00    +0.000 A 
ATOM     26  C   UNL     1       0.685  16.455  18.485  0.00  0.00    +0.000 A 
ATOM     27  C   UNL     1      -0.269  15.479  18.746  0.00  0.00    +0.000 A 
ATOM     28  C   UNL     1       0.124  14.155  18.980  0.00  0.00    +0.000 A 
ENDBRANCH   6  23
BRANCH   2  29
ATOM     29  S   UNL     1       1.263   7.823  21.156  0.00  0.00    +0.000 S 
ATOM     30  H   UNL     1       2.479   7.298  21.379  0.00  0.00    +0.000 HD
ENDBRANCH   2  29
TORSDOF 7
ENDMDL
MODEL 9
REMARK VINA RESULT:      -6.0      4.450      9.371
REMARK  Name = 
REMARK  10 active torsions:
REMARK  status: ('A' for Active; 'I' for Inactive)
REMARK    1  A    between atoms: C_1  and  O_2
REMARK    2  A    between atoms: O_2  and  C_3
REMARK    3  A    between atoms: C_3  and  C_5
REMARK    4  A    between atoms: C_7  and  O_8
REMARK    5  A    between atoms: O_8  and  C_9
REMARK    6  A    between atoms: C_10  and  O_11
REMARK    7  A    between atoms: O_11  and  C_12
REMARK    8  A    between atoms: C_14  and  N_15
REMARK    9  A    between atoms: C_16  and  S_17
REMARK   10  A    between atoms: N_21  and  C_22
REMARK                            x       y       z     vdW  Elec       q    Type
REMARK                         _______ _______ _______ _____ _____    ______ ____
ROOT
ATOM      1  N   UNL     1      -0.616  10.751  19.170  0.00  0.00    +0.000 NA
ATOM      2  C   UNL     1       0.011  10.084  20.101  0.00  0.00    +0.000 C 
ATOM      3  N   UNL     1       1.293   9.576  19.896  0.00  0.00    +0.000 N 
ATOM      4  C   UNL     1       1.923   8.515  20.702  0.00  0.00    +0.000 C 
ATOM      5  C   UNL     1       1.791   7.159  19.983  0.00  0.00    +0.000 C 
ATOM      6  N   UNL     1       2.404   7.226  18.647  0.00  0.00    +0.000 N 
ATOM      7  C   UNL     1       1.919   8.342  17.800  0.00  0.00    +0.000 C 
ATOM      8  C   UNL     1       1.940   9.690  18.566  0.00  0.00    +0.000 C 
ENDROOT
BRANCH   1  14
ATOM      9  C   UNL     1      -2.965  11.263  18.517  0.00  0.00    +0.000 A 
ATOM     10  C   UNL     1      -4.142  11.999  18.767  0.00  0.00    +0.000 A 
ATOM     11  C   UNL     1      -4.230  12.908  19.830  0.00  0.00    +0.000 A 
ATOM     12  C   UNL     1      -3.130  13.074  20.677  0.00  0.00    +0.000 A 
ATOM     13  C   UNL     1      -1.944  12.393  20.376  0.00  0.00    +0.000 A 
ATOM     14  C   UNL     1      -1.848  11.426  19.354  0.00  0.00    +0.000 A 
BRANCH   9  15
ATOM     15  C   UNL     1      -3.013  10.371  17.332  0.00  0.00    +0.000 C 
ATOM     16  O   UNL     1      -3.431   9.223  17.384  0.00  0.00    +0.000 OA
BRANCH  15  18
ATOM     17  C   UNL     1      -3.125  10.390  14.998  0.00  0.00    +0.000 C 
ATOM     18  O   UNL     1      -2.679  11.030  16.194  0.00  0.00    +0.000 OA
ENDBRANCH  15  18
ENDBRANCH   9  15
BRANCH  11  19
ATOM     19  O   UNL     1      -5.446  13.532  19.928  0.00  0.00    +0.000 OA
ATOM     20  C   UNL     1      -6.319  13.411  18.806  0.00  0.00    +0.000 C 
ENDBRANCH  11  19
BRANCH  12  21
ATOM     21  O   UNL     1      -3.267  13.884  21.772  0.00  0.00    +0.000 OA
ATOM     22  C   UNL     1      -2.120  14.592  22.226  0.00  0.00    +0.000 C 
ENDBRANCH  12  21
ENDBRANCH   1  14
BRANCH   6  23
ATOM     23  C   UNL     1       3.577   6.557  18.342  0.00  0.00    +0.000 A 
ATOM     24  C   UNL     1       4.289   6.857  17.171  0.00  0.00    +0.000 A 
ATOM     25  C   UNL     1       5.447   6.158  16.807  0.00  0.00    +0.000 A 
ATOM     26  C   UNL     1       5.933   5.143  17.621  0.00  0.00    +0.000 A 
ATOM     27  C   UNL     1       5.258   4.830  18.795  0.00  0.00    +0.000 A 
ATOM     28  C   UNL     1       4.095   5.528  19.145  0.00  0.00    +0.000 A 
ENDBRANCH   6  23
BRANCH   2  29
ATOM     29  S   UNL     1      -0.662   9.847  21.722  0.00  0.00    +0.000 S 
ATOM     30  H   UNL     1      -1.229  11.063  21.776  0.00  0.00    +0.000 HD
ENDBRANCH   2  29
TORSDOF 7
ENDMDL
