MODEL 1
REMARK VINA RESULT:      -5.4      0.000      0.000
REMARK  Name = 
REMARK  4 active torsions:
REMARK  status: ('A' for Active; 'I' for Inactive)
REMARK    1  A    between atoms: C_2  and  C_3
REMARK    2  A    between atoms: C_4  and  N_5
REMARK    3  A    between atoms: C_12  and  C_13
REMARK    4  A    between atoms: C_15  and  C_16
REMARK                            x       y       z     vdW  Elec       q    Type
REMARK                         _______ _______ _______ _____ _____    ______ ____
ROOT
ATOM      1  C   UNL     1      -2.954  12.636  21.059  0.00  0.00    +0.000 C 
ATOM      2  C   UNL     1      -4.228  12.438  21.494  0.00  0.00    +0.000 C 
ATOM      3  N   UNL     1      -5.238  12.104  20.581  0.00  0.00    +0.000 N 
ATOM      4  C   UNL     1      -6.590  11.952  20.925  0.00  0.00    +0.000 C 
ATOM      5  O   UNL     1      -7.072  12.051  22.051  0.00  0.00    +0.000 OA
ATOM      6  C   UNL     1      -7.438  11.686  19.702  0.00  0.00    +0.000 C 
ATOM      7  S   UNL     1      -6.283  11.230  18.387  0.00  0.00    +0.000 S 
ATOM      8  C   UNL     1      -4.912  11.811  19.270  0.00  0.00    +0.000 C 
ATOM      9  C   UNL     1      -3.682  11.952  18.755  0.00  0.00    +0.000 C 
ATOM     10  C   UNL     1      -2.581  12.555  19.591  0.00  0.00    +0.000 C 
ENDROOT
BRANCH  10  11
ATOM     11  C   UNL     1      -1.201  11.959  19.317  0.00  0.00    +0.000 A 
ATOM     12  C   UNL     1      -1.030  10.572  19.518  0.00  0.00    +0.000 A 
ATOM     13  C   UNL     1       0.209   9.963  19.331  0.00  0.00    +0.000 A 
ATOM     14  C   UNL     1       1.305  10.726  18.941  0.00  0.00    +0.000 A 
ATOM     15  C   UNL     1       1.157  12.095  18.725  0.00  0.00    +0.000 A 
ATOM     16  C   UNL     1      -0.087  12.709  18.897  0.00  0.00    +0.000 A 
ATOM     17 CL   UNL     1      -0.186  14.405  18.584  0.00  0.00    +0.000 Cl
ENDBRANCH  10  11
BRANCH   2  18
ATOM     18  N   UNL     1      -4.553  12.601  22.829  0.00  0.00    +0.000 N 
ATOM     19  H   UNL     1      -4.582  13.556  23.180  0.00  0.00    +0.000 HD
ATOM     20  H   UNL     1      -4.035  11.970  23.450  0.00  0.00    +0.000 HD
ENDBRANCH   2  18
BRANCH   1  22
ATOM     21  N   UNL     1      -1.096  13.333  22.724  0.00  0.00    +0.000 NA
ATOM     22  C   UNL     1      -1.931  13.031  21.979  0.00  0.00    +0.000 C 
ENDBRANCH   1  22
BRANCH   9  23
ATOM     23  C   UNL     1      -3.362  11.477  17.348  0.00  0.00    +0.000 C 
ATOM     24  N   UNL     1      -3.097  11.082  16.180  0.00  0.00    +0.000 NA
ENDBRANCH   9  23
TORSDOF 4
ENDMDL
MODEL 2
REMARK VINA RESULT:      -5.2     10.212     12.312
REMARK  Name = 
REMARK  4 active torsions:
REMARK  status: ('A' for Active; 'I' for Inactive)
REMARK    1  A    between atoms: C_2  and  C_3
REMARK    2  A    between atoms: C_4  and  N_5
REMARK    3  A    between atoms: C_12  and  C_13
REMARK    4  A    between atoms: C_15  and  C_16
REMARK                            x       y       z     vdW  Elec       q    Type
REMARK                         _______ _______ _______ _____ _____    ______ ____
ROOT
ATOM      1  C   UNL     1       9.266  16.252  19.570  0.00  0.00    +0.000 C 
ATOM      2  C   UNL     1       8.135  16.963  19.827  0.00  0.00    +0.000 C 
ATOM      3  N   UNL     1       6.924  16.601  19.219  0.00  0.00    +0.000 N 
ATOM      4  C   UNL     1       5.726  17.317  19.367  0.00  0.00    +0.000 C 
ATOM      5  O   UNL     1       5.553  18.317  20.059  0.00  0.00    +0.000 OA
ATOM      6  C   UNL     1       4.629  16.725  18.511  0.00  0.00    +0.000 C 
ATOM      7  S   UNL     1       5.212  15.087  18.016  0.00  0.00    +0.000 S 
ATOM      8  C   UNL     1       6.841  15.427  18.495  0.00  0.00    +0.000 C 
ATOM      9  C   UNL     1       7.894  14.648  18.209  0.00  0.00    +0.000 C 
ATOM     10  C   UNL     1       9.284  15.088  18.597  0.00  0.00    +0.000 C 
ENDROOT
BRANCH  10  11
ATOM     11  C   UNL     1      10.207  13.938  18.997  0.00  0.00    +0.000 A 
ATOM     12  C   UNL     1       9.950  13.281  20.220  0.00  0.00    +0.000 A 
ATOM     13  C   UNL     1      10.772  12.252  20.674  0.00  0.00    +0.000 A 
ATOM     14  C   UNL     1      11.872  11.858  19.917  0.00  0.00    +0.000 A 
ATOM     15  C   UNL     1      12.137  12.484  18.700  0.00  0.00    +0.000 A 
ATOM     16  C   UNL     1      11.307  13.507  18.233  0.00  0.00    +0.000 A 
ATOM     17 CL   UNL     1      11.695  14.211  16.704  0.00  0.00    +0.000 Cl
ENDBRANCH  10  11
BRANCH   2  18
ATOM     18  N   UNL     1       8.169  18.071  20.655  0.00  0.00    +0.000 N 
ATOM     19  H   UNL     1       9.046  18.256  21.136  0.00  0.00    +0.000 HD
ATOM     20  H   UNL     1       7.358  18.131  21.280  0.00  0.00    +0.000 HD
ENDBRANCH   2  18
BRANCH   1  22
ATOM     21  N   UNL     1      11.527  16.956  20.618  0.00  0.00    +0.000 NA
ATOM     22  C   UNL     1      10.515  16.650  20.144  0.00  0.00    +0.000 C 
ENDBRANCH   1  22
BRANCH   9  23
ATOM     23  C   UNL     1       7.711  13.299  17.532  0.00  0.00    +0.000 C 
ATOM     24  N   UNL     1       7.560  12.181  16.970  0.00  0.00    +0.000 NA
ENDBRANCH   9  23
TORSDOF 4
ENDMDL
MODEL 3
REMARK VINA RESULT:      -5.2      4.632      6.171
REMARK  Name = 
REMARK  4 active torsions:
REMARK  status: ('A' for Active; 'I' for Inactive)
REMARK    1  A    between atoms: C_2  and  C_3
REMARK    2  A    between atoms: C_4  and  N_5
REMARK    3  A    between atoms: C_12  and  C_13
REMARK    4  A    between atoms: C_15  and  C_16
REMARK                            x       y       z     vdW  Elec       q    Type
REMARK                         _______ _______ _______ _____ _____    ______ ____
ROOT
ATOM      1  C   UNL     1      -6.828  12.847  20.071  0.00  0.00    +0.000 C 
ATOM      2  C   UNL     1      -6.953  13.253  18.778  0.00  0.00    +0.000 C 
ATOM      3  N   UNL     1      -6.817  14.609  18.451  0.00  0.00    +0.000 N 
ATOM      4  C   UNL     1      -7.001  15.129  17.160  0.00  0.00    +0.000 C 
ATOM      5  O   UNL     1      -7.264  14.488  16.146  0.00  0.00    +0.000 OA
ATOM      6  C   UNL     1      -6.877  16.636  17.156  0.00  0.00    +0.000 C 
ATOM      7  S   UNL     1      -6.101  17.074  18.730  0.00  0.00    +0.000 S 
ATOM      8  C   UNL     1      -6.391  15.509  19.410  0.00  0.00    +0.000 C 
ATOM      9  C   UNL     1      -6.218  15.199  20.702  0.00  0.00    +0.000 C 
ATOM     10  C   UNL     1      -6.590  13.826  21.204  0.00  0.00    +0.000 C 
ENDROOT
BRANCH  10  11
ATOM     11  C   UNL     1      -5.677  13.306  22.314  0.00  0.00    +0.000 A 
ATOM     12  C   UNL     1      -4.331  13.034  21.986  0.00  0.00    +0.000 A 
ATOM     13  C   UNL     1      -3.448  12.517  22.933  0.00  0.00    +0.000 A 
ATOM     14  C   UNL     1      -3.892  12.258  24.226  0.00  0.00    +0.000 A 
ATOM     15  C   UNL     1      -5.213  12.531  24.574  0.00  0.00    +0.000 A 
ATOM     16  C   UNL     1      -6.099  13.063  23.634  0.00  0.00    +0.000 A 
ATOM     17 CL   UNL     1      -7.712  13.394  24.158  0.00  0.00    +0.000 Cl
ENDBRANCH  10  11
BRANCH   2  18
ATOM     18  N   UNL     1      -7.253  12.345  17.778  0.00  0.00    +0.000 N 
ATOM     19  H   UNL     1      -8.112  11.809  17.888  0.00  0.00    +0.000 HD
ATOM     20  H   UNL     1      -6.456  11.757  17.515  0.00  0.00    +0.000 HD
ENDBRANCH   2  18
BRANCH   1  22
ATOM     21  N   UNL     1      -7.166  10.353  20.684  0.00  0.00    +0.000 NA
ATOM     22  C   UNL     1      -7.020  11.472  20.417  0.00  0.00    +0.000 C 
ENDBRANCH   1  22
BRANCH   9  23
ATOM     23  C   UNL     1      -5.611  16.199  21.674  0.00  0.00    +0.000 C 
ATOM     24  N   UNL     1      -5.108  17.027  22.479  0.00  0.00    +0.000 NA
ENDBRANCH   9  23
TORSDOF 4
ENDMDL
MODEL 4
REMARK VINA RESULT:      -5.2     12.293     13.696
REMARK  Name = 
REMARK  4 active torsions:
REMARK  status: ('A' for Active; 'I' for Inactive)
REMARK    1  A    between atoms: C_2  and  C_3
REMARK    2  A    between atoms: C_4  and  N_5
REMARK    3  A    between atoms: C_12  and  C_13
REMARK    4  A    between atoms: C_15  and  C_16
REMARK                            x       y       z     vdW  Elec       q    Type
REMARK                         _______ _______ _______ _____ _____    ______ ____
ROOT
ATOM      1  C   UNL     1      10.411  12.871  20.655  0.00  0.00    +0.000 C 
ATOM      2  C   UNL     1       9.606  12.235  21.549  0.00  0.00    +0.000 C 
ATOM      3  N   UNL     1       9.038  12.947  22.615  0.00  0.00    +0.000 N 
ATOM      4  C   UNL     1       8.257  12.361  23.624  0.00  0.00    +0.000 C 
ATOM      5  O   UNL     1       7.932  11.180  23.702  0.00  0.00    +0.000 OA
ATOM      6  C   UNL     1       7.876  13.378  24.676  0.00  0.00    +0.000 C 
ATOM      7  S   UNL     1       8.211  14.998  23.947  0.00  0.00    +0.000 S 
ATOM      8  C   UNL     1       9.157  14.323  22.665  0.00  0.00    +0.000 C 
ATOM      9  C   UNL     1       9.907  15.040  21.816  0.00  0.00    +0.000 C 
ATOM     10  C   UNL     1      10.765  14.339  20.793  0.00  0.00    +0.000 C 
ENDROOT
BRANCH  10  11
ATOM     11  C   UNL     1      10.886  15.092  19.468  0.00  0.00    +0.000 A 
ATOM     12  C   UNL     1      12.153  15.602  19.112  0.00  0.00    +0.000 A 
ATOM     13  C   UNL     1      12.333  16.336  17.942  0.00  0.00    +0.000 A 
ATOM     14  C   UNL     1      11.251  16.579  17.102  0.00  0.00    +0.000 A 
ATOM     15  C   UNL     1       9.993  16.073  17.427  0.00  0.00    +0.000 A 
ATOM     16  C   UNL     1       9.809  15.324  18.592  0.00  0.00    +0.000 A 
ATOM     17 CL   UNL     1       8.223  14.716  18.905  0.00  0.00    +0.000 Cl
ENDBRANCH  10  11
BRANCH   2  18
ATOM     18  N   UNL     1       9.368  10.875  21.443  0.00  0.00    +0.000 N 
ATOM     19  H   UNL     1       8.689  10.478  22.089  0.00  0.00    +0.000 HD
ATOM     20  H   UNL     1      10.227  10.319  21.386  0.00  0.00    +0.000 HD
ENDBRANCH   2  18
BRANCH   1  22
ATOM     21  N   UNL     1      11.552  11.558  18.736  0.00  0.00    +0.000 NA
ATOM     22  C   UNL     1      11.035  12.138  19.597  0.00  0.00    +0.000 C 
ENDBRANCH   1  22
BRANCH   9  23
ATOM     23  C   UNL     1       9.880  16.560  21.838  0.00  0.00    +0.000 C 
ATOM     24  N   UNL     1       9.858  17.820  21.857  0.00  0.00    +0.000 NA
ENDBRANCH   9  23
TORSDOF 4
ENDMDL
MODEL 5
REMARK VINA RESULT:      -5.1     10.062     12.424
REMARK  Name = 
REMARK  4 active torsions:
REMARK  status: ('A' for Active; 'I' for Inactive)
REMARK    1  A    between atoms: C_2  and  C_3
REMARK    2  A    between atoms: C_4  and  N_5
REMARK    3  A    between atoms: C_12  and  C_13
REMARK    4  A    between atoms: C_15  and  C_16
REMARK                            x       y       z     vdW  Elec       q    Type
REMARK                         _______ _______ _______ _____ _____    ______ ____
ROOT
ATOM      1  C   UNL     1       9.320  16.622  18.930  0.00  0.00    +0.000 C 
ATOM      2  C   UNL     1       8.215  17.272  19.386  0.00  0.00    +0.000 C 
ATOM      3  N   UNL     1       6.937  16.794  19.067  0.00  0.00    +0.000 N 
ATOM      4  C   UNL     1       5.743  17.437  19.431  0.00  0.00    +0.000 C 
ATOM      5  O   UNL     1       5.642  18.465  20.094  0.00  0.00    +0.000 OA
ATOM      6  C   UNL     1       4.541  16.722  18.856  0.00  0.00    +0.000 C 
ATOM      7  S   UNL     1       5.135  15.097  18.329  0.00  0.00    +0.000 S 
ATOM      8  C   UNL     1       6.796  15.573  18.434  0.00  0.00    +0.000 C 
ATOM      9  C   UNL     1       7.824  14.848  17.970  0.00  0.00    +0.000 C 
ATOM     10  C   UNL     1       9.225  15.403  18.033  0.00  0.00    +0.000 C 
ENDROOT
BRANCH  10  11
ATOM     11  C   UNL     1      10.298  14.343  18.284  0.00  0.00    +0.000 A 
ATOM     12  C   UNL     1      11.163  14.016  17.217  0.00  0.00    +0.000 A 
ATOM     13  C   UNL     1      12.138  13.030  17.355  0.00  0.00    +0.000 A 
ATOM     14  C   UNL     1      12.268  12.347  18.560  0.00  0.00    +0.000 A 
ATOM     15  C   UNL     1      11.434  12.663  19.631  0.00  0.00    +0.000 A 
ATOM     16  C   UNL     1      10.464  13.661  19.503  0.00  0.00    +0.000 A 
ATOM     17 CL   UNL     1       9.488  14.005  20.887  0.00  0.00    +0.000 Cl
ENDBRANCH  10  11
BRANCH   2  18
ATOM     18  N   UNL     1       8.334  18.430  20.134  0.00  0.00    +0.000 N 
ATOM     19  H   UNL     1       9.169  18.992  19.978  0.00  0.00    +0.000 HD
ATOM     20  H   UNL     1       8.137  18.289  21.130  0.00  0.00    +0.000 HD
ENDBRANCH   2  18
BRANCH   1  22
ATOM     21  N   UNL     1      11.684  17.562  19.416  0.00  0.00    +0.000 NA
ATOM     22  C   UNL     1      10.626  17.137  19.207  0.00  0.00    +0.000 C 
ENDBRANCH   1  22
BRANCH   9  23
ATOM     23  C   UNL     1       7.610  13.450  17.414  0.00  0.00    +0.000 C 
ATOM     24  N   UNL     1       7.432  12.290  16.952  0.00  0.00    +0.000 NA
ENDBRANCH   9  23
TORSDOF 4
ENDMDL
MODEL 6
REMARK VINA RESULT:      -5.1      1.940      3.794
REMARK  Name = 
REMARK  4 active torsions:
REMARK  status: ('A' for Active; 'I' for Inactive)
REMARK    1  A    between atoms: C_2  and  C_3
REMARK    2  A    between atoms: C_4  and  N_5
REMARK    3  A    between atoms: C_12  and  C_13
REMARK    4  A    between atoms: C_15  and  C_16
REMARK                            x       y       z     vdW  Elec       q    Type
REMARK                         _______ _______ _______ _____ _____    ______ ____
ROOT
ATOM      1  C   UNL     1      -2.969  11.876  18.801  0.00  0.00    +0.000 C 
ATOM      2  C   UNL     1      -4.248  12.226  19.107  0.00  0.00    +0.000 C 
ATOM      3  N   UNL     1      -4.584  12.586  20.419  0.00  0.00    +0.000 N 
ATOM      4  C   UNL     1      -5.887  12.891  20.842  0.00  0.00    +0.000 C 
ATOM      5  O   UNL     1      -6.894  12.923  20.139  0.00  0.00    +0.000 OA
ATOM      6  C   UNL     1      -5.932  13.145  22.332  0.00  0.00    +0.000 C 
ATOM      7  S   UNL     1      -4.215  13.389  22.846  0.00  0.00    +0.000 S 
ATOM      8  C   UNL     1      -3.589  12.748  21.365  0.00  0.00    +0.000 C 
ATOM      9  C   UNL     1      -2.299  12.452  21.152  0.00  0.00    +0.000 C 
ATOM     10  C   UNL     1      -1.878  11.811  19.853  0.00  0.00    +0.000 C 
ENDROOT
BRANCH  10  11
ATOM     11  C   UNL     1      -0.498  12.251  19.366  0.00  0.00    +0.000 A 
ATOM     12  C   UNL     1      -0.318  13.612  19.037  0.00  0.00    +0.000 A 
ATOM     13  C   UNL     1       0.899  14.082  18.545  0.00  0.00    +0.000 A 
ATOM     14  C   UNL     1       1.961  13.201  18.368  0.00  0.00    +0.000 A 
ATOM     15  C   UNL     1       1.810  11.855  18.699  0.00  0.00    +0.000 A 
ATOM     16  C   UNL     1       0.596  11.382  19.206  0.00  0.00    +0.000 A 
ATOM     17 CL   UNL     1       0.504   9.704  19.611  0.00  0.00    +0.000 Cl
ENDBRANCH  10  11
BRANCH   2  18
ATOM     18  N   UNL     1      -5.240  12.196  18.142  0.00  0.00    +0.000 N 
ATOM     19  H   UNL     1      -6.178  12.452  18.441  0.00  0.00    +0.000 HD
ATOM     20  H   UNL     1      -5.228  11.339  17.579  0.00  0.00    +0.000 HD
ENDBRANCH   2  18
BRANCH   1  22
ATOM     21  N   UNL     1      -2.378  11.110  16.399  0.00  0.00    +0.000 NA
ATOM     22  C   UNL     1      -2.633  11.456  17.475  0.00  0.00    +0.000 C 
ENDBRANCH   1  22
BRANCH   9  23
ATOM     23  C   UNL     1      -1.236  12.789  22.185  0.00  0.00    +0.000 C 
ATOM     24  N   UNL     1      -0.354  13.067  23.042  0.00  0.00    +0.000 NA
ENDBRANCH   9  23
TORSDOF 4
ENDMDL
MODEL 7
REMARK VINA RESULT:      -5.1      4.290      5.881
REMARK  Name = 
REMARK  4 active torsions:
REMARK  status: ('A' for Active; 'I' for Inactive)
REMARK    1  A    between atoms: C_2  and  C_3
REMARK    2  A    between atoms: C_4  and  N_5
REMARK    3  A    between atoms: C_12  and  C_13
REMARK    4  A    between atoms: C_15  and  C_16
REMARK                            x       y       z     vdW  Elec       q    Type
REMARK                         _______ _______ _______ _____ _____    ______ ____
ROOT
ATOM      1  C   UNL     1      -6.775  12.708  19.843  0.00  0.00    +0.000 C 
ATOM      2  C   UNL     1      -6.888  13.132  18.555  0.00  0.00    +0.000 C 
ATOM      3  N   UNL     1      -6.812  14.500  18.256  0.00  0.00    +0.000 N 
ATOM      4  C   UNL     1      -6.989  15.036  16.971  0.00  0.00    +0.000 C 
ATOM      5  O   UNL     1      -7.196  14.403  15.939  0.00  0.00    +0.000 OA
ATOM      6  C   UNL     1      -6.941  16.547  16.999  0.00  0.00    +0.000 C 
ATOM      7  S   UNL     1      -6.226  16.992  18.599  0.00  0.00    +0.000 S 
ATOM      8  C   UNL     1      -6.455  15.401  19.242  0.00  0.00    +0.000 C 
ATOM      9  C   UNL     1      -6.298  15.075  20.533  0.00  0.00    +0.000 C 
ATOM     10  C   UNL     1      -6.613  13.675  20.999  0.00  0.00    +0.000 C 
ENDROOT
BRANCH  10  11
ATOM     11  C   UNL     1      -5.703  13.179  22.122  0.00  0.00    +0.000 A 
ATOM     12  C   UNL     1      -6.278  12.976  23.396  0.00  0.00    +0.000 A 
ATOM     13  C   UNL     1      -5.504  12.566  24.480  0.00  0.00    +0.000 A 
ATOM     14  C   UNL     1      -4.139  12.352  24.316  0.00  0.00    +0.000 A 
ATOM     15  C   UNL     1      -3.553  12.532  23.064  0.00  0.00    +0.000 A 
ATOM     16  C   UNL     1      -4.327  12.930  21.970  0.00  0.00    +0.000 A 
ATOM     17 CL   UNL     1      -3.524  13.107  20.450  0.00  0.00    +0.000 Cl
ENDBRANCH  10  11
BRANCH   2  18
ATOM     18  N   UNL     1      -7.118  12.231  17.530  0.00  0.00    +0.000 N 
ATOM     19  H   UNL     1      -8.062  11.859  17.451  0.00  0.00    +0.000 HD
ATOM     20  H   UNL     1      -6.402  11.500  17.468  0.00  0.00    +0.000 HD
ENDBRANCH   2  18
BRANCH   1  22
ATOM     21  N   UNL     1      -6.997  10.190  20.406  0.00  0.00    +0.000 NA
ATOM     22  C   UNL     1      -6.906  11.318  20.158  0.00  0.00    +0.000 C 
ENDBRANCH   1  22
BRANCH   9  23
ATOM     23  C   UNL     1      -5.766  16.083  21.538  0.00  0.00    +0.000 C 
ATOM     24  N   UNL     1      -5.324  16.920  22.371  0.00  0.00    +0.000 NA
ENDBRANCH   9  23
TORSDOF 4
ENDMDL
MODEL 8
REMARK VINA RESULT:      -5.1      2.036      3.808
REMARK  Name = 
REMARK  4 active torsions:
REMARK  status: ('A' for Active; 'I' for Inactive)
REMARK    1  A    between atoms: C_2  and  C_3
REMARK    2  A    between atoms: C_4  and  N_5
REMARK    3  A    between atoms: C_12  and  C_13
REMARK    4  A    between atoms: C_15  and  C_16
REMARK                            x       y       z     vdW  Elec       q    Type
REMARK                         _______ _______ _______ _____ _____    ______ ____
ROOT
ATOM      1  C   UNL     1      -3.391  11.411  18.127  0.00  0.00    +0.000 C 
ATOM      2  C   UNL     1      -4.685  11.794  17.953  0.00  0.00    +0.000 C 
ATOM      3  N   UNL     1      -5.350  12.502  18.964  0.00  0.00    +0.000 N 
ATOM      4  C   UNL     1      -6.702  12.874  18.903  0.00  0.00    +0.000 C 
ATOM      5  O   UNL     1      -7.473  12.675  17.968  0.00  0.00    +0.000 OA
ATOM      6  C   UNL     1      -7.143  13.539  20.188  0.00  0.00    +0.000 C 
ATOM      7  S   UNL     1      -5.624  13.970  21.070  0.00  0.00    +0.000 S 
ATOM      8  C   UNL     1      -4.647  12.955  20.065  0.00  0.00    +0.000 C 
ATOM      9  C   UNL     1      -3.366  12.650  20.312  0.00  0.00    +0.000 C 
ATOM     10  C   UNL     1      -2.637  11.680  19.416  0.00  0.00    +0.000 C 
ENDROOT
BRANCH  10  11
ATOM     11  C   UNL     1      -1.155  12.005  19.230  0.00  0.00    +0.000 A 
ATOM     12  C   UNL     1      -0.822  13.215  18.583  0.00  0.00    +0.000 A 
ATOM     13  C   UNL     1       0.506  13.561  18.339  0.00  0.00    +0.000 A 
ATOM     14  C   UNL     1       1.529  12.704  18.732  0.00  0.00    +0.000 A 
ATOM     15  C   UNL     1       1.224  11.511  19.384  0.00  0.00    +0.000 A 
ATOM     16  C   UNL     1      -0.105  11.165  19.645  0.00  0.00    +0.000 A 
ATOM     17 CL   UNL     1      -0.392   9.679  20.478  0.00  0.00    +0.000 Cl
ENDBRANCH  10  11
BRANCH   2  18
ATOM     18  N   UNL     1      -5.372  11.461  16.799  0.00  0.00    +0.000 N 
ATOM     19  H   UNL     1      -4.810  11.258  15.975  0.00  0.00    +0.000 HD
ATOM     20  H   UNL     1      -6.150  12.096  16.596  0.00  0.00    +0.000 HD
ENDBRANCH   2  18
BRANCH   1  22
ATOM     21  N   UNL     1      -2.200  10.018  16.297  0.00  0.00    +0.000 NA
ATOM     22  C   UNL     1      -2.724  10.642  17.121  0.00  0.00    +0.000 C 
ENDBRANCH   1  22
BRANCH   9  23
ATOM     23  C   UNL     1      -2.613  13.297  21.463  0.00  0.00    +0.000 C 
ATOM     24  N   UNL     1      -1.990  13.834  22.418  0.00  0.00    +0.000 NA
ENDBRANCH   9  23
TORSDOF 4
ENDMDL
MODEL 9
REMARK VINA RESULT:      -5.0      0.968      1.026
REMARK  Name = 
REMARK  4 active torsions:
REMARK  status: ('A' for Active; 'I' for Inactive)
REMARK    1  A    between atoms: C_2  and  C_3
REMARK    2  A    between atoms: C_4  and  N_5
REMARK    3  A    between atoms: C_12  and  C_13
REMARK    4  A    between atoms: C_15  and  C_16
REMARK                            x       y       z     vdW  Elec       q    Type
REMARK                         _______ _______ _______ _____ _____    ______ ____
ROOT
ATOM      1  C   UNL     1      -2.580  12.914  21.825  0.00  0.00    +0.000 C 
ATOM      2  C   UNL     1      -3.791  12.863  22.446  0.00  0.00    +0.000 C 
ATOM      3  N   UNL     1      -4.956  12.651  21.696  0.00  0.00    +0.000 N 
ATOM      4  C   UNL     1      -6.251  12.656  22.238  0.00  0.00    +0.000 C 
ATOM      5  O   UNL     1      -6.547  12.807  23.421  0.00  0.00    +0.000 OA
ATOM      6  C   UNL     1      -7.295  12.493  21.156  0.00  0.00    +0.000 C 
ATOM      7  S   UNL     1      -6.407  11.910  19.693  0.00  0.00    +0.000 S 
ATOM      8  C   UNL     1      -4.863  12.326  20.356  0.00  0.00    +0.000 C 
ATOM      9  C   UNL     1      -3.715  12.325  19.664  0.00  0.00    +0.000 C 
ATOM     10  C   UNL     1      -2.441  12.794  20.320  0.00  0.00    +0.000 C 
ENDROOT
BRANCH  10  11
ATOM     11  C   UNL     1      -1.194  12.043  19.854  0.00  0.00    +0.000 A 
ATOM     12  C   UNL     1      -1.076  10.680  20.205  0.00  0.00    +0.000 A 
ATOM     13  C   UNL     1       0.051   9.939  19.854  0.00  0.00    +0.000 A 
ATOM     14  C   UNL     1       1.086  10.544  19.148  0.00  0.00    +0.000 A 
ATOM     15  C   UNL     1       0.985  11.885  18.780  0.00  0.00    +0.000 A 
ATOM     16  C   UNL     1      -0.149  12.629  19.116  0.00  0.00    +0.000 A 
ATOM     17 CL   UNL     1      -0.201  14.277  18.600  0.00  0.00    +0.000 Cl
ENDBRANCH  10  11
BRANCH   2  18
ATOM     18  N   UNL     1      -3.894  13.059  23.812  0.00  0.00    +0.000 N 
ATOM     19  H   UNL     1      -3.145  12.678  24.387  0.00  0.00    +0.000 HD
ATOM     20  H   UNL     1      -4.824  12.837  24.182  0.00  0.00    +0.000 HD
ENDBRANCH   2  18
BRANCH   1  22
ATOM     21  N   UNL     1      -0.428  13.414  23.176  0.00  0.00    +0.000 NA
ATOM     22  C   UNL     1      -1.394  13.184  22.579  0.00  0.00    +0.000 C 
ENDBRANCH   1  22
BRANCH   9  23
ATOM     23  C   UNL     1      -3.663  11.820  18.231  0.00  0.00    +0.000 C 
ATOM     24  N   UNL     1      -3.619  11.401  17.043  0.00  0.00    +0.000 NA
ENDBRANCH   9  23
TORSDOF 4
ENDMDL
