MODEL 1
REMARK VINA RESULT:      -6.5      0.000      0.000
REMARK  Name = 
REMARK  9 active torsions:
REMARK  status: ('A' for Active; 'I' for Inactive)
REMARK    1  A    between atoms: C_1  and  C_2
REMARK    2  A    between atoms: C_2  and  C_3
REMARK    3  A    between atoms: C_3  and  C_4
REMARK    4  A    between atoms: C_6  and  C_7
REMARK    5  A    between atoms: C_9  and  C_10
REMARK    6  A    between atoms: C_10  and  C_11
REMARK    7  A    between atoms: C_11  and  O_12
REMARK    8  A    between atoms: O_12  and  C_13
REMARK    9  A    between atoms: N_16  and  C_17
REMARK                            x       y       z     vdW  Elec       q    Type
REMARK                         _______ _______ _______ _____ _____    ______ ____
ROOT
ATOM      1  C   UNL     1       7.070   6.080  17.833  0.00  0.00    +0.000 A 
ATOM      2  C   UNL     1       5.874   5.640  18.444  0.00  0.00    +0.000 A 
ATOM      3  C   UNL     1       5.359   4.682  17.597  0.00  0.00    +0.000 A 
ATOM      4  N   UNL     1       6.249   4.590  16.559  0.00  0.00    +0.000 N 
ATOM      5  C   UNL     1       6.235   3.708  15.413  0.00  0.00    +0.000 C 
ATOM      6  N   UNL     1       7.307   5.417  16.695  0.00  0.00    +0.000 NA
ENDROOT
BRANCH   3   7
ATOM      7  C   UNL     1       4.171   3.907  17.735  0.00  0.00    +0.000 A 
ATOM      8  N   UNL     1       3.855   3.235  18.822  0.00  0.00    +0.000 NA
ATOM      9  C   UNL     1       2.629   2.716  18.514  0.00  0.00    +0.000 A 
ATOM     10  N   UNL     1       2.180   3.020  17.290  0.00  0.00    +0.000 NA
ATOM     11  O   UNL     1       3.215   3.796  16.759  0.00  0.00    +0.000 OA
BRANCH   9  12
ATOM     12  C   UNL     1       1.840   1.936  19.495  0.00  0.00    +0.000 C 
BRANCH  12  13
ATOM     13  C   UNL     1       1.384   2.813  20.657  0.00  0.00    +0.000 C 
BRANCH  13  14
ATOM     14  O   UNL     1       0.868   4.048  20.157  0.00  0.00    +0.000 OA
ATOM     15  C   UNL     1       1.502   5.158  20.783  0.00  0.00    +0.000 C 
ENDBRANCH  13  14
ENDBRANCH  12  13
ENDBRANCH   9  12
ENDBRANCH   3   7
BRANCH   1  16
ATOM     16  C   UNL     1       8.020   7.120  18.324  0.00  0.00    +0.000 C 
BRANCH  16  18
ATOM     17  C   UNL     1       8.615   9.571  18.343  0.00  0.00    +0.000 C 
ATOM     18  C   UNL     1       7.808   8.480  17.657  0.00  0.00    +0.000 C 
ENDBRANCH  16  18
ENDBRANCH   1  16
TORSDOF 6
ENDMDL
MODEL 2
REMARK VINA RESULT:      -6.5      3.102      6.904
REMARK  Name = 
REMARK  9 active torsions:
REMARK  status: ('A' for Active; 'I' for Inactive)
REMARK    1  A    between atoms: C_1  and  C_2
REMARK    2  A    between atoms: C_2  and  C_3
REMARK    3  A    between atoms: C_3  and  C_4
REMARK    4  A    between atoms: C_6  and  C_7
REMARK    5  A    between atoms: C_9  and  C_10
REMARK    6  A    between atoms: C_10  and  C_11
REMARK    7  A    between atoms: C_11  and  O_12
REMARK    8  A    between atoms: O_12  and  C_13
REMARK    9  A    between atoms: N_16  and  C_17
REMARK                            x       y       z     vdW  Elec       q    Type
REMARK                         _______ _______ _______ _____ _____    ______ ____
ROOT
ATOM      1  C   UNL     1       4.438   3.696  18.482  0.00  0.00    +0.000 A 
ATOM      2  C   UNL     1       4.578   3.709  17.076  0.00  0.00    +0.000 A 
ATOM      3  C   UNL     1       5.807   4.283  16.834  0.00  0.00    +0.000 A 
ATOM      4  N   UNL     1       6.331   4.568  18.068  0.00  0.00    +0.000 N 
ATOM      5  C   UNL     1       7.618   5.131  18.411  0.00  0.00    +0.000 C 
ATOM      6  N   UNL     1       5.522   4.198  19.083  0.00  0.00    +0.000 NA
ENDROOT
BRANCH   3   7
ATOM      7  C   UNL     1       6.451   4.530  15.587  0.00  0.00    +0.000 A 
ATOM      8  N   UNL     1       6.201   3.857  14.484  0.00  0.00    +0.000 NA
ATOM      9  C   UNL     1       6.992   4.479  13.560  0.00  0.00    +0.000 A 
ATOM     10  N   UNL     1       7.729   5.489  14.039  0.00  0.00    +0.000 NA
ATOM     11  O   UNL     1       7.388   5.513  15.395  0.00  0.00    +0.000 OA
BRANCH   9  12
ATOM     12  C   UNL     1       6.974   4.097  12.130  0.00  0.00    +0.000 C 
BRANCH  12  13
ATOM     13  C   UNL     1       6.145   2.836  11.908  0.00  0.00    +0.000 C 
BRANCH  13  14
ATOM     14  O   UNL     1       6.933   1.850  11.239  0.00  0.00    +0.000 OA
ATOM     15  C   UNL     1       6.206   0.637  11.075  0.00  0.00    +0.000 C 
ENDBRANCH  13  14
ENDBRANCH  12  13
ENDBRANCH   9  12
ENDBRANCH   3   7
BRANCH   1  16
ATOM     16  C   UNL     1       3.285   3.191  19.283  0.00  0.00    +0.000 C 
BRANCH  16  18
ATOM     17  C   UNL     1       0.885   2.506  18.915  0.00  0.00    +0.000 C 
ATOM     18  C   UNL     1       2.326   2.326  18.463  0.00  0.00    +0.000 C 
ENDBRANCH  16  18
ENDBRANCH   1  16
TORSDOF 6
ENDMDL
MODEL 3
REMARK VINA RESULT:      -6.5      2.073      3.877
REMARK  Name = 
REMARK  9 active torsions:
REMARK  status: ('A' for Active; 'I' for Inactive)
REMARK    1  A    between atoms: C_1  and  C_2
REMARK    2  A    between atoms: C_2  and  C_3
REMARK    3  A    between atoms: C_3  and  C_4
REMARK    4  A    between atoms: C_6  and  C_7
REMARK    5  A    between atoms: C_9  and  C_10
REMARK    6  A    between atoms: C_10  and  C_11
REMARK    7  A    between atoms: C_11  and  O_12
REMARK    8  A    between atoms: O_12  and  C_13
REMARK    9  A    between atoms: N_16  and  C_17
REMARK                            x       y       z     vdW  Elec       q    Type
REMARK                         _______ _______ _______ _____ _____    ______ ____
ROOT
ATOM      1  C   UNL     1       6.145   4.534  14.371  0.00  0.00    +0.000 A 
ATOM      2  C   UNL     1       5.751   3.559  15.315  0.00  0.00    +0.000 A 
ATOM      3  C   UNL     1       5.302   4.267  16.409  0.00  0.00    +0.000 A 
ATOM      4  N   UNL     1       5.436   5.589  16.074  0.00  0.00    +0.000 N 
ATOM      5  C   UNL     1       5.071   6.769  16.827  0.00  0.00    +0.000 C 
ATOM      6  N   UNL     1       5.927   5.772  14.830  0.00  0.00    +0.000 NA
ENDROOT
BRANCH   3   7
ATOM      7  C   UNL     1       4.780   3.777  17.642  0.00  0.00    +0.000 A 
ATOM      8  N   UNL     1       3.558   3.311  17.788  0.00  0.00    +0.000 NA
ATOM      9  C   UNL     1       3.539   2.909  19.094  0.00  0.00    +0.000 A 
ATOM     10  N   UNL     1       4.679   3.119  19.764  0.00  0.00    +0.000 NA
ATOM     11  O   UNL     1       5.502   3.718  18.805  0.00  0.00    +0.000 OA
BRANCH   9  12
ATOM     12  C   UNL     1       2.362   2.236  19.689  0.00  0.00    +0.000 C 
BRANCH  12  13
ATOM     13  C   UNL     1       1.775   3.060  20.831  0.00  0.00    +0.000 C 
BRANCH  13  14
ATOM     14  O   UNL     1       1.088   4.196  20.303  0.00  0.00    +0.000 OA
ATOM     15  C   UNL     1       1.702   5.408  20.727  0.00  0.00    +0.000 C 
ENDBRANCH  13  14
ENDBRANCH  12  13
ENDBRANCH   9  12
ENDBRANCH   3   7
BRANCH   1  16
ATOM     16  C   UNL     1       6.717   4.313  13.011  0.00  0.00    +0.000 C 
BRANCH  16  18
ATOM     17  C   UNL     1       4.684   3.446  11.795  0.00  0.00    +0.000 C 
ATOM     18  C   UNL     1       6.086   3.122  12.288  0.00  0.00    +0.000 C 
ENDBRANCH  16  18
ENDBRANCH   1  16
TORSDOF 6
ENDMDL
MODEL 4
REMARK VINA RESULT:      -6.5      1.902      3.995
REMARK  Name = 
REMARK  9 active torsions:
REMARK  status: ('A' for Active; 'I' for Inactive)
REMARK    1  A    between atoms: C_1  and  C_2
REMARK    2  A    between atoms: C_2  and  C_3
REMARK    3  A    between atoms: C_3  and  C_4
REMARK    4  A    between atoms: C_6  and  C_7
REMARK    5  A    between atoms: C_9  and  C_10
REMARK    6  A    between atoms: C_10  and  C_11
REMARK    7  A    between atoms: C_11  and  O_12
REMARK    8  A    between atoms: O_12  and  C_13
REMARK    9  A    between atoms: N_16  and  C_17
REMARK                            x       y       z     vdW  Elec       q    Type
REMARK                         _______ _______ _______ _____ _____    ______ ____
ROOT
ATOM      1  C   UNL     1       6.570   4.682  14.476  0.00  0.00    +0.000 A 
ATOM      2  C   UNL     1       5.681   4.044  15.370  0.00  0.00    +0.000 A 
ATOM      3  C   UNL     1       5.881   4.659  16.588  0.00  0.00    +0.000 A 
ATOM      4  N   UNL     1       6.842   5.611  16.368  0.00  0.00    +0.000 N 
ATOM      5  C   UNL     1       7.399   6.581  17.284  0.00  0.00    +0.000 C 
ATOM      6  N   UNL     1       7.258   5.655  15.085  0.00  0.00    +0.000 NA
ENDROOT
BRANCH   3   7
ATOM      7  C   UNL     1       5.236   4.410  17.834  0.00  0.00    +0.000 A 
ATOM      8  N   UNL     1       4.054   4.889  18.159  0.00  0.00    +0.000 NA
ATOM      9  C   UNL     1       3.830   4.342  19.390  0.00  0.00    +0.000 A 
ATOM     10  N   UNL     1       4.819   3.564  19.849  0.00  0.00    +0.000 NA
ATOM     11  O   UNL     1       5.768   3.624  18.824  0.00  0.00    +0.000 OA
BRANCH   9  12
ATOM     12  C   UNL     1       2.558   4.550  20.120  0.00  0.00    +0.000 C 
BRANCH  12  13
ATOM     13  C   UNL     1       2.390   3.522  21.235  0.00  0.00    +0.000 C 
BRANCH  13  14
ATOM     14  O   UNL     1       1.459   2.517  20.830  0.00  0.00    +0.000 OA
ATOM     15  C   UNL     1       0.766   2.907  19.649  0.00  0.00    +0.000 C 
ENDBRANCH  13  14
ENDBRANCH  12  13
ENDBRANCH   9  12
ENDBRANCH   3   7
BRANCH   1  16
ATOM     16  C   UNL     1       6.772   4.397  13.026  0.00  0.00    +0.000 C 
BRANCH  16  18
ATOM     17  C   UNL     1       4.776   3.451  11.806  0.00  0.00    +0.000 C 
ATOM     18  C   UNL     1       6.053   3.127  12.565  0.00  0.00    +0.000 C 
ENDBRANCH  16  18
ENDBRANCH   1  16
TORSDOF 6
ENDMDL
MODEL 5
REMARK VINA RESULT:      -6.4      2.023      4.073
REMARK  Name = 
REMARK  9 active torsions:
REMARK  status: ('A' for Active; 'I' for Inactive)
REMARK    1  A    between atoms: C_1  and  C_2
REMARK    2  A    between atoms: C_2  and  C_3
REMARK    3  A    between atoms: C_3  and  C_4
REMARK    4  A    between atoms: C_6  and  C_7
REMARK    5  A    between atoms: C_9  and  C_10
REMARK    6  A    between atoms: C_10  and  C_11
REMARK    7  A    between atoms: C_11  and  O_12
REMARK    8  A    between atoms: O_12  and  C_13
REMARK    9  A    between atoms: N_16  and  C_17
REMARK                            x       y       z     vdW  Elec       q    Type
REMARK                         _______ _______ _______ _____ _____    ______ ____
ROOT
ATOM      1  C   UNL     1       6.203   4.667  14.870  0.00  0.00    +0.000 A 
ATOM      2  C   UNL     1       4.979   4.576  15.569  0.00  0.00    +0.000 A 
ATOM      3  C   UNL     1       5.133   5.368  16.686  0.00  0.00    +0.000 A 
ATOM      4  N   UNL     1       6.398   5.888  16.599  0.00  0.00    +0.000 N 
ATOM      5  C   UNL     1       7.069   6.824  17.474  0.00  0.00    +0.000 C 
ATOM      6  N   UNL     1       7.057   5.490  15.490  0.00  0.00    +0.000 NA
ENDROOT
BRANCH   3   7
ATOM      7  C   UNL     1       4.200   5.641  17.728  0.00  0.00    +0.000 A 
ATOM      8  N   UNL     1       3.841   4.764  18.641  0.00  0.00    +0.000 NA
ATOM      9  C   UNL     1       3.000   5.484  19.443  0.00  0.00    +0.000 A 
ATOM     10  N   UNL     1       2.809   6.753  19.062  0.00  0.00    +0.000 NA
ATOM     11  O   UNL     1       3.591   6.856  17.907  0.00  0.00    +0.000 OA
BRANCH   9  12
ATOM     12  C   UNL     1       2.406   4.909  20.671  0.00  0.00    +0.000 C 
BRANCH  12  13
ATOM     13  C   UNL     1       1.099   4.184  20.362  0.00  0.00    +0.000 C 
BRANCH  13  14
ATOM     14  O   UNL     1       1.358   2.797  20.135  0.00  0.00    +0.000 OA
ATOM     15  C   UNL     1       0.872   2.388  18.860  0.00  0.00    +0.000 C 
ENDBRANCH  13  14
ENDBRANCH  12  13
ENDBRANCH   9  12
ENDBRANCH   3   7
BRANCH   1  16
ATOM     16  C   UNL     1       6.582   3.994  13.593  0.00  0.00    +0.000 C 
BRANCH  16  18
ATOM     17  C   UNL     1       5.661   2.557  11.736  0.00  0.00    +0.000 C 
ATOM     18  C   UNL     1       5.376   3.699  12.698  0.00  0.00    +0.000 C 
ENDBRANCH  16  18
ENDBRANCH   1  16
TORSDOF 6
ENDMDL
MODEL 6
REMARK VINA RESULT:      -6.3      3.006      6.654
REMARK  Name = 
REMARK  9 active torsions:
REMARK  status: ('A' for Active; 'I' for Inactive)
REMARK    1  A    between atoms: C_1  and  C_2
REMARK    2  A    between atoms: C_2  and  C_3
REMARK    3  A    between atoms: C_3  and  C_4
REMARK    4  A    between atoms: C_6  and  C_7
REMARK    5  A    between atoms: C_9  and  C_10
REMARK    6  A    between atoms: C_10  and  C_11
REMARK    7  A    between atoms: C_11  and  O_12
REMARK    8  A    between atoms: O_12  and  C_13
REMARK    9  A    between atoms: N_16  and  C_17
REMARK                            x       y       z     vdW  Elec       q    Type
REMARK                         _______ _______ _______ _____ _____    ______ ____
ROOT
ATOM      1  C   UNL     1       2.510   3.396  18.483  0.00  0.00    +0.000 A 
ATOM      2  C   UNL     1       3.540   2.954  17.622  0.00  0.00    +0.000 A 
ATOM      3  C   UNL     1       4.179   4.099  17.196  0.00  0.00    +0.000 A 
ATOM      4  N   UNL     1       3.528   5.136  17.810  0.00  0.00    +0.000 N 
ATOM      5  C   UNL     1       3.809   6.554  17.762  0.00  0.00    +0.000 C 
ATOM      6  N   UNL     1       2.524   4.727  18.614  0.00  0.00    +0.000 NA
ENDROOT
BRANCH   3   7
ATOM      7  C   UNL     1       5.296   4.229  16.321  0.00  0.00    +0.000 A 
ATOM      8  N   UNL     1       5.226   4.089  15.014  0.00  0.00    +0.000 NA
ATOM      9  C   UNL     1       6.503   4.362  14.609  0.00  0.00    +0.000 A 
ATOM     10  N   UNL     1       7.359   4.645  15.598  0.00  0.00    +0.000 NA
ATOM     11  O   UNL     1       6.563   4.537  16.743  0.00  0.00    +0.000 OA
BRANCH   9  12
ATOM     12  C   UNL     1       6.878   4.401  13.177  0.00  0.00    +0.000 C 
BRANCH  12  13
ATOM     13  C   UNL     1       6.146   3.321  12.387  0.00  0.00    +0.000 C 
BRANCH  13  14
ATOM     14  O   UNL     1       4.770   3.678  12.241  0.00  0.00    +0.000 OA
ATOM     15  C   UNL     1       4.196   3.048  11.100  0.00  0.00    +0.000 C 
ENDBRANCH  13  14
ENDBRANCH  12  13
ENDBRANCH   9  12
ENDBRANCH   3   7
BRANCH   1  16
ATOM     16  C   UNL     1       1.507   2.566  19.212  0.00  0.00    +0.000 C 
BRANCH  16  18
ATOM     17  C   UNL     1       1.628   2.669  21.730  0.00  0.00    +0.000 C 
ATOM     18  C   UNL     1       0.984   3.246  20.479  0.00  0.00    +0.000 C 
ENDBRANCH  16  18
ENDBRANCH   1  16
TORSDOF 6
ENDMDL
MODEL 7
REMARK VINA RESULT:      -6.3      2.887      6.485
REMARK  Name = 
REMARK  9 active torsions:
REMARK  status: ('A' for Active; 'I' for Inactive)
REMARK    1  A    between atoms: C_1  and  C_2
REMARK    2  A    between atoms: C_2  and  C_3
REMARK    3  A    between atoms: C_3  and  C_4
REMARK    4  A    between atoms: C_6  and  C_7
REMARK    5  A    between atoms: C_9  and  C_10
REMARK    6  A    between atoms: C_10  and  C_11
REMARK    7  A    between atoms: C_11  and  O_12
REMARK    8  A    between atoms: O_12  and  C_13
REMARK    9  A    between atoms: N_16  and  C_17
REMARK                            x       y       z     vdW  Elec       q    Type
REMARK                         _______ _______ _______ _____ _____    ______ ____
ROOT
ATOM      1  C   UNL     1       3.162   4.392  18.512  0.00  0.00    +0.000 A 
ATOM      2  C   UNL     1       3.554   4.312  17.156  0.00  0.00    +0.000 A 
ATOM      3  C   UNL     1       4.873   4.710  17.132  0.00  0.00    +0.000 A 
ATOM      4  N   UNL     1       5.200   4.989  18.432  0.00  0.00    +0.000 N 
ATOM      5  C   UNL     1       6.468   5.400  18.993  0.00  0.00    +0.000 C 
ATOM      6  N   UNL     1       4.178   4.781  19.290  0.00  0.00    +0.000 NA
ENDROOT
BRANCH   3   7
ATOM      7  C   UNL     1       5.760   4.806  16.020  0.00  0.00    +0.000 A 
ATOM      8  N   UNL     1       5.657   4.072  14.932  0.00  0.00    +0.000 NA
ATOM      9  C   UNL     1       6.662   4.554  14.142  0.00  0.00    +0.000 A 
ATOM     10  N   UNL     1       7.389   5.534  14.692  0.00  0.00    +0.000 NA
ATOM     11  O   UNL     1       6.805   5.691  15.952  0.00  0.00    +0.000 OA
BRANCH   9  12
ATOM     12  C   UNL     1       6.876   4.064  12.761  0.00  0.00    +0.000 C 
BRANCH  12  13
ATOM     13  C   UNL     1       5.753   3.124  12.331  0.00  0.00    +0.000 C 
BRANCH  13  14
ATOM     14  O   UNL     1       4.759   3.856  11.611  0.00  0.00    +0.000 OA
ATOM     15  C   UNL     1       3.781   2.982  11.057  0.00  0.00    +0.000 C 
ENDBRANCH  13  14
ENDBRANCH  12  13
ENDBRANCH   9  12
ENDBRANCH   3   7
BRANCH   1  16
ATOM     16  C   UNL     1       1.826   4.082  19.098  0.00  0.00    +0.000 C 
BRANCH  16  18
ATOM     17  C   UNL     1       1.503   2.981  21.345  0.00  0.00    +0.000 C 
ATOM     18  C   UNL     1       1.781   4.285  20.614  0.00  0.00    +0.000 C 
ENDBRANCH  16  18
ENDBRANCH   1  16
TORSDOF 6
ENDMDL
MODEL 8
REMARK VINA RESULT:      -6.2      3.493      6.320
REMARK  Name = 
REMARK  9 active torsions:
REMARK  status: ('A' for Active; 'I' for Inactive)
REMARK    1  A    between atoms: C_1  and  C_2
REMARK    2  A    between atoms: C_2  and  C_3
REMARK    3  A    between atoms: C_3  and  C_4
REMARK    4  A    between atoms: C_6  and  C_7
REMARK    5  A    between atoms: C_9  and  C_10
REMARK    6  A    between atoms: C_10  and  C_11
REMARK    7  A    between atoms: C_11  and  O_12
REMARK    8  A    between atoms: O_12  and  C_13
REMARK    9  A    between atoms: N_16  and  C_17
REMARK                            x       y       z     vdW  Elec       q    Type
REMARK                         _______ _______ _______ _____ _____    ______ ____
ROOT
ATOM      1  C   UNL     1       4.403   5.173  18.378  0.00  0.00    +0.000 A 
ATOM      2  C   UNL     1       4.486   5.147  16.968  0.00  0.00    +0.000 A 
ATOM      3  C   UNL     1       5.824   4.984  16.682  0.00  0.00    +0.000 A 
ATOM      4  N   UNL     1       6.456   4.911  17.895  0.00  0.00    +0.000 N 
ATOM      5  C   UNL     1       7.854   4.691  18.192  0.00  0.00    +0.000 C 
ATOM      6  N   UNL     1       5.605   5.003  18.940  0.00  0.00    +0.000 NA
ENDROOT
BRANCH   3   7
ATOM      7  C   UNL     1       6.464   4.883  15.412  0.00  0.00    +0.000 A 
ATOM      8  N   UNL     1       6.143   3.993  14.496  0.00  0.00    +0.000 NA
ATOM      9  C   UNL     1       6.964   4.319  13.453  0.00  0.00    +0.000 A 
ATOM     10  N   UNL     1       7.784   5.352  13.684  0.00  0.00    +0.000 NA
ATOM     11  O   UNL     1       7.469   5.717  14.997  0.00  0.00    +0.000 OA
BRANCH   9  12
ATOM     12  C   UNL     1       6.892   3.617  12.152  0.00  0.00    +0.000 C 
BRANCH  12  13
ATOM     13  C   UNL     1       5.482   3.099  11.883  0.00  0.00    +0.000 C 
BRANCH  13  14
ATOM     14  O   UNL     1       5.536   1.719  11.518  0.00  0.00    +0.000 OA
ATOM     15  C   UNL     1       6.781   1.399  10.906  0.00  0.00    +0.000 C 
ENDBRANCH  13  14
ENDBRANCH  12  13
ENDBRANCH   9  12
ENDBRANCH   3   7
BRANCH   1  16
ATOM     16  C   UNL     1       3.183   5.339  19.220  0.00  0.00    +0.000 C 
BRANCH  16  18
ATOM     17  C   UNL     1       2.410   7.636  18.518  0.00  0.00    +0.000 C 
ATOM     18  C   UNL     1       2.087   6.150  18.525  0.00  0.00    +0.000 C 
ENDBRANCH  16  18
ENDBRANCH   1  16
TORSDOF 6
ENDMDL
MODEL 9
REMARK VINA RESULT:      -6.2      2.956      6.543
REMARK  Name = 
REMARK  9 active torsions:
REMARK  status: ('A' for Active; 'I' for Inactive)
REMARK    1  A    between atoms: C_1  and  C_2
REMARK    2  A    between atoms: C_2  and  C_3
REMARK    3  A    between atoms: C_3  and  C_4
REMARK    4  A    between atoms: C_6  and  C_7
REMARK    5  A    between atoms: C_9  and  C_10
REMARK    6  A    between atoms: C_10  and  C_11
REMARK    7  A    between atoms: C_11  and  O_12
REMARK    8  A    between atoms: O_12  and  C_13
REMARK    9  A    between atoms: N_16  and  C_17
REMARK                            x       y       z     vdW  Elec       q    Type
REMARK                         _______ _______ _______ _____ _____    ______ ____
ROOT
ATOM      1  C   UNL     1       3.622   5.113  18.464  0.00  0.00    +0.000 A 
ATOM      2  C   UNL     1       3.894   4.840  17.104  0.00  0.00    +0.000 A 
ATOM      3  C   UNL     1       5.242   5.076  16.945  0.00  0.00    +0.000 A 
ATOM      4  N   UNL     1       5.700   5.457  18.179  0.00  0.00    +0.000 N 
ATOM      5  C   UNL     1       7.046   5.776  18.601  0.00  0.00    +0.000 C 
ATOM      6  N   UNL     1       4.734   5.464  19.121  0.00  0.00    +0.000 NA
ENDROOT
BRANCH   3   7
ATOM      7  C   UNL     1       6.043   4.946  15.772  0.00  0.00    +0.000 A 
ATOM      8  N   UNL     1       5.747   4.153  14.765  0.00  0.00    +0.000 NA
ATOM      9  C   UNL     1       6.746   4.410  13.869  0.00  0.00    +0.000 A 
ATOM     10  N   UNL     1       7.651   5.307  14.279  0.00  0.00    +0.000 NA
ATOM     11  O   UNL     1       7.198   5.651  15.556  0.00  0.00    +0.000 OA
BRANCH   9  12
ATOM     12  C   UNL     1       6.775   3.785  12.527  0.00  0.00    +0.000 C 
BRANCH  12  13
ATOM     13  C   UNL     1       5.395   3.268  12.131  0.00  0.00    +0.000 C 
BRANCH  13  14
ATOM     14  O   UNL     1       5.510   1.954  11.584  0.00  0.00    +0.000 OA
ATOM     15  C   UNL     1       6.838   1.700  11.137  0.00  0.00    +0.000 C 
ENDBRANCH  13  14
ENDBRANCH  12  13
ENDBRANCH   9  12
ENDBRANCH   3   7
BRANCH   1  16
ATOM     16  C   UNL     1       2.311   5.027  19.171  0.00  0.00    +0.000 C 
BRANCH  16  18
ATOM     17  C   UNL     1       1.971   2.910  20.500  0.00  0.00    +0.000 C 
ATOM     18  C   UNL     1       2.421   4.362  20.545  0.00  0.00    +0.000 C 
ENDBRANCH  16  18
ENDBRANCH   1  16
TORSDOF 6
ENDMDL
