MODEL 1
REMARK VINA RESULT:      -6.3      0.000      0.000
REMARK  Name = 
REMARK  2 active torsions:
REMARK  status: ('A' for Active; 'I' for Inactive)
REMARK    1  A    between atoms: C_2  and  C_3
REMARK    2  A    between atoms: C_6  and  C_7
REMARK                            x       y       z     vdW  Elec       q    Type
REMARK                         _______ _______ _______ _____ _____    ______ ____
ROOT
ATOM      1  C   UNL     1       1.729   3.546  19.152  0.00  0.00    +0.000 A 
ATOM      2  N   UNL     1       1.207   3.335  17.941  0.00  0.00    +0.000 NA
ATOM      3  O   UNL     1       2.291   3.519  17.089  0.00  0.00    +0.000 OA
ATOM      4  C   UNL     1       3.393   3.827  17.866  0.00  0.00    +0.000 A 
ATOM      5  N   UNL     1       3.065   3.841  19.147  0.00  0.00    +0.000 NA
ENDROOT
BRANCH   4   6
ATOM      6  C   UNL     1       4.686   4.074  17.294  0.00  0.00    +0.000 C 
ATOM      7  C   UNL     1       4.803   4.010  15.949  0.00  0.00    +0.000 C 
ATOM      8  C   UNL     1       6.100   4.285  15.244  0.00  0.00    +0.000 C 
ATOM      9  C   UNL     1       7.119   4.986  16.150  0.00  0.00    +0.000 C 
ATOM     10  N   UNL     1       7.196   4.330  17.456  0.00  0.00    +0.000 NA
ATOM     11  C   UNL     1       5.901   4.391  18.149  0.00  0.00    +0.000 C 
ATOM     12  H   UNL     1       7.901   4.790  18.030  0.00  0.00    +0.000 HD
ENDBRANCH   4   6
BRANCH   1  14
ATOM     13  C   UNL     1       1.381   2.790  21.469  0.00  0.00    +0.000 C 
ATOM     14  C   UNL     1       1.016   3.491  20.386  0.00  0.00    +0.000 C 
ENDBRANCH   1  14
TORSDOF 2
ENDMDL
MODEL 2
REMARK VINA RESULT:      -6.2      3.172      5.897
REMARK  Name = 
REMARK  2 active torsions:
REMARK  status: ('A' for Active; 'I' for Inactive)
REMARK    1  A    between atoms: C_2  and  C_3
REMARK    2  A    between atoms: C_6  and  C_7
REMARK                            x       y       z     vdW  Elec       q    Type
REMARK                         _______ _______ _______ _____ _____    ______ ____
ROOT
ATOM      1  C   UNL     1       6.787   4.326  13.472  0.00  0.00    +0.000 A 
ATOM      2  N   UNL     1       7.698   5.264  13.745  0.00  0.00    +0.000 NA
ATOM      3  O   UNL     1       7.452   5.570  15.080  0.00  0.00    +0.000 OA
ATOM      4  C   UNL     1       6.401   4.779  15.508  0.00  0.00    +0.000 A 
ATOM      5  N   UNL     1       5.981   3.997  14.528  0.00  0.00    +0.000 NA
ENDROOT
BRANCH   4   6
ATOM      6  C   UNL     1       5.896   4.842  16.850  0.00  0.00    +0.000 C 
ATOM      7  C   UNL     1       4.567   5.028  17.015  0.00  0.00    +0.000 C 
ATOM      8  C   UNL     1       3.927   5.074  18.372  0.00  0.00    +0.000 C 
ATOM      9  C   UNL     1       4.848   4.528  19.470  0.00  0.00    +0.000 C 
ATOM     10  N   UNL     1       6.195   5.087  19.349  0.00  0.00    +0.000 NA
ATOM     11  C   UNL     1       6.802   4.714  18.063  0.00  0.00    +0.000 C 
ATOM     12  H   UNL     1       6.781   4.738  20.106  0.00  0.00    +0.000 HD
ENDBRANCH   4   6
BRANCH   1  14
ATOM     13  C   UNL     1       5.566   2.911  11.869  0.00  0.00    +0.000 C 
ATOM     14  C   UNL     1       6.607   3.684  12.211  0.00  0.00    +0.000 C 
ENDBRANCH   1  14
TORSDOF 2
ENDMDL
MODEL 3
REMARK VINA RESULT:      -6.2      2.975      5.825
REMARK  Name = 
REMARK  2 active torsions:
REMARK  status: ('A' for Active; 'I' for Inactive)
REMARK    1  A    between atoms: C_2  and  C_3
REMARK    2  A    between atoms: C_6  and  C_7
REMARK                            x       y       z     vdW  Elec       q    Type
REMARK                         _______ _______ _______ _____ _____    ______ ____
ROOT
ATOM      1  C   UNL     1       6.608   4.502  13.960  0.00  0.00    +0.000 A 
ATOM      2  N   UNL     1       7.627   5.245  14.399  0.00  0.00    +0.000 NA
ATOM      3  O   UNL     1       7.163   5.739  15.614  0.00  0.00    +0.000 OA
ATOM      4  C   UNL     1       5.887   5.245  15.812  0.00  0.00    +0.000 A 
ATOM      5  N   UNL     1       5.530   4.470  14.801  0.00  0.00    +0.000 NA
ENDROOT
BRANCH   4   6
ATOM      6  C   UNL     1       5.119   5.560  16.983  0.00  0.00    +0.000 C 
ATOM      7  C   UNL     1       4.297   6.631  16.928  0.00  0.00    +0.000 C 
ATOM      8  C   UNL     1       3.423   7.030  18.081  0.00  0.00    +0.000 C 
ATOM      9  C   UNL     1       3.292   5.916  19.126  0.00  0.00    +0.000 C 
ATOM     10  N   UNL     1       4.600   5.343  19.448  0.00  0.00    +0.000 NA
ATOM     11  C   UNL     1       5.212   4.737  18.257  0.00  0.00    +0.000 C 
ATOM     12  H   UNL     1       4.494   4.629  20.167  0.00  0.00    +0.000 HD
ENDBRANCH   4   6
BRANCH   1  14
ATOM     13  C   UNL     1       5.478   3.260  12.160  0.00  0.00    +0.000 C 
ATOM     14  C   UNL     1       6.574   3.781  12.730  0.00  0.00    +0.000 C 
ENDBRANCH   1  14
TORSDOF 2
ENDMDL
MODEL 4
REMARK VINA RESULT:      -6.1      1.771      5.557
REMARK  Name = 
REMARK  2 active torsions:
REMARK  status: ('A' for Active; 'I' for Inactive)
REMARK    1  A    between atoms: C_2  and  C_3
REMARK    2  A    between atoms: C_6  and  C_7
REMARK                            x       y       z     vdW  Elec       q    Type
REMARK                         _______ _______ _______ _____ _____    ______ ____
ROOT
ATOM      1  C   UNL     1       6.289   4.624  17.267  0.00  0.00    +0.000 A 
ATOM      2  N   UNL     1       6.738   4.480  18.517  0.00  0.00    +0.000 NA
ATOM      3  O   UNL     1       5.633   3.980  19.199  0.00  0.00    +0.000 OA
ATOM      4  C   UNL     1       4.595   3.859  18.292  0.00  0.00    +0.000 A 
ATOM      5  N   UNL     1       4.986   4.247  17.088  0.00  0.00    +0.000 NA
ENDROOT
BRANCH   4   6
ATOM      6  C   UNL     1       3.303   3.363  18.671  0.00  0.00    +0.000 C 
ATOM      7  C   UNL     1       2.633   4.026  19.640  0.00  0.00    +0.000 C 
ATOM      8  C   UNL     1       1.261   3.615  20.089  0.00  0.00    +0.000 C 
ATOM      9  C   UNL     1       0.590   2.649  19.106  0.00  0.00    +0.000 C 
ATOM     10  N   UNL     1       1.510   1.581  18.711  0.00  0.00    +0.000 NA
ATOM     11  C   UNL     1       2.688   2.133  18.026  0.00  0.00    +0.000 C 
ATOM     12  H   UNL     1       1.035   0.933  18.085  0.00  0.00    +0.000 HD
ENDBRANCH   4   6
BRANCH   1  14
ATOM     13  C   UNL     1       6.914   4.736  14.889  0.00  0.00    +0.000 C 
ATOM     14  C   UNL     1       7.043   5.126  16.166  0.00  0.00    +0.000 C 
ENDBRANCH   1  14
TORSDOF 2
ENDMDL
MODEL 5
REMARK VINA RESULT:      -6.1      2.297      5.510
REMARK  Name = 
REMARK  2 active torsions:
REMARK  status: ('A' for Active; 'I' for Inactive)
REMARK    1  A    between atoms: C_2  and  C_3
REMARK    2  A    between atoms: C_6  and  C_7
REMARK                            x       y       z     vdW  Elec       q    Type
REMARK                         _______ _______ _______ _____ _____    ______ ____
ROOT
ATOM      1  C   UNL     1       6.557   5.722  18.291  0.00  0.00    +0.000 A 
ATOM      2  N   UNL     1       6.845   5.391  19.552  0.00  0.00    +0.000 NA
ATOM      3  O   UNL     1       5.771   4.589  19.925  0.00  0.00    +0.000 OA
ATOM      4  C   UNL     1       4.915   4.498  18.843  0.00  0.00    +0.000 A 
ATOM      5  N   UNL     1       5.390   5.188  17.819  0.00  0.00    +0.000 NA
ENDROOT
BRANCH   4   6
ATOM      6  C   UNL     1       3.701   3.733  18.891  0.00  0.00    +0.000 C 
ATOM      7  C   UNL     1       2.750   4.115  19.772  0.00  0.00    +0.000 C 
ATOM      8  C   UNL     1       1.430   3.409  19.881  0.00  0.00    +0.000 C 
ATOM      9  C   UNL     1       1.153   2.500  18.677  0.00  0.00    +0.000 C 
ATOM     10  N   UNL     1       2.323   1.681  18.359  0.00  0.00    +0.000 NA
ATOM     11  C   UNL     1       3.471   2.526  17.997  0.00  0.00    +0.000 C 
ATOM     12  H   UNL     1       2.108   1.063  17.579  0.00  0.00    +0.000 HD
ENDBRANCH   4   6
BRANCH   1  14
ATOM     13  C   UNL     1       7.726   7.815  17.731  0.00  0.00    +0.000 C 
ATOM     14  C   UNL     1       7.349   6.560  17.450  0.00  0.00    +0.000 C 
ENDBRANCH   1  14
TORSDOF 2
ENDMDL
MODEL 6
REMARK VINA RESULT:      -6.1      3.482      6.123
REMARK  Name = 
REMARK  2 active torsions:
REMARK  status: ('A' for Active; 'I' for Inactive)
REMARK    1  A    between atoms: C_2  and  C_3
REMARK    2  A    between atoms: C_6  and  C_7
REMARK                            x       y       z     vdW  Elec       q    Type
REMARK                         _______ _______ _______ _____ _____    ______ ____
ROOT
ATOM      1  C   UNL     1       6.661   4.140  13.260  0.00  0.00    +0.000 A 
ATOM      2  N   UNL     1       7.528   5.156  13.274  0.00  0.00    +0.000 NA
ATOM      3  O   UNL     1       7.596   5.500  14.621  0.00  0.00    +0.000 OA
ATOM      4  C   UNL     1       6.756   4.650  15.317  0.00  0.00    +0.000 A 
ATOM      5  N   UNL     1       6.174   3.796  14.491  0.00  0.00    +0.000 NA
ENDROOT
BRANCH   4   6
ATOM      6  C   UNL     1       6.596   4.732  16.742  0.00  0.00    +0.000 C 
ATOM      7  C   UNL     1       7.486   5.478  17.433  0.00  0.00    +0.000 C 
ATOM      8  C   UNL     1       7.392   5.661  18.920  0.00  0.00    +0.000 C 
ATOM      9  C   UNL     1       6.024   5.246  19.474  0.00  0.00    +0.000 C 
ATOM     10  N   UNL     1       5.613   3.950  18.935  0.00  0.00    +0.000 NA
ATOM     11  C   UNL     1       5.477   4.010  17.472  0.00  0.00    +0.000 C 
ATOM     12  H   UNL     1       4.718   3.678  19.340  0.00  0.00    +0.000 HD
ENDBRANCH   4   6
BRANCH   1  14
ATOM     13  C   UNL     1       6.839   2.366  11.563  0.00  0.00    +0.000 C 
ATOM     14  C   UNL     1       6.229   3.432  12.100  0.00  0.00    +0.000 C 
ENDBRANCH   1  14
TORSDOF 2
ENDMDL
MODEL 7
REMARK VINA RESULT:      -6.0      2.503      5.458
REMARK  Name = 
REMARK  2 active torsions:
REMARK  status: ('A' for Active; 'I' for Inactive)
REMARK    1  A    between atoms: C_2  and  C_3
REMARK    2  A    between atoms: C_6  and  C_7
REMARK                            x       y       z     vdW  Elec       q    Type
REMARK                         _______ _______ _______ _____ _____    ______ ____
ROOT
ATOM      1  C   UNL     1       6.953   6.165  18.126  0.00  0.00    +0.000 A 
ATOM      2  N   UNL     1       7.446   5.443  19.136  0.00  0.00    +0.000 NA
ATOM      3  O   UNL     1       6.408   4.568  19.440  0.00  0.00    +0.000 OA
ATOM      4  C   UNL     1       5.362   4.835  18.575  0.00  0.00    +0.000 A 
ATOM      5  N   UNL     1       5.685   5.816  17.749  0.00  0.00    +0.000 NA
ENDROOT
BRANCH   4   6
ATOM      6  C   UNL     1       4.130   4.100  18.616  0.00  0.00    +0.000 C 
ATOM      7  C   UNL     1       3.097   4.560  17.877  0.00  0.00    +0.000 C 
ATOM      8  C   UNL     1       1.775   3.851  17.819  0.00  0.00    +0.000 C 
ATOM      9  C   UNL     1       1.858   2.417  18.356  0.00  0.00    +0.000 C 
ATOM     10  N   UNL     1       2.581   2.376  19.628  0.00  0.00    +0.000 NA
ATOM     11  C   UNL     1       3.964   2.846  19.459  0.00  0.00    +0.000 C 
ATOM     12  H   UNL     1       2.597   1.422  19.984  0.00  0.00    +0.000 HD
ENDBRANCH   4   6
BRANCH   1  14
ATOM     13  C   UNL     1       8.117   8.332  18.035  0.00  0.00    +0.000 C 
ATOM     14  C   UNL     1       7.630   7.226  17.455  0.00  0.00    +0.000 C 
ENDBRANCH   1  14
TORSDOF 2
ENDMDL
MODEL 8
REMARK VINA RESULT:      -6.0      2.083      5.435
REMARK  Name = 
REMARK  2 active torsions:
REMARK  status: ('A' for Active; 'I' for Inactive)
REMARK    1  A    between atoms: C_2  and  C_3
REMARK    2  A    between atoms: C_6  and  C_7
REMARK                            x       y       z     vdW  Elec       q    Type
REMARK                         _______ _______ _______ _____ _____    ______ ____
ROOT
ATOM      1  C   UNL     1       5.640   4.940  15.412  0.00  0.00    +0.000 A 
ATOM      2  N   UNL     1       5.519   6.266  15.513  0.00  0.00    +0.000 NA
ATOM      3  O   UNL     1       4.655   6.427  16.592  0.00  0.00    +0.000 OA
ATOM      4  C   UNL     1       4.325   5.169  17.061  0.00  0.00    +0.000 A 
ATOM      5  N   UNL     1       4.932   4.235  16.347  0.00  0.00    +0.000 NA
ENDROOT
BRANCH   4   6
ATOM      6  C   UNL     1       3.449   4.977  18.182  0.00  0.00    +0.000 C 
ATOM      7  C   UNL     1       2.322   4.257  17.984  0.00  0.00    +0.000 C 
ATOM      8  C   UNL     1       1.354   3.965  19.094  0.00  0.00    +0.000 C 
ATOM      9  C   UNL     1       1.955   4.234  20.478  0.00  0.00    +0.000 C 
ATOM     10  N   UNL     1       2.635   5.529  20.511  0.00  0.00    +0.000 NA
ATOM     11  C   UNL     1       3.750   5.559  19.552  0.00  0.00    +0.000 C 
ATOM     12  H   UNL     1       2.998   5.703  21.447  0.00  0.00    +0.000 HD
ENDBRANCH   4   6
BRANCH   1  14
ATOM     13  C   UNL     1       5.959   3.760  13.275  0.00  0.00    +0.000 C 
ATOM     14  C   UNL     1       6.418   4.249  14.436  0.00  0.00    +0.000 C 
ENDBRANCH   1  14
TORSDOF 2
ENDMDL
MODEL 9
REMARK VINA RESULT:      -6.0      1.430      1.570
REMARK  Name = 
REMARK  2 active torsions:
REMARK  status: ('A' for Active; 'I' for Inactive)
REMARK    1  A    between atoms: C_2  and  C_3
REMARK    2  A    between atoms: C_6  and  C_7
REMARK                            x       y       z     vdW  Elec       q    Type
REMARK                         _______ _______ _______ _____ _____    ______ ____
ROOT
ATOM      1  C   UNL     1       2.857   3.600  19.706  0.00  0.00    +0.000 A 
ATOM      2  N   UNL     1       3.207   4.796  20.186  0.00  0.00    +0.000 NA
ATOM      3  O   UNL     1       4.221   5.203  19.325  0.00  0.00    +0.000 OA
ATOM      4  C   UNL     1       4.400   4.207  18.382  0.00  0.00    +0.000 A 
ATOM      5  N   UNL     1       3.558   3.210  18.598  0.00  0.00    +0.000 NA
ENDROOT
BRANCH   4   6
ATOM      6  C   UNL     1       5.374   4.315  17.333  0.00  0.00    +0.000 C 
ATOM      7  C   UNL     1       4.971   4.054  16.070  0.00  0.00    +0.000 C 
ATOM      8  C   UNL     1       5.898   4.170  14.894  0.00  0.00    +0.000 C 
ATOM      9  C   UNL     1       7.174   4.950  15.232  0.00  0.00    +0.000 C 
ATOM     10  N   UNL     1       7.753   4.486  16.493  0.00  0.00    +0.000 NA
ATOM     11  C   UNL     1       6.818   4.700  17.607  0.00  0.00    +0.000 C 
ATOM     12  H   UNL     1       8.616   4.993  16.682  0.00  0.00    +0.000 HD
ENDBRANCH   4   6
BRANCH   1  14
ATOM     13  C   UNL     1       1.412   2.770  21.518  0.00  0.00    +0.000 C 
ATOM     14  C   UNL     1       1.854   2.746  20.252  0.00  0.00    +0.000 C 
ENDBRANCH   1  14
TORSDOF 2
ENDMDL
