MODEL 1
REMARK VINA RESULT:      -7.3      0.000      0.000
REMARK  Name = 
REMARK  9 active torsions:
REMARK  status: ('A' for Active; 'I' for Inactive)
REMARK    1  A    between atoms: C_2  and  C_3
REMARK    2  A    between atoms: C_3  and  N_4
REMARK    3  A    between atoms: C_5  and  C_7
REMARK    4  A    between atoms: C_7  and  C_8
REMARK    5  A    between atoms: C_7  and  C_9
REMARK    6  A    between atoms: C_7  and  N_15
REMARK    7  A    between atoms: N_15  and  C_16
REMARK    8  A    between atoms: C_16  and  C_17
REMARK    9  A    between atoms: C_23  and  C_25
REMARK                            x       y       z     vdW  Elec       q    Type
REMARK                         _______ _______ _______ _____ _____    ______ ____
ROOT
ATOM      1  N   UNL     1       5.290   4.955  18.203  0.00  0.00    +0.000 N 
ATOM      2  C   UNL     1       4.358   4.011  17.685  0.00  0.00    +0.000 C 
ATOM      3  O   UNL     1       4.499   3.514  16.565  0.00  0.00    +0.000 OA
ENDROOT
BRANCH   2   4
ATOM      4  C   UNL     1       3.124   3.496  18.391  0.00  0.00    +0.000 A 
ATOM      5  C   UNL     1       1.794   3.557  17.990  0.00  0.00    +0.000 A 
ATOM      6  C   UNL     1       0.757   3.092  18.804  0.00  0.00    +0.000 A 
ATOM      7  C   UNL     1       1.070   2.550  20.031  0.00  0.00    +0.000 A 
ATOM      8  N   UNL     1       2.337   2.462  20.482  0.00  0.00    +0.000 NA
ATOM      9  C   UNL     1       3.318   2.941  19.663  0.00  0.00    +0.000 A 
ENDBRANCH   2   4
BRANCH   1  10
ATOM     10  C   UNL     1       6.543   5.365  17.355  0.00  0.00    +0.000 C 
ATOM     11  C   UNL     1       7.632   4.255  17.478  0.00  0.00    +0.000 C 
BRANCH  10  12
ATOM     12  C   UNL     1       7.139   6.752  17.763  0.00  0.00    +0.000 A 
ATOM     13  C   UNL     1       8.124   6.810  18.768  0.00  0.00    +0.000 A 
ATOM     14  C   UNL     1       8.778   8.008  19.059  0.00  0.00    +0.000 A 
ATOM     15  C   UNL     1       8.450   9.171  18.368  0.00  0.00    +0.000 A 
ATOM     16  C   UNL     1       7.444   9.147  17.411  0.00  0.00    +0.000 A 
ATOM     17  C   UNL     1       6.789   7.955  17.113  0.00  0.00    +0.000 A 
ENDBRANCH  10  12
BRANCH  10  19
ATOM     18  N   UNL     1       6.728   4.541  14.958  0.00  0.00    +0.000 N 
ATOM     19  C   UNL     1       6.186   5.498  15.800  0.00  0.00    +0.000 C 
ATOM     20  O   UNL     1       5.502   6.408  15.337  0.00  0.00    +0.000 OA
ATOM     21  H   UNL     1       7.242   3.757  15.338  0.00  0.00    +0.000 HD
BRANCH  18  22
ATOM     22  C   UNL     1       6.644   4.665  13.520  0.00  0.00    +0.000 C 
BRANCH  22  24
ATOM     23  C   UNL     1       5.341   3.190  11.887  0.00  0.00    +0.000 C 
ATOM     24  C   UNL     1       6.218   3.371  12.886  0.00  0.00    +0.000 C 
ENDBRANCH  22  24
ENDBRANCH  18  22
ENDBRANCH  10  19
ENDBRANCH   1  10
BRANCH   1  25
ATOM     25  C   UNL     1       4.836   5.943  19.195  0.00  0.00    +0.000 C 
BRANCH  25  26
ATOM     26  C   UNL     1       3.614   6.783  18.904  0.00  0.00    +0.000 A 
ATOM     27  C   UNL     1       2.658   6.915  19.920  0.00  0.00    +0.000 A 
ATOM     28  C   UNL     1       1.636   7.837  19.766  0.00  0.00    +0.000 A 
ATOM     29  N   UNL     1       1.512   8.641  18.692  0.00  0.00    +0.000 NA
ATOM     30  C   UNL     1       2.409   8.465  17.699  0.00  0.00    +0.000 A 
ATOM     31  C   UNL     1       3.442   7.541  17.742  0.00  0.00    +0.000 A 
ENDBRANCH  25  26
ENDBRANCH   1  25
TORSDOF 8
ENDMDL
MODEL 2
REMARK VINA RESULT:      -7.1      1.514      3.953
REMARK  Name = 
REMARK  9 active torsions:
REMARK  status: ('A' for Active; 'I' for Inactive)
REMARK    1  A    between atoms: C_2  and  C_3
REMARK    2  A    between atoms: C_3  and  N_4
REMARK    3  A    between atoms: C_5  and  C_7
REMARK    4  A    between atoms: C_7  and  C_8
REMARK    5  A    between atoms: C_7  and  C_9
REMARK    6  A    between atoms: C_7  and  N_15
REMARK    7  A    between atoms: N_15  and  C_16
REMARK    8  A    between atoms: C_16  and  C_17
REMARK    9  A    between atoms: C_23  and  C_25
REMARK                            x       y       z     vdW  Elec       q    Type
REMARK                         _______ _______ _______ _____ _____    ______ ____
ROOT
ATOM      1  N   UNL     1       3.285   5.957  17.436  0.00  0.00    +0.000 N 
ATOM      2  C   UNL     1       3.359   7.277  17.965  0.00  0.00    +0.000 C 
ATOM      3  O   UNL     1       4.441   7.832  18.167  0.00  0.00    +0.000 OA
ENDROOT
BRANCH   2   4
ATOM      4  C   UNL     1       2.185   8.156  18.334  0.00  0.00    +0.000 A 
ATOM      5  C   UNL     1       1.373   8.927  17.508  0.00  0.00    +0.000 A 
ATOM      6  C   UNL     1       0.365   9.748  18.024  0.00  0.00    +0.000 A 
ATOM      7  C   UNL     1       0.169   9.779  19.387  0.00  0.00    +0.000 A 
ATOM      8  N   UNL     1       0.921   9.060  20.244  0.00  0.00    +0.000 NA
ATOM      9  C   UNL     1       1.904   8.284  19.700  0.00  0.00    +0.000 A 
ENDBRANCH   2   4
BRANCH   1  10
ATOM     10  C   UNL     1       4.601   5.186  17.071  0.00  0.00    +0.000 C 
ATOM     11  C   UNL     1       4.354   3.653  17.212  0.00  0.00    +0.000 C 
BRANCH  10  12
ATOM     12  C   UNL     1       5.829   5.616  17.939  0.00  0.00    +0.000 A 
ATOM     13  C   UNL     1       6.029   5.014  19.197  0.00  0.00    +0.000 A 
ATOM     14  C   UNL     1       7.186   5.267  19.934  0.00  0.00    +0.000 A 
ATOM     15  C   UNL     1       8.154   6.138  19.441  0.00  0.00    +0.000 A 
ATOM     16  C   UNL     1       7.953   6.783  18.228  0.00  0.00    +0.000 A 
ATOM     17  C   UNL     1       6.802   6.533  17.485  0.00  0.00    +0.000 A 
ENDBRANCH  10  12
BRANCH  10  19
ATOM     18  N   UNL     1       5.489   4.352  14.841  0.00  0.00    +0.000 N 
ATOM     19  C   UNL     1       5.040   5.451  15.555  0.00  0.00    +0.000 C 
ATOM     20  O   UNL     1       5.028   6.562  15.029  0.00  0.00    +0.000 OA
ATOM     21  H   UNL     1       5.445   3.426  15.246  0.00  0.00    +0.000 HD
BRANCH  18  22
ATOM     22  C   UNL     1       6.095   4.494  13.536  0.00  0.00    +0.000 C 
BRANCH  22  24
ATOM     23  C   UNL     1       4.670   3.313  11.772  0.00  0.00    +0.000 C 
ATOM     24  C   UNL     1       5.703   3.365  12.626  0.00  0.00    +0.000 C 
ENDBRANCH  22  24
ENDBRANCH  18  22
ENDBRANCH  10  19
ENDBRANCH   1  10
BRANCH   1  25
ATOM     25  C   UNL     1       2.117   5.119  17.751  0.00  0.00    +0.000 C 
BRANCH  25  26
ATOM     26  C   UNL     1       1.963   4.552  19.144  0.00  0.00    +0.000 A 
ATOM     27  C   UNL     1       1.197   3.388  19.291  0.00  0.00    +0.000 A 
ATOM     28  C   UNL     1       1.204   2.727  20.508  0.00  0.00    +0.000 A 
ATOM     29  N   UNL     1       1.928   3.130  21.571  0.00  0.00    +0.000 NA
ATOM     30  C   UNL     1       2.619   4.282  21.430  0.00  0.00    +0.000 A 
ATOM     31  C   UNL     1       2.641   5.035  20.267  0.00  0.00    +0.000 A 
ENDBRANCH  25  26
ENDBRANCH   1  25
TORSDOF 8
ENDMDL
MODEL 3
REMARK VINA RESULT:      -7.1      1.707      6.193
REMARK  Name = 
REMARK  9 active torsions:
REMARK  status: ('A' for Active; 'I' for Inactive)
REMARK    1  A    between atoms: C_2  and  C_3
REMARK    2  A    between atoms: C_3  and  N_4
REMARK    3  A    between atoms: C_5  and  C_7
REMARK    4  A    between atoms: C_7  and  C_8
REMARK    5  A    between atoms: C_7  and  C_9
REMARK    6  A    between atoms: C_7  and  N_15
REMARK    7  A    between atoms: N_15  and  C_16
REMARK    8  A    between atoms: C_16  and  C_17
REMARK    9  A    between atoms: C_23  and  C_25
REMARK                            x       y       z     vdW  Elec       q    Type
REMARK                         _______ _______ _______ _____ _____    ______ ____
ROOT
ATOM      1  N   UNL     1       4.118   5.469  16.736  0.00  0.00    +0.000 N 
ATOM      2  C   UNL     1       4.692   4.322  16.117  0.00  0.00    +0.000 C 
ATOM      3  O   UNL     1       4.427   3.181  16.502  0.00  0.00    +0.000 OA
ENDROOT
BRANCH   2   4
ATOM      4  C   UNL     1       5.655   4.326  14.951  0.00  0.00    +0.000 A 
ATOM      5  C   UNL     1       6.921   4.896  14.862  0.00  0.00    +0.000 A 
ATOM      6  C   UNL     1       7.658   4.871  13.674  0.00  0.00    +0.000 A 
ATOM      7  C   UNL     1       7.114   4.253  12.570  0.00  0.00    +0.000 A 
ATOM      8  N   UNL     1       5.893   3.682  12.587  0.00  0.00    +0.000 NA
ATOM      9  C   UNL     1       5.201   3.742  13.762  0.00  0.00    +0.000 A 
ENDBRANCH   2   4
BRANCH   1  10
ATOM     10  C   UNL     1       3.105   5.296  17.920  0.00  0.00    +0.000 C 
ATOM     11  C   UNL     1       1.883   4.459  17.431  0.00  0.00    +0.000 C 
BRANCH  10  12
ATOM     12  C   UNL     1       2.621   6.655  18.523  0.00  0.00    +0.000 A 
ATOM     13  C   UNL     1       2.437   7.761  17.670  0.00  0.00    +0.000 A 
ATOM     14  C   UNL     1       1.873   8.945  18.147  0.00  0.00    +0.000 A 
ATOM     15  C   UNL     1       1.501   9.055  19.484  0.00  0.00    +0.000 A 
ATOM     16  C   UNL     1       1.723   7.996  20.354  0.00  0.00    +0.000 A 
ATOM     17  C   UNL     1       2.282   6.810  19.885  0.00  0.00    +0.000 A 
ENDBRANCH  10  12
BRANCH  10  19
ATOM     18  N   UNL     1       3.280   3.217  19.371  0.00  0.00    +0.000 N 
ATOM     19  C   UNL     1       3.758   4.497  19.144  0.00  0.00    +0.000 C 
ATOM     20  O   UNL     1       4.613   4.975  19.887  0.00  0.00    +0.000 OA
ATOM     21  H   UNL     1       2.621   2.796  18.730  0.00  0.00    +0.000 HD
BRANCH  18  22
ATOM     22  C   UNL     1       3.644   2.474  20.556  0.00  0.00    +0.000 C 
BRANCH  22  24
ATOM     23  C   UNL     1       1.329   2.679  21.624  0.00  0.00    +0.000 C 
ATOM     24  C   UNL     1       2.669   2.717  21.673  0.00  0.00    +0.000 C 
ENDBRANCH  22  24
ENDBRANCH  18  22
ENDBRANCH  10  19
ENDBRANCH   1  10
BRANCH   1  25
ATOM     25  C   UNL     1       4.847   6.747  16.699  0.00  0.00    +0.000 C 
BRANCH  25  26
ATOM     26  C   UNL     1       6.206   6.848  17.354  0.00  0.00    +0.000 A 
ATOM     27  C   UNL     1       6.891   8.066  17.247  0.00  0.00    +0.000 A 
ATOM     28  C   UNL     1       8.034   8.263  18.003  0.00  0.00    +0.000 A 
ATOM     29  N   UNL     1       8.526   7.351  18.864  0.00  0.00    +0.000 NA
ATOM     30  C   UNL     1       7.886   6.163  18.916  0.00  0.00    +0.000 A 
ATOM     31  C   UNL     1       6.759   5.856  18.169  0.00  0.00    +0.000 A 
ENDBRANCH  25  26
ENDBRANCH   1  25
TORSDOF 8
ENDMDL
MODEL 4
REMARK VINA RESULT:      -6.9      2.371      5.861
REMARK  Name = 
REMARK  9 active torsions:
REMARK  status: ('A' for Active; 'I' for Inactive)
REMARK    1  A    between atoms: C_2  and  C_3
REMARK    2  A    between atoms: C_3  and  N_4
REMARK    3  A    between atoms: C_5  and  C_7
REMARK    4  A    between atoms: C_7  and  C_8
REMARK    5  A    between atoms: C_7  and  C_9
REMARK    6  A    between atoms: C_7  and  N_15
REMARK    7  A    between atoms: N_15  and  C_16
REMARK    8  A    between atoms: C_16  and  C_17
REMARK    9  A    between atoms: C_23  and  C_25
REMARK                            x       y       z     vdW  Elec       q    Type
REMARK                         _______ _______ _______ _____ _____    ______ ____
ROOT
ATOM      1  N   UNL     1       3.067   6.574  18.715  0.00  0.00    +0.000 N 
ATOM      2  C   UNL     1       2.636   7.846  18.238  0.00  0.00    +0.000 C 
ATOM      3  O   UNL     1       3.129   8.359  17.232  0.00  0.00    +0.000 OA
ENDROOT
BRANCH   2   4
ATOM      4  C   UNL     1       1.560   8.711  18.856  0.00  0.00    +0.000 A 
ATOM      5  C   UNL     1       1.155   8.793  20.184  0.00  0.00    +0.000 A 
ATOM      6  C   UNL     1       0.084   9.599  20.580  0.00  0.00    +0.000 A 
ATOM      7  C   UNL     1      -0.576  10.340  19.624  0.00  0.00    +0.000 A 
ATOM      8  N   UNL     1      -0.237  10.306  18.320  0.00  0.00    +0.000 NA
ATOM      9  C   UNL     1       0.804   9.494  17.974  0.00  0.00    +0.000 A 
ENDBRANCH   2   4
BRANCH   1  10
ATOM     10  C   UNL     1       4.176   5.783  17.939  0.00  0.00    +0.000 C 
ATOM     11  C   UNL     1       4.169   6.222  16.442  0.00  0.00    +0.000 C 
BRANCH  10  12
ATOM     12  C   UNL     1       4.017   4.231  18.047  0.00  0.00    +0.000 A 
ATOM     13  C   UNL     1       4.767   3.527  19.008  0.00  0.00    +0.000 A 
ATOM     14  C   UNL     1       4.548   2.167  19.229  0.00  0.00    +0.000 A 
ATOM     15  C   UNL     1       3.592   1.481  18.485  0.00  0.00    +0.000 A 
ATOM     16  C   UNL     1       2.878   2.144  17.496  0.00  0.00    +0.000 A 
ATOM     17  C   UNL     1       3.089   3.502  17.271  0.00  0.00    +0.000 A 
ENDBRANCH  10  12
BRANCH  10  19
ATOM     18  N   UNL     1       6.429   6.944  17.750  0.00  0.00    +0.000 N 
ATOM     19  C   UNL     1       5.637   6.100  18.512  0.00  0.00    +0.000 C 
ATOM     20  O   UNL     1       6.080   5.610  19.548  0.00  0.00    +0.000 OA
ATOM     21  H   UNL     1       6.051   7.397  16.929  0.00  0.00    +0.000 HD
BRANCH  18  22
ATOM     22  C   UNL     1       7.827   7.148  18.056  0.00  0.00    +0.000 C 
BRANCH  22  24
ATOM     23  C   UNL     1       8.874   9.354  18.815  0.00  0.00    +0.000 C 
ATOM     24  C   UNL     1       8.207   8.597  17.932  0.00  0.00    +0.000 C 
ENDBRANCH  22  24
ENDBRANCH  18  22
ENDBRANCH  10  19
ENDBRANCH   1  10
BRANCH   1  25
ATOM     25  C   UNL     1       2.938   6.261  20.147  0.00  0.00    +0.000 C 
BRANCH  25  26
ATOM     26  C   UNL     1       2.186   5.021  20.572  0.00  0.00    +0.000 A 
ATOM     27  C   UNL     1       1.105   4.611  19.778  0.00  0.00    +0.000 A 
ATOM     28  C   UNL     1       0.527   3.376  20.015  0.00  0.00    +0.000 A 
ATOM     29  N   UNL     1       0.957   2.520  20.963  0.00  0.00    +0.000 NA
ATOM     30  C   UNL     1       1.964   2.951  21.754  0.00  0.00    +0.000 A 
ATOM     31  C   UNL     1       2.579   4.186  21.622  0.00  0.00    +0.000 A 
ENDBRANCH  25  26
ENDBRANCH   1  25
TORSDOF 8
ENDMDL
MODEL 5
REMARK VINA RESULT:      -6.9      0.971      1.490
REMARK  Name = 
REMARK  9 active torsions:
REMARK  status: ('A' for Active; 'I' for Inactive)
REMARK    1  A    between atoms: C_2  and  C_3
REMARK    2  A    between atoms: C_3  and  N_4
REMARK    3  A    between atoms: C_5  and  C_7
REMARK    4  A    between atoms: C_7  and  C_8
REMARK    5  A    between atoms: C_7  and  C_9
REMARK    6  A    between atoms: C_7  and  N_15
REMARK    7  A    between atoms: N_15  and  C_16
REMARK    8  A    between atoms: C_16  and  C_17
REMARK    9  A    between atoms: C_23  and  C_25
REMARK                            x       y       z     vdW  Elec       q    Type
REMARK                         _______ _______ _______ _____ _____    ______ ____
ROOT
ATOM      1  N   UNL     1       4.831   5.142  18.140  0.00  0.00    +0.000 N 
ATOM      2  C   UNL     1       4.637   3.996  18.964  0.00  0.00    +0.000 C 
ATOM      3  O   UNL     1       5.520   3.149  19.110  0.00  0.00    +0.000 OA
ENDROOT
BRANCH   2   4
ATOM      4  C   UNL     1       3.388   3.664  19.750  0.00  0.00    +0.000 A 
ATOM      5  C   UNL     1       3.097   3.922  21.086  0.00  0.00    +0.000 A 
ATOM      6  C   UNL     1       1.912   3.479  21.680  0.00  0.00    +0.000 A 
ATOM      7  C   UNL     1       1.007   2.778  20.914  0.00  0.00    +0.000 A 
ATOM      8  N   UNL     1       1.227   2.492  19.615  0.00  0.00    +0.000 NA
ATOM      9  C   UNL     1       2.403   2.930  19.077  0.00  0.00    +0.000 A 
ENDBRANCH   2   4
BRANCH   1  10
ATOM     10  C   UNL     1       6.203   5.360  17.415  0.00  0.00    +0.000 C 
ATOM     11  C   UNL     1       7.155   4.170  17.746  0.00  0.00    +0.000 C 
BRANCH  10  12
ATOM     12  C   UNL     1       6.887   6.717  17.784  0.00  0.00    +0.000 A 
ATOM     13  C   UNL     1       7.960   6.722  18.697  0.00  0.00    +0.000 A 
ATOM     14  C   UNL     1       8.684   7.889  18.942  0.00  0.00    +0.000 A 
ATOM     15  C   UNL     1       8.342   9.074  18.296  0.00  0.00    +0.000 A 
ATOM     16  C   UNL     1       7.256   9.104  17.432  0.00  0.00    +0.000 A 
ATOM     17  C   UNL     1       6.529   7.943  17.181  0.00  0.00    +0.000 A 
ENDBRANCH  10  12
BRANCH  10  19
ATOM     18  N   UNL     1       6.595   4.339  15.121  0.00  0.00    +0.000 N 
ATOM     19  C   UNL     1       6.031   5.391  15.823  0.00  0.00    +0.000 C 
ATOM     20  O   UNL     1       5.468   6.302  15.220  0.00  0.00    +0.000 OA
ATOM     21  H   UNL     1       7.007   3.558  15.613  0.00  0.00    +0.000 HD
BRANCH  18  22
ATOM     22  C   UNL     1       6.680   4.353  13.678  0.00  0.00    +0.000 C 
BRANCH  22  24
ATOM     23  C   UNL     1       5.480   3.105  11.796  0.00  0.00    +0.000 C 
ATOM     24  C   UNL     1       5.573   3.547  13.059  0.00  0.00    +0.000 C 
ENDBRANCH  22  24
ENDBRANCH  18  22
ENDBRANCH  10  19
ENDBRANCH   1  10
BRANCH   1  25
ATOM     25  C   UNL     1       3.664   5.782  17.512  0.00  0.00    +0.000 C 
BRANCH  25  26
ATOM     26  C   UNL     1       3.020   6.975  18.182  0.00  0.00    +0.000 A 
ATOM     27  C   UNL     1       2.791   8.115  17.399  0.00  0.00    +0.000 A 
ATOM     28  C   UNL     1       2.021   9.142  17.917  0.00  0.00    +0.000 A 
ATOM     29  N   UNL     1       1.453   9.107  19.138  0.00  0.00    +0.000 NA
ATOM     30  C   UNL     1       1.727   8.026  19.900  0.00  0.00    +0.000 A 
ATOM     31  C   UNL     1       2.519   6.966  19.487  0.00  0.00    +0.000 A 
ENDBRANCH  25  26
ENDBRANCH   1  25
TORSDOF 8
ENDMDL
MODEL 6
REMARK VINA RESULT:      -6.8      0.588      1.255
REMARK  Name = 
REMARK  9 active torsions:
REMARK  status: ('A' for Active; 'I' for Inactive)
REMARK    1  A    between atoms: C_2  and  C_3
REMARK    2  A    between atoms: C_3  and  N_4
REMARK    3  A    between atoms: C_5  and  C_7
REMARK    4  A    between atoms: C_7  and  C_8
REMARK    5  A    between atoms: C_7  and  C_9
REMARK    6  A    between atoms: C_7  and  N_15
REMARK    7  A    between atoms: N_15  and  C_16
REMARK    8  A    between atoms: C_16  and  C_17
REMARK    9  A    between atoms: C_23  and  C_25
REMARK                            x       y       z     vdW  Elec       q    Type
REMARK                         _______ _______ _______ _____ _____    ______ ____
ROOT
ATOM      1  N   UNL     1       5.436   4.932  18.203  0.00  0.00    +0.000 N 
ATOM      2  C   UNL     1       4.487   3.972  17.749  0.00  0.00    +0.000 C 
ATOM      3  O   UNL     1       4.612   3.403  16.663  0.00  0.00    +0.000 OA
ENDROOT
BRANCH   2   4
ATOM      4  C   UNL     1       3.250   3.522  18.494  0.00  0.00    +0.000 A 
ATOM      5  C   UNL     1       3.136   3.032  19.791  0.00  0.00    +0.000 A 
ATOM      6  C   UNL     1       1.915   2.588  20.307  0.00  0.00    +0.000 A 
ATOM      7  C   UNL     1       0.796   2.650  19.506  0.00  0.00    +0.000 A 
ATOM      8  N   UNL     1       0.835   3.111  18.241  0.00  0.00    +0.000 NA
ATOM      9  C   UNL     1       2.050   3.521  17.771  0.00  0.00    +0.000 A 
ENDBRANCH   2   4
BRANCH   1  10
ATOM     10  C   UNL     1       6.690   5.267  17.323  0.00  0.00    +0.000 C 
ATOM     11  C   UNL     1       7.731   4.113  17.451  0.00  0.00    +0.000 C 
BRANCH  10  12
ATOM     12  C   UNL     1       7.354   6.635  17.690  0.00  0.00    +0.000 A 
ATOM     13  C   UNL     1       6.998   7.790  16.965  0.00  0.00    +0.000 A 
ATOM     14  C   UNL     1       7.460   9.047  17.354  0.00  0.00    +0.000 A 
ATOM     15  C   UNL     1       8.297   9.176  18.459  0.00  0.00    +0.000 A 
ATOM     16  C   UNL     1       8.702   8.045  19.156  0.00  0.00    +0.000 A 
ATOM     17  C   UNL     1       8.244   6.786  18.776  0.00  0.00    +0.000 A 
ENDBRANCH  10  12
BRANCH  10  19
ATOM     18  N   UNL     1       6.885   4.450  14.924  0.00  0.00    +0.000 N 
ATOM     19  C   UNL     1       6.310   5.383  15.772  0.00  0.00    +0.000 C 
ATOM     20  O   UNL     1       5.581   6.261  15.316  0.00  0.00    +0.000 OA
ATOM     21  H   UNL     1       7.437   3.691  15.299  0.00  0.00    +0.000 HD
BRANCH  18  22
ATOM     22  C   UNL     1       6.779   4.569  13.488  0.00  0.00    +0.000 C 
BRANCH  22  24
ATOM     23  C   UNL     1       5.839   2.840  11.855  0.00  0.00    +0.000 C 
ATOM     24  C   UNL     1       5.746   3.626  12.938  0.00  0.00    +0.000 C 
ENDBRANCH  22  24
ENDBRANCH  18  22
ENDBRANCH  10  19
ENDBRANCH   1  10
BRANCH   1  25
ATOM     25  C   UNL     1       5.005   5.987  19.133  0.00  0.00    +0.000 C 
BRANCH  25  26
ATOM     26  C   UNL     1       3.754   6.780  18.830  0.00  0.00    +0.000 A 
ATOM     27  C   UNL     1       2.781   6.870  19.836  0.00  0.00    +0.000 A 
ATOM     28  C   UNL     1       1.726   7.751  19.674  0.00  0.00    +0.000 A 
ATOM     29  N   UNL     1       1.583   8.555  18.603  0.00  0.00    +0.000 NA
ATOM     30  C   UNL     1       2.498   8.419  17.619  0.00  0.00    +0.000 A 
ATOM     31  C   UNL     1       3.566   7.537  17.670  0.00  0.00    +0.000 A 
ENDBRANCH  25  26
ENDBRANCH   1  25
TORSDOF 8
ENDMDL
MODEL 7
REMARK VINA RESULT:      -6.7      1.671      4.323
REMARK  Name = 
REMARK  9 active torsions:
REMARK  status: ('A' for Active; 'I' for Inactive)
REMARK    1  A    between atoms: C_2  and  C_3
REMARK    2  A    between atoms: C_3  and  N_4
REMARK    3  A    between atoms: C_5  and  C_7
REMARK    4  A    between atoms: C_7  and  C_8
REMARK    5  A    between atoms: C_7  and  C_9
REMARK    6  A    between atoms: C_7  and  N_15
REMARK    7  A    between atoms: N_15  and  C_16
REMARK    8  A    between atoms: C_16  and  C_17
REMARK    9  A    between atoms: C_23  and  C_25
REMARK                            x       y       z     vdW  Elec       q    Type
REMARK                         _______ _______ _______ _____ _____    ______ ____
ROOT
ATOM      1  N   UNL     1       4.073   5.903  17.978  0.00  0.00    +0.000 N 
ATOM      2  C   UNL     1       4.219   4.609  18.557  0.00  0.00    +0.000 C 
ATOM      3  O   UNL     1       5.197   3.899  18.313  0.00  0.00    +0.000 OA
ENDROOT
BRANCH   2   4
ATOM      4  C   UNL     1       3.251   3.946  19.512  0.00  0.00    +0.000 A 
ATOM      5  C   UNL     1       3.049   4.191  20.866  0.00  0.00    +0.000 A 
ATOM      6  C   UNL     1       2.157   3.430  21.627  0.00  0.00    +0.000 A 
ATOM      7  C   UNL     1       1.454   2.419  21.010  0.00  0.00    +0.000 A 
ATOM      8  N   UNL     1       1.603   2.127  19.702  0.00  0.00    +0.000 NA
ATOM      9  C   UNL     1       2.495   2.884  18.999  0.00  0.00    +0.000 A 
ENDBRANCH   2   4
BRANCH   1  10
ATOM     10  C   UNL     1       5.186   6.464  17.028  0.00  0.00    +0.000 C 
ATOM     11  C   UNL     1       4.672   7.771  16.350  0.00  0.00    +0.000 C 
BRANCH  10  12
ATOM     12  C   UNL     1       5.646   5.437  15.941  0.00  0.00    +0.000 A 
ATOM     13  C   UNL     1       4.673   4.747  15.191  0.00  0.00    +0.000 A 
ATOM     14  C   UNL     1       5.043   3.933  14.120  0.00  0.00    +0.000 A 
ATOM     15  C   UNL     1       6.387   3.777  13.790  0.00  0.00    +0.000 A 
ATOM     16  C   UNL     1       7.364   4.406  14.549  0.00  0.00    +0.000 A 
ATOM     17  C   UNL     1       7.003   5.223  15.617  0.00  0.00    +0.000 A 
ENDBRANCH  10  12
BRANCH  10  19
ATOM     18  N   UNL     1       7.109   8.055  17.507  0.00  0.00    +0.000 N 
ATOM     19  C   UNL     1       6.514   6.849  17.836  0.00  0.00    +0.000 C 
ATOM     20  O   UNL     1       7.027   6.120  18.682  0.00  0.00    +0.000 OA
ATOM     21  H   UNL     1       6.661   8.685  16.856  0.00  0.00    +0.000 HD
BRANCH  18  22
ATOM     22  C   UNL     1       8.410   8.420  18.020  0.00  0.00    +0.000 C 
BRANCH  22  24
ATOM     23  C   UNL     1       9.483  10.564  18.911  0.00  0.00    +0.000 C 
ATOM     24  C   UNL     1       8.489   9.892  18.311  0.00  0.00    +0.000 C 
ENDBRANCH  22  24
ENDBRANCH  18  22
ENDBRANCH  10  19
ENDBRANCH   1  10
BRANCH   1  25
ATOM     25  C   UNL     1       2.724   6.456  17.783  0.00  0.00    +0.000 C 
BRANCH  25  26
ATOM     26  C   UNL     1       2.232   7.557  18.694  0.00  0.00    +0.000 A 
ATOM     27  C   UNL     1       1.821   8.758  18.100  0.00  0.00    +0.000 A 
ATOM     28  C   UNL     1       1.174   9.705  18.876  0.00  0.00    +0.000 A 
ATOM     29  N   UNL     1       0.894   9.534  20.183  0.00  0.00    +0.000 NA
ATOM     30  C   UNL     1       1.343   8.395  20.753  0.00  0.00    +0.000 A 
ATOM     31  C   UNL     1       2.035   7.407  20.070  0.00  0.00    +0.000 A 
ENDBRANCH  25  26
ENDBRANCH   1  25
TORSDOF 8
ENDMDL
MODEL 8
REMARK VINA RESULT:      -6.6      1.722      5.844
REMARK  Name = 
REMARK  9 active torsions:
REMARK  status: ('A' for Active; 'I' for Inactive)
REMARK    1  A    between atoms: C_2  and  C_3
REMARK    2  A    between atoms: C_3  and  N_4
REMARK    3  A    between atoms: C_5  and  C_7
REMARK    4  A    between atoms: C_7  and  C_8
REMARK    5  A    between atoms: C_7  and  C_9
REMARK    6  A    between atoms: C_7  and  N_15
REMARK    7  A    between atoms: N_15  and  C_16
REMARK    8  A    between atoms: C_16  and  C_17
REMARK    9  A    between atoms: C_23  and  C_25
REMARK                            x       y       z     vdW  Elec       q    Type
REMARK                         _______ _______ _______ _____ _____    ______ ____
ROOT
ATOM      1  N   UNL     1       5.314   4.512  16.689  0.00  0.00    +0.000 N 
ATOM      2  C   UNL     1       6.324   4.886  15.756  0.00  0.00    +0.000 C 
ATOM      3  O   UNL     1       7.247   5.639  16.072  0.00  0.00    +0.000 OA
ENDROOT
BRANCH   2   4
ATOM      4  C   UNL     1       6.416   4.436  14.315  0.00  0.00    +0.000 A 
ATOM      5  C   UNL     1       5.697   3.443  13.658  0.00  0.00    +0.000 A 
ATOM      6  C   UNL     1       5.960   3.100  12.329  0.00  0.00    +0.000 A 
ATOM      7  C   UNL     1       6.951   3.777  11.653  0.00  0.00    +0.000 A 
ATOM      8  N   UNL     1       7.686   4.749  12.229  0.00  0.00    +0.000 NA
ATOM      9  C   UNL     1       7.408   5.042  13.533  0.00  0.00    +0.000 A 
ENDBRANCH   2   4
BRANCH   1  10
ATOM     10  C   UNL     1       5.378   5.040  18.164  0.00  0.00    +0.000 C 
ATOM     11  C   UNL     1       5.225   3.840  19.147  0.00  0.00    +0.000 C 
BRANCH  10  12
ATOM     12  C   UNL     1       4.302   6.132  18.475  0.00  0.00    +0.000 A 
ATOM     13  C   UNL     1       4.056   7.146  17.529  0.00  0.00    +0.000 A 
ATOM     14  C   UNL     1       3.009   8.051  17.708  0.00  0.00    +0.000 A 
ATOM     15  C   UNL     1       2.202   7.974  18.841  0.00  0.00    +0.000 A 
ATOM     16  C   UNL     1       2.461   7.016  19.811  0.00  0.00    +0.000 A 
ATOM     17  C   UNL     1       3.502   6.107  19.639  0.00  0.00    +0.000 A 
ENDBRANCH  10  12
BRANCH  10  19
ATOM     18  N   UNL     1       6.903   7.074  18.168  0.00  0.00    +0.000 N 
ATOM     19  C   UNL     1       6.787   5.730  18.484  0.00  0.00    +0.000 C 
ATOM     20  O   UNL     1       7.749   5.122  18.949  0.00  0.00    +0.000 OA
ATOM     21  H   UNL     1       6.099   7.593  17.841  0.00  0.00    +0.000 HD
BRANCH  18  22
ATOM     22  C   UNL     1       8.176   7.755  18.224  0.00  0.00    +0.000 C 
BRANCH  22  24
ATOM     23  C   UNL     1       8.798  10.235  18.278  0.00  0.00    +0.000 C 
ATOM     24  C   UNL     1       8.031   9.210  17.877  0.00  0.00    +0.000 C 
ENDBRANCH  22  24
ENDBRANCH  18  22
ENDBRANCH  10  19
ENDBRANCH   1  10
BRANCH   1  25
ATOM     25  C   UNL     1       3.976   4.150  16.195  0.00  0.00    +0.000 C 
BRANCH  25  26
ATOM     26  C   UNL     1       3.036   3.377  17.092  0.00  0.00    +0.000 A 
ATOM     27  C   UNL     1       3.462   2.125  17.556  0.00  0.00    +0.000 A 
ATOM     28  C   UNL     1       2.725   1.486  18.538  0.00  0.00    +0.000 A 
ATOM     29  N   UNL     1       1.617   2.009  19.099  0.00  0.00    +0.000 NA
ATOM     30  C   UNL     1       1.190   3.191  18.605  0.00  0.00    +0.000 A 
ATOM     31  C   UNL     1       1.836   3.887  17.595  0.00  0.00    +0.000 A 
ENDBRANCH  25  26
ENDBRANCH   1  25
TORSDOF 8
ENDMDL
MODEL 9
REMARK VINA RESULT:      -6.6      1.523      4.086
REMARK  Name = 
REMARK  9 active torsions:
REMARK  status: ('A' for Active; 'I' for Inactive)
REMARK    1  A    between atoms: C_2  and  C_3
REMARK    2  A    between atoms: C_3  and  N_4
REMARK    3  A    between atoms: C_5  and  C_7
REMARK    4  A    between atoms: C_7  and  C_8
REMARK    5  A    between atoms: C_7  and  C_9
REMARK    6  A    between atoms: C_7  and  N_15
REMARK    7  A    between atoms: N_15  and  C_16
REMARK    8  A    between atoms: C_16  and  C_17
REMARK    9  A    between atoms: C_23  and  C_25
REMARK                            x       y       z     vdW  Elec       q    Type
REMARK                         _______ _______ _______ _____ _____    ______ ____
ROOT
ATOM      1  N   UNL     1       3.364   5.811  17.499  0.00  0.00    +0.000 N 
ATOM      2  C   UNL     1       3.526   7.104  18.076  0.00  0.00    +0.000 C 
ATOM      3  O   UNL     1       4.641   7.603  18.236  0.00  0.00    +0.000 OA
ENDROOT
BRANCH   2   4
ATOM      4  C   UNL     1       2.415   8.014  18.549  0.00  0.00    +0.000 A 
ATOM      5  C   UNL     1       1.863   8.137  19.820  0.00  0.00    +0.000 A 
ATOM      6  C   UNL     1       0.780   8.984  20.074  0.00  0.00    +0.000 A 
ATOM      7  C   UNL     1       0.260   9.724  19.035  0.00  0.00    +0.000 A 
ATOM      8  N   UNL     1       0.746   9.652  17.780  0.00  0.00    +0.000 NA
ATOM      9  C   UNL     1       1.793   8.801  17.572  0.00  0.00    +0.000 A 
ENDBRANCH   2   4
BRANCH   1  10
ATOM     10  C   UNL     1       4.620   5.002  17.026  0.00  0.00    +0.000 C 
ATOM     11  C   UNL     1       4.296   3.477  17.070  0.00  0.00    +0.000 C 
BRANCH  10  12
ATOM     12  C   UNL     1       5.902   5.305  17.870  0.00  0.00    +0.000 A 
ATOM     13  C   UNL     1       6.892   6.154  17.337  0.00  0.00    +0.000 A 
ATOM     14  C   UNL     1       7.978   6.559  18.114  0.00  0.00    +0.000 A 
ATOM     15  C   UNL     1       8.107   6.112  19.426  0.00  0.00    +0.000 A 
ATOM     16  C   UNL     1       7.171   5.233  19.953  0.00  0.00    +0.000 A 
ATOM     17  C   UNL     1       6.083   4.826  19.186  0.00  0.00    +0.000 A 
ENDBRANCH  10  12
BRANCH  10  19
ATOM     18  N   UNL     1       5.455   4.299  14.731  0.00  0.00    +0.000 N 
ATOM     19  C   UNL     1       5.014   5.353  15.515  0.00  0.00    +0.000 C 
ATOM     20  O   UNL     1       4.977   6.490  15.051  0.00  0.00    +0.000 OA
ATOM     21  H   UNL     1       5.432   3.353  15.087  0.00  0.00    +0.000 HD
BRANCH  18  22
ATOM     22  C   UNL     1       6.024   4.518  13.421  0.00  0.00    +0.000 C 
BRANCH  22  24
ATOM     23  C   UNL     1       4.604   3.245  11.716  0.00  0.00    +0.000 C 
ATOM     24  C   UNL     1       5.693   3.389  12.486  0.00  0.00    +0.000 C 
ENDBRANCH  22  24
ENDBRANCH  18  22
ENDBRANCH  10  19
ENDBRANCH   1  10
BRANCH   1  25
ATOM     25  C   UNL     1       2.179   5.011  17.848  0.00  0.00    +0.000 C 
BRANCH  25  26
ATOM     26  C   UNL     1       2.154   4.251  19.154  0.00  0.00    +0.000 A 
ATOM     27  C   UNL     1       2.749   4.855  20.270  0.00  0.00    +0.000 A 
ATOM     28  C   UNL     1       2.565   4.289  21.520  0.00  0.00    +0.000 A 
ATOM     29  N   UNL     1       1.822   3.186  21.737  0.00  0.00    +0.000 NA
ATOM     30  C   UNL     1       1.300   2.585  20.646  0.00  0.00    +0.000 A 
ATOM     31  C   UNL     1       1.462   3.052  19.351  0.00  0.00    +0.000 A 
ENDBRANCH  25  26
ENDBRANCH   1  25
TORSDOF 8
ENDMDL
