MODEL 1
REMARK VINA RESULT:      -8.1      0.000      0.000
REMARK  Name = 
REMARK  3 active torsions:
REMARK  status: ('A' for Active; 'I' for Inactive)
REMARK    1  A    between atoms: C_2  and  C_3
REMARK    2  A    between atoms: C_3  and  N_4
REMARK    3  A    between atoms: N_13  and  C_14
REMARK                            x       y       z     vdW  Elec       q    Type
REMARK                         _______ _______ _______ _____ _____    ______ ____
ROOT
ATOM      1  O   UNL     1       4.483   7.064  17.574  0.00  0.00    +0.000 OA
ATOM      2  C   UNL     1       3.414   6.473  17.715  0.00  0.00    +0.000 C 
ATOM      3  N   UNL     1       2.318   7.075  18.305  0.00  0.00    +0.000 N 
ATOM      4  H   UNL     1       1.409   6.628  18.189  0.00  0.00    +0.000 HD
ENDROOT
BRANCH   3   5
ATOM      5  C   UNL     1       2.358   8.480  18.696  0.00  0.00    +0.000 C 
ATOM      6  C   UNL     1       1.537   9.368  17.768  0.00  0.00    +0.000 C 
ATOM      7  C   UNL     1       1.271  10.604  18.618  0.00  0.00    +0.000 C 
ATOM      8  N   UNL     1       1.090  10.077  19.967  0.00  0.00    +0.000 N 
ATOM      9  C   UNL     1       0.118  10.531  20.845  0.00  0.00    +0.000 A 
ATOM     10  C   UNL     1       0.174  10.091  22.289  0.00  0.00    +0.000 A 
ATOM     11  C   UNL     1      -0.761  10.518  23.146  0.00  0.00    +0.000 A 
ATOM     12  C   UNL     1      -1.786  11.351  22.668  0.00  0.00    +0.000 A 
ATOM     13  N   UNL     1      -2.835  11.900  23.239  0.00  0.00    +0.000 NA
ATOM     14  N   UNL     1      -3.514  12.611  22.271  0.00  0.00    +0.000 NA
ATOM     15  C   UNL     1      -2.851  12.473  21.143  0.00  0.00    +0.000 A 
ATOM     16  N   UNL     1      -1.742  11.698  21.337  0.00  0.00    +0.000 N 
ATOM     17  N   UNL     1      -0.816  11.336  20.400  0.00  0.00    +0.000 NA
ATOM     18  C   UNL     1       1.740   8.766  20.085  0.00  0.00    +0.000 C 
ENDBRANCH   3   5
BRANCH   2  19
ATOM     19  C   UNL     1       3.264   5.014  17.356  0.00  0.00    +0.000 C 
BRANCH  19  20
ATOM     20  N   UNL     1       3.549   4.153  18.476  0.00  0.00    +0.000 N 
ATOM     21  N   UNL     1       4.805   3.696  18.656  0.00  0.00    +0.000 NA
ATOM     22  N   UNL     1       4.800   2.935  19.741  0.00  0.00    +0.000 NA
ATOM     23  C   UNL     1       3.528   2.926  20.251  0.00  0.00    +0.000 A 
ATOM     24  C   UNL     1       3.002   2.297  21.388  0.00  0.00    +0.000 A 
ATOM     25  C   UNL     1       1.646   2.479  21.685  0.00  0.00    +0.000 A 
ATOM     26  C   UNL     1       0.830   3.258  20.860  0.00  0.00    +0.000 A 
ATOM     27  C   UNL     1       1.336   3.886  19.716  0.00  0.00    +0.000 A 
ATOM     28  C   UNL     1       2.697   3.702  19.448  0.00  0.00    +0.000 A 
ENDBRANCH  19  20
ENDBRANCH   2  19
TORSDOF 3
ENDMDL
MODEL 2
REMARK VINA RESULT:      -7.9      6.082      9.563
REMARK  Name = 
REMARK  3 active torsions:
REMARK  status: ('A' for Active; 'I' for Inactive)
REMARK    1  A    between atoms: C_2  and  C_3
REMARK    2  A    between atoms: C_3  and  N_4
REMARK    3  A    between atoms: N_13  and  C_14
REMARK                            x       y       z     vdW  Elec       q    Type
REMARK                         _______ _______ _______ _____ _____    ______ ____
ROOT
ATOM      1  O   UNL     1       8.841   8.252  18.835  0.00  0.00    +0.000 OA
ATOM      2  C   UNL     1       8.120   8.831  18.024  0.00  0.00    +0.000 C 
ATOM      3  N   UNL     1       7.267   8.141  17.182  0.00  0.00    +0.000 N 
ATOM      4  H   UNL     1       6.540   8.671  16.703  0.00  0.00    +0.000 HD
ENDROOT
BRANCH   3   5
ATOM      5  C   UNL     1       7.117   6.695  17.293  0.00  0.00    +0.000 C 
ATOM      6  C   UNL     1       7.478   6.175  18.680  0.00  0.00    +0.000 C 
ATOM      7  C   UNL     1       6.762   4.832  18.743  0.00  0.00    +0.000 C 
ATOM      8  N   UNL     1       5.515   5.058  18.020  0.00  0.00    +0.000 N 
ATOM      9  C   UNL     1       4.286   4.567  18.435  0.00  0.00    +0.000 A 
ATOM     10  C   UNL     1       3.109   4.652  17.493  0.00  0.00    +0.000 A 
ATOM     11  C   UNL     1       1.916   4.185  17.882  0.00  0.00    +0.000 A 
ATOM     12  C   UNL     1       1.790   3.647  19.173  0.00  0.00    +0.000 A 
ATOM     13  N   UNL     1       0.774   3.146  19.840  0.00  0.00    +0.000 NA
ATOM     14  N   UNL     1       1.233   2.784  21.090  0.00  0.00    +0.000 NA
ATOM     15  C   UNL     1       2.516   3.075  21.139  0.00  0.00    +0.000 A 
ATOM     16  N   UNL     1       2.926   3.610  19.950  0.00  0.00    +0.000 N 
ATOM     17  N   UNL     1       4.183   4.033  19.628  0.00  0.00    +0.000 NA
ATOM     18  C   UNL     1       5.665   6.195  17.104  0.00  0.00    +0.000 C 
ENDBRANCH   3   5
BRANCH   2  19
ATOM     19  C   UNL     1       8.202  10.324  17.818  0.00  0.00    +0.000 C 
BRANCH  19  20
ATOM     20  N   UNL     1       9.142  10.940  18.721  0.00  0.00    +0.000 N 
ATOM     21  N   UNL     1       9.074  10.659  20.038  0.00  0.00    +0.000 NA
ATOM     22  N   UNL     1      10.036  11.345  20.641  0.00  0.00    +0.000 NA
ATOM     23  C   UNL     1      10.717  12.054  19.687  0.00  0.00    +0.000 A 
ATOM     24  C   UNL     1      11.822  12.910  19.797  0.00  0.00    +0.000 A 
ATOM     25  C   UNL     1      12.333  13.495  18.633  0.00  0.00    +0.000 A 
ATOM     26  C   UNL     1      11.748  13.245  17.389  0.00  0.00    +0.000 A 
ATOM     27  C   UNL     1      10.639  12.399  17.260  0.00  0.00    +0.000 A 
ATOM     28  C   UNL     1      10.156  11.815  18.436  0.00  0.00    +0.000 A 
ENDBRANCH  19  20
ENDBRANCH   2  19
TORSDOF 3
ENDMDL
MODEL 3
REMARK VINA RESULT:      -7.8      2.586      9.248
REMARK  Name = 
REMARK  3 active torsions:
REMARK  status: ('A' for Active; 'I' for Inactive)
REMARK    1  A    between atoms: C_2  and  C_3
REMARK    2  A    between atoms: C_3  and  N_4
REMARK    3  A    between atoms: N_13  and  C_14
REMARK                            x       y       z     vdW  Elec       q    Type
REMARK                         _______ _______ _______ _____ _____    ______ ____
ROOT
ATOM      1  O   UNL     1      -0.796   8.148  21.711  0.00  0.00    +0.000 OA
ATOM      2  C   UNL     1      -0.119   9.173  21.771  0.00  0.00    +0.000 C 
ATOM      3  N   UNL     1       0.826   9.482  20.810  0.00  0.00    +0.000 N 
ATOM      4  H   UNL     1       1.186  10.435  20.787  0.00  0.00    +0.000 HD
ENDROOT
BRANCH   3   5
ATOM      5  C   UNL     1       0.988   8.646  19.625  0.00  0.00    +0.000 C 
ATOM      6  C   UNL     1       1.702   9.372  18.492  0.00  0.00    +0.000 C 
ATOM      7  C   UNL     1       2.232   8.233  17.630  0.00  0.00    +0.000 C 
ATOM      8  N   UNL     1       2.609   7.204  18.594  0.00  0.00    +0.000 N 
ATOM      9  C   UNL     1       3.764   6.443  18.493  0.00  0.00    +0.000 A 
ATOM     10  C   UNL     1       3.934   5.248  19.401  0.00  0.00    +0.000 A 
ATOM     11  C   UNL     1       5.046   4.508  19.317  0.00  0.00    +0.000 A 
ATOM     12  C   UNL     1       6.037   4.880  18.396  0.00  0.00    +0.000 A 
ATOM     13  N   UNL     1       7.219   4.386  18.102  0.00  0.00    +0.000 NA
ATOM     14  N   UNL     1       7.770   5.179  17.116  0.00  0.00    +0.000 NA
ATOM     15  C   UNL     1       6.902   6.129  16.842  0.00  0.00    +0.000 A 
ATOM     16  N   UNL     1       5.781   5.981  17.610  0.00  0.00    +0.000 N 
ATOM     17  N   UNL     1       4.670   6.775  17.605  0.00  0.00    +0.000 NA
ATOM     18  C   UNL     1       1.875   7.399  19.849  0.00  0.00    +0.000 C 
ENDBRANCH   3   5
BRANCH   2  19
ATOM     19  C   UNL     1      -0.196  10.103  22.957  0.00  0.00    +0.000 C 
BRANCH  19  20
ATOM     20  N   UNL     1      -0.493  11.457  22.560  0.00  0.00    +0.000 N 
ATOM     21  N   UNL     1       0.420  12.153  21.851  0.00  0.00    +0.000 NA
ATOM     22  N   UNL     1      -0.091  13.353  21.616  0.00  0.00    +0.000 NA
ATOM     23  C   UNL     1      -1.341  13.403  22.175  0.00  0.00    +0.000 A 
ATOM     24  C   UNL     1      -2.296  14.429  22.191  0.00  0.00    +0.000 A 
ATOM     25  C   UNL     1      -3.519  14.194  22.832  0.00  0.00    +0.000 A 
ATOM     26  C   UNL     1      -3.778  12.970  23.455  0.00  0.00    +0.000 A 
ATOM     27  C   UNL     1      -2.832  11.937  23.456  0.00  0.00    +0.000 A 
ATOM     28  C   UNL     1      -1.624  12.191  22.797  0.00  0.00    +0.000 A 
ENDBRANCH  19  20
ENDBRANCH   2  19
TORSDOF 3
ENDMDL
MODEL 4
REMARK VINA RESULT:      -7.8      2.161      3.221
REMARK  Name = 
REMARK  3 active torsions:
REMARK  status: ('A' for Active; 'I' for Inactive)
REMARK    1  A    between atoms: C_2  and  C_3
REMARK    2  A    between atoms: C_3  and  N_4
REMARK    3  A    between atoms: N_13  and  C_14
REMARK                            x       y       z     vdW  Elec       q    Type
REMARK                         _______ _______ _______ _____ _____    ______ ____
ROOT
ATOM      1  O   UNL     1       3.397   8.031  17.689  0.00  0.00    +0.000 OA
ATOM      2  C   UNL     1       2.681   7.360  18.430  0.00  0.00    +0.000 C 
ATOM      3  N   UNL     1       1.757   7.943  19.277  0.00  0.00    +0.000 N 
ATOM      4  H   UNL     1       1.045   7.342  19.691  0.00  0.00    +0.000 HD
ENDROOT
BRANCH   3   5
ATOM      5  C   UNL     1       1.524   9.383  19.252  0.00  0.00    +0.000 C 
ATOM      6  C   UNL     1       0.526   9.794  18.175  0.00  0.00    +0.000 C 
ATOM      7  C   UNL     1       0.035  11.153  18.659  0.00  0.00    +0.000 C 
ATOM      8  N   UNL     1      -0.013  11.017  20.111  0.00  0.00    +0.000 N 
ATOM      9  C   UNL     1      -1.040  11.520  20.896  0.00  0.00    +0.000 A 
ATOM     10  C   UNL     1      -0.872  11.539  22.397  0.00  0.00    +0.000 A 
ATOM     11  C   UNL     1      -1.857  12.017  23.166  0.00  0.00    +0.000 A 
ATOM     12  C   UNL     1      -3.035  12.469  22.550  0.00  0.00    +0.000 A 
ATOM     13  N   UNL     1      -4.162  12.957  23.021  0.00  0.00    +0.000 NA
ATOM     14  N   UNL     1      -4.986  13.216  21.944  0.00  0.00    +0.000 NA
ATOM     15  C   UNL     1      -4.329  12.880  20.855  0.00  0.00    +0.000 A 
ATOM     16  N   UNL     1      -3.085  12.415  21.176  0.00  0.00    +0.000 N 
ATOM     17  N   UNL     1      -2.123  11.974  20.313  0.00  0.00    +0.000 NA
ATOM     18  C   UNL     1       0.886   9.942  20.546  0.00  0.00    +0.000 C 
ENDBRANCH   3   5
BRANCH   2  19
ATOM     19  C   UNL     1       2.844   5.864  18.545  0.00  0.00    +0.000 C 
BRANCH  19  20
ATOM     20  N   UNL     1       4.231   5.471  18.519  0.00  0.00    +0.000 N 
ATOM     21  N   UNL     1       4.890   5.295  19.682  0.00  0.00    +0.000 NA
ATOM     22  N   UNL     1       6.133   4.942  19.385  0.00  0.00    +0.000 NA
ATOM     23  C   UNL     1       6.248   4.887  18.021  0.00  0.00    +0.000 A 
ATOM     24  C   UNL     1       7.337   4.548  17.207  0.00  0.00    +0.000 A 
ATOM     25  C   UNL     1       7.162   4.558  15.818  0.00  0.00    +0.000 A 
ATOM     26  C   UNL     1       5.934   4.913  15.253  0.00  0.00    +0.000 A 
ATOM     27  C   UNL     1       4.837   5.263  16.051  0.00  0.00    +0.000 A 
ATOM     28  C   UNL     1       5.033   5.230  17.436  0.00  0.00    +0.000 A 
ENDBRANCH  19  20
ENDBRANCH   2  19
TORSDOF 3
ENDMDL
MODEL 5
REMARK VINA RESULT:      -7.7      3.035      4.589
REMARK  Name = 
REMARK  3 active torsions:
REMARK  status: ('A' for Active; 'I' for Inactive)
REMARK    1  A    between atoms: C_2  and  C_3
REMARK    2  A    between atoms: C_3  and  N_4
REMARK    3  A    between atoms: N_13  and  C_14
REMARK                            x       y       z     vdW  Elec       q    Type
REMARK                         _______ _______ _______ _____ _____    ______ ____
ROOT
ATOM      1  O   UNL     1       1.127   5.175  20.725  0.00  0.00    +0.000 OA
ATOM      2  C   UNL     1       2.157   5.670  20.271  0.00  0.00    +0.000 C 
ATOM      3  N   UNL     1       2.302   7.036  20.114  0.00  0.00    +0.000 N 
ATOM      4  H   UNL     1       3.241   7.399  19.953  0.00  0.00    +0.000 HD
ENDROOT
BRANCH   3   5
ATOM      5  C   UNL     1       1.269   7.956  20.578  0.00  0.00    +0.000 C 
ATOM      6  C   UNL     1       1.566   8.515  21.965  0.00  0.00    +0.000 C 
ATOM      7  C   UNL     1       0.726   9.785  22.014  0.00  0.00    +0.000 C 
ATOM      8  N   UNL     1       0.796  10.310  20.654  0.00  0.00    +0.000 N 
ATOM      9  C   UNL     1       0.948  11.656  20.358  0.00  0.00    +0.000 A 
ATOM     10  C   UNL     1       0.765  12.116  18.931  0.00  0.00    +0.000 A 
ATOM     11  C   UNL     1       0.915  13.412  18.631  0.00  0.00    +0.000 A 
ATOM     12  C   UNL     1       1.261  14.307  19.655  0.00  0.00    +0.000 A 
ATOM     13  N   UNL     1       1.498  15.600  19.674  0.00  0.00    +0.000 NA
ATOM     14  N   UNL     1       1.817  15.948  20.971  0.00  0.00    +0.000 NA
ATOM     15  C   UNL     1       1.759  14.853  21.698  0.00  0.00    +0.000 A 
ATOM     16  N   UNL     1       1.398  13.787  20.922  0.00  0.00    +0.000 N 
ATOM     17  N   UNL     1       1.237  12.493  21.325  0.00  0.00    +0.000 NA
ATOM     18  C   UNL     1       1.126   9.232  19.715  0.00  0.00    +0.000 C 
ENDBRANCH   3   5
BRANCH   2  19
ATOM     19  C   UNL     1       3.284   4.813  19.749  0.00  0.00    +0.000 C 
BRANCH  19  20
ATOM     20  N   UNL     1       4.046   5.490  18.730  0.00  0.00    +0.000 N 
ATOM     21  N   UNL     1       3.410   5.988  17.650  0.00  0.00    +0.000 NA
ATOM     22  N   UNL     1       4.325   6.553  16.875  0.00  0.00    +0.000 NA
ATOM     23  C   UNL     1       5.545   6.415  17.483  0.00  0.00    +0.000 A 
ATOM     24  C   UNL     1       6.818   6.851  17.091  0.00  0.00    +0.000 A 
ATOM     25  C   UNL     1       7.905   6.583  17.931  0.00  0.00    +0.000 A 
ATOM     26  C   UNL     1       7.729   5.884  19.129  0.00  0.00    +0.000 A 
ATOM     27  C   UNL     1       6.466   5.433  19.532  0.00  0.00    +0.000 A 
ATOM     28  C   UNL     1       5.394   5.726  18.683  0.00  0.00    +0.000 A 
ENDBRANCH  19  20
ENDBRANCH   2  19
TORSDOF 3
ENDMDL
MODEL 6
REMARK VINA RESULT:      -7.6      2.695      4.464
REMARK  Name = 
REMARK  3 active torsions:
REMARK  status: ('A' for Active; 'I' for Inactive)
REMARK    1  A    between atoms: C_2  and  C_3
REMARK    2  A    between atoms: C_3  and  N_4
REMARK    3  A    between atoms: N_13  and  C_14
REMARK                            x       y       z     vdW  Elec       q    Type
REMARK                         _______ _______ _______ _____ _____    ______ ____
ROOT
ATOM      1  O   UNL     1       1.753   4.335  19.468  0.00  0.00    +0.000 OA
ATOM      2  C   UNL     1       2.841   4.861  19.699  0.00  0.00    +0.000 C 
ATOM      3  N   UNL     1       2.984   6.234  19.781  0.00  0.00    +0.000 N 
ATOM      4  H   UNL     1       3.842   6.599  20.194  0.00  0.00    +0.000 HD
ENDROOT
BRANCH   3   5
ATOM      5  C   UNL     1       1.823   7.113  19.696  0.00  0.00    +0.000 C 
ATOM      6  C   UNL     1       1.358   7.601  21.063  0.00  0.00    +0.000 C 
ATOM      7  C   UNL     1       0.560   8.854  20.731  0.00  0.00    +0.000 C 
ATOM      8  N   UNL     1       1.285   9.453  19.615  0.00  0.00    +0.000 N 
ATOM      9  C   UNL     1       1.514  10.815  19.490  0.00  0.00    +0.000 A 
ATOM     10  C   UNL     1       2.058  11.349  18.186  0.00  0.00    +0.000 A 
ATOM     11  C   UNL     1       2.287  12.661  18.054  0.00  0.00    +0.000 A 
ATOM     12  C   UNL     1       2.035  13.504  19.148  0.00  0.00    +0.000 A 
ATOM     13  N   UNL     1       2.180  14.798  19.335  0.00  0.00    +0.000 NA
ATOM     14  N   UNL     1       1.788  15.079  20.628  0.00  0.00    +0.000 NA
ATOM     15  C   UNL     1       1.413  13.946  21.182  0.00  0.00    +0.000 A 
ATOM     16  N   UNL     1       1.535  12.919  20.289  0.00  0.00    +0.000 N 
ATOM     17  N   UNL     1       1.243  11.602  20.504  0.00  0.00    +0.000 NA
ATOM     18  C   UNL     1       2.085   8.432  18.930  0.00  0.00    +0.000 C 
ENDBRANCH   3   5
BRANCH   2  19
ATOM     19  C   UNL     1       4.109   4.048  19.794  0.00  0.00    +0.000 C 
BRANCH  19  20
ATOM     20  N   UNL     1       5.183   4.638  19.033  0.00  0.00    +0.000 N 
ATOM     21  N   UNL     1       6.167   5.295  19.680  0.00  0.00    +0.000 NA
ATOM     22  N   UNL     1       7.018   5.736  18.764  0.00  0.00    +0.000 NA
ATOM     23  C   UNL     1       6.565   5.340  17.533  0.00  0.00    +0.000 A 
ATOM     24  C   UNL     1       7.106   5.530  16.254  0.00  0.00    +0.000 A 
ATOM     25  C   UNL     1       6.428   4.990  15.155  0.00  0.00    +0.000 A 
ATOM     26  C   UNL     1       5.232   4.287  15.325  0.00  0.00    +0.000 A 
ATOM     27  C   UNL     1       4.673   4.095  16.594  0.00  0.00    +0.000 A 
ATOM     28  C   UNL     1       5.376   4.632  17.678  0.00  0.00    +0.000 A 
ENDBRANCH  19  20
ENDBRANCH   2  19
TORSDOF 3
ENDMDL
MODEL 7
REMARK VINA RESULT:      -7.6      5.987      9.741
REMARK  Name = 
REMARK  3 active torsions:
REMARK  status: ('A' for Active; 'I' for Inactive)
REMARK    1  A    between atoms: C_2  and  C_3
REMARK    2  A    between atoms: C_3  and  N_4
REMARK    3  A    between atoms: N_13  and  C_14
REMARK                            x       y       z     vdW  Elec       q    Type
REMARK                         _______ _______ _______ _____ _____    ______ ____
ROOT
ATOM      1  O   UNL     1       7.671  10.082  17.574  0.00  0.00    +0.000 OA
ATOM      2  C   UNL     1       8.332   9.264  18.212  0.00  0.00    +0.000 C 
ATOM      3  N   UNL     1       8.112   7.904  18.104  0.00  0.00    +0.000 N 
ATOM      4  H   UNL     1       8.827   7.276  18.470  0.00  0.00    +0.000 HD
ENDROOT
BRANCH   3   5
ATOM      5  C   UNL     1       7.147   7.377  17.145  0.00  0.00    +0.000 C 
ATOM      6  C   UNL     1       7.477   5.955  16.705  0.00  0.00    +0.000 C 
ATOM      7  C   UNL     1       6.142   5.433  16.190  0.00  0.00    +0.000 C 
ATOM      8  N   UNL     1       5.156   6.033  17.083  0.00  0.00    +0.000 N 
ATOM      9  C   UNL     1       4.057   5.351  17.582  0.00  0.00    +0.000 A 
ATOM     10  C   UNL     1       2.976   6.128  18.296  0.00  0.00    +0.000 A 
ATOM     11  C   UNL     1       1.912   5.481  18.787  0.00  0.00    +0.000 A 
ATOM     12  C   UNL     1       1.843   4.087  18.641  0.00  0.00    +0.000 A 
ATOM     13  N   UNL     1       0.965   3.187  19.026  0.00  0.00    +0.000 NA
ATOM     14  N   UNL     1       1.427   1.952  18.621  0.00  0.00    +0.000 NA
ATOM     15  C   UNL     1       2.571   2.143  17.999  0.00  0.00    +0.000 A 
ATOM     16  N   UNL     1       2.877   3.475  17.969  0.00  0.00    +0.000 N 
ATOM     17  N   UNL     1       3.981   4.053  17.412  0.00  0.00    +0.000 NA
ATOM     18  C   UNL     1       5.711   7.240  17.706  0.00  0.00    +0.000 C 
ENDBRANCH   3   5
BRANCH   2  19
ATOM     19  C   UNL     1       9.349   9.699  19.240  0.00  0.00    +0.000 C 
BRANCH  19  20
ATOM     20  N   UNL     1       9.410  11.134  19.361  0.00  0.00    +0.000 N 
ATOM     21  N   UNL     1       8.749  11.740  20.369  0.00  0.00    +0.000 NA
ATOM     22  N   UNL     1       8.963  13.044  20.257  0.00  0.00    +0.000 NA
ATOM     23  C   UNL     1       9.776  13.252  19.173  0.00  0.00    +0.000 A 
ATOM     24  C   UNL     1      10.308  14.435  18.642  0.00  0.00    +0.000 A 
ATOM     25  C   UNL     1      11.138  14.349  17.518  0.00  0.00    +0.000 A 
ATOM     26  C   UNL     1      11.419  13.113  16.928  0.00  0.00    +0.000 A 
ATOM     27  C   UNL     1      10.889  11.922  17.440  0.00  0.00    +0.000 A 
ATOM     28  C   UNL     1      10.075  12.033  18.572  0.00  0.00    +0.000 A 
ENDBRANCH  19  20
ENDBRANCH   2  19
TORSDOF 3
ENDMDL
MODEL 8
REMARK VINA RESULT:      -7.6      2.776      8.612
REMARK  Name = 
REMARK  3 active torsions:
REMARK  status: ('A' for Active; 'I' for Inactive)
REMARK    1  A    between atoms: C_2  and  C_3
REMARK    2  A    between atoms: C_3  and  N_4
REMARK    3  A    between atoms: N_13  and  C_14
REMARK                            x       y       z     vdW  Elec       q    Type
REMARK                         _______ _______ _______ _____ _____    ______ ____
ROOT
ATOM      1  O   UNL     1       1.223  12.424  18.772  0.00  0.00    +0.000 OA
ATOM      2  C   UNL     1       0.076  12.000  18.903  0.00  0.00    +0.000 C 
ATOM      3  N   UNL     1      -0.190  10.792  19.522  0.00  0.00    +0.000 N 
ATOM      4  H   UNL     1      -1.152  10.604  19.803  0.00  0.00    +0.000 HD
ENDROOT
BRANCH   3   5
ATOM      5  C   UNL     1       0.881  10.016  20.137  0.00  0.00    +0.000 C 
ATOM      6  C   UNL     1       0.406   9.224  21.350  0.00  0.00    +0.000 C 
ATOM      7  C   UNL     1       1.458   8.131  21.483  0.00  0.00    +0.000 C 
ATOM      8  N   UNL     1       1.801   7.797  20.104  0.00  0.00    +0.000 N 
ATOM      9  C   UNL     1       1.998   6.500  19.655  0.00  0.00    +0.000 A 
ATOM     10  C   UNL     1       2.584   6.284  18.280  0.00  0.00    +0.000 A 
ATOM     11  C   UNL     1       2.775   5.037  17.832  0.00  0.00    +0.000 A 
ATOM     12  C   UNL     1       2.402   3.960  18.652  0.00  0.00    +0.000 A 
ATOM     13  N   UNL     1       2.439   2.656  18.490  0.00  0.00    +0.000 NA
ATOM     14  N   UNL     1       1.919   2.079  19.631  0.00  0.00    +0.000 NA
ATOM     15  C   UNL     1       1.588   3.054  20.450  0.00  0.00    +0.000 A 
ATOM     16  N   UNL     1       1.884   4.265  19.889  0.00  0.00    +0.000 N 
ATOM     17  N   UNL     1       1.681   5.498  20.440  0.00  0.00    +0.000 NA
ATOM     18  C   UNL     1       1.472   8.919  19.219  0.00  0.00    +0.000 C 
ENDBRANCH   3   5
BRANCH   2  19
ATOM     19  C   UNL     1      -1.106  12.716  18.297  0.00  0.00    +0.000 C 
BRANCH  19  20
ATOM     20  N   UNL     1      -2.194  11.814  18.015  0.00  0.00    +0.000 N 
ATOM     21  N   UNL     1      -2.007  10.807  17.136  0.00  0.00    +0.000 NA
ATOM     22  N   UNL     1      -3.146  10.133  17.056  0.00  0.00    +0.000 NA
ATOM     23  C   UNL     1      -4.050  10.719  17.902  0.00  0.00    +0.000 A 
ATOM     24  C   UNL     1      -5.378  10.381  18.200  0.00  0.00    +0.000 A 
ATOM     25  C   UNL     1      -6.072  11.158  19.134  0.00  0.00    +0.000 A 
ATOM     26  C   UNL     1      -5.462  12.256  19.748  0.00  0.00    +0.000 A 
ATOM     27  C   UNL     1      -4.139  12.613  19.457  0.00  0.00    +0.000 A 
ATOM     28  C   UNL     1      -3.462  11.812  18.531  0.00  0.00    +0.000 A 
ENDBRANCH  19  20
ENDBRANCH   2  19
TORSDOF 3
ENDMDL
MODEL 9
REMARK VINA RESULT:      -7.5      6.109      9.671
REMARK  Name = 
REMARK  3 active torsions:
REMARK  status: ('A' for Active; 'I' for Inactive)
REMARK    1  A    between atoms: C_2  and  C_3
REMARK    2  A    between atoms: C_3  and  N_4
REMARK    3  A    between atoms: N_13  and  C_14
REMARK                            x       y       z     vdW  Elec       q    Type
REMARK                         _______ _______ _______ _____ _____    ______ ____
ROOT
ATOM      1  O   UNL     1       7.653  10.066  17.527  0.00  0.00    +0.000 OA
ATOM      2  C   UNL     1       8.305   9.259  18.188  0.00  0.00    +0.000 C 
ATOM      3  N   UNL     1       8.098   7.896  18.087  0.00  0.00    +0.000 N 
ATOM      4  H   UNL     1       8.808   7.277  18.476  0.00  0.00    +0.000 HD
ENDROOT
BRANCH   3   5
ATOM      5  C   UNL     1       7.158   7.352  17.113  0.00  0.00    +0.000 C 
ATOM      6  C   UNL     1       7.503   5.926  16.701  0.00  0.00    +0.000 C 
ATOM      7  C   UNL     1       6.182   5.393  16.160  0.00  0.00    +0.000 C 
ATOM      8  N   UNL     1       5.173   6.002  17.021  0.00  0.00    +0.000 N 
ATOM      9  C   UNL     1       4.063   5.324  17.502  0.00  0.00    +0.000 A 
ATOM     10  C   UNL     1       2.964   6.108  18.178  0.00  0.00    +0.000 A 
ATOM     11  C   UNL     1       1.889   5.465  18.651  0.00  0.00    +0.000 A 
ATOM     12  C   UNL     1       1.828   4.068  18.523  0.00  0.00    +0.000 A 
ATOM     13  N   UNL     1       0.942   3.172  18.899  0.00  0.00    +0.000 NA
ATOM     14  N   UNL     1       1.418   1.932  18.523  0.00  0.00    +0.000 NA
ATOM     15  C   UNL     1       2.576   2.118  17.927  0.00  0.00    +0.000 A 
ATOM     16  N   UNL     1       2.879   3.450  17.886  0.00  0.00    +0.000 N 
ATOM     17  N   UNL     1       3.995   4.023  17.348  0.00  0.00    +0.000 NA
ATOM     18  C   UNL     1       5.709   7.219  17.640  0.00  0.00    +0.000 C 
ENDBRANCH   3   5
BRANCH   2  19
ATOM     19  C   UNL     1       9.296   9.711  19.233  0.00  0.00    +0.000 C 
BRANCH  19  20
ATOM     20  N   UNL     1       9.844  11.009  18.928  0.00  0.00    +0.000 N 
ATOM     21  N   UNL     1      10.321  11.250  17.689  0.00  0.00    +0.000 NA
ATOM     22  N   UNL     1      10.762  12.500  17.670  0.00  0.00    +0.000 NA
ATOM     23  C   UNL     1      10.550  13.048  18.908  0.00  0.00    +0.000 A 
ATOM     24  C   UNL     1      10.816  14.334  19.398  0.00  0.00    +0.000 A 
ATOM     25  C   UNL     1      10.471  14.629  20.722  0.00  0.00    +0.000 A 
ATOM     26  C   UNL     1       9.886  13.661  21.543  0.00  0.00    +0.000 A 
ATOM     27  C   UNL     1       9.621  12.369  21.073  0.00  0.00    +0.000 A 
ATOM     28  C   UNL     1       9.961  12.102  19.743  0.00  0.00    +0.000 A 
ENDBRANCH  19  20
ENDBRANCH   2  19
TORSDOF 3
ENDMDL
