MODEL 1
REMARK VINA RESULT:      -7.4      0.000      0.000
REMARK  Name = 
REMARK  7 active torsions:
REMARK  status: ('A' for Active; 'I' for Inactive)
REMARK    1  A    between atoms: C_1  and  C_2
REMARK    2  A    between atoms: C_6  and  C_7
REMARK    3  A    between atoms: C_7  and  C_8
REMARK    4  A    between atoms: C_8  and  N_9
REMARK    5  A    between atoms: N_9  and  S_10
REMARK    6  A    between atoms: S_10  and  N_13
REMARK    7  A    between atoms: C_17  and  C_18
REMARK                            x       y       z     vdW  Elec       q    Type
REMARK                         _______ _______ _______ _____ _____    ______ ____
ROOT
ATOM      1  N   UNL     1       5.693   3.461  16.753  0.00  0.00    +0.000 NA
ATOM      2  H   UNL     1       6.301   2.748  16.351  0.00  0.00    +0.000 HD
ENDROOT
BRANCH   1   3
ATOM      3  S   UNL     1       6.259   4.959  16.243  0.00  0.00    +0.000 S 
ATOM      4  O   UNL     1       7.671   4.810  15.982  0.00  0.00    +0.000 OA
ATOM      5  O   UNL     1       5.351   5.425  15.224  0.00  0.00    +0.000 OA
BRANCH   3   6
ATOM      6  N   UNL     1       6.031   5.870  17.635  0.00  0.00    +0.000 NA
ATOM      7  C   UNL     1       6.454   5.300  18.935  0.00  0.00    +0.000 C 
ATOM      8  C   UNL     1       7.916   5.592  19.252  0.00  0.00    +0.000 C 
ATOM      9  C   UNL     1       8.283   7.062  19.060  0.00  0.00    +0.000 C 
ATOM     10  C   UNL     1       7.809   7.590  17.700  0.00  0.00    +0.000 C 
ATOM     11  C   UNL     1       8.100   9.084  17.564  0.00  0.00    +0.000 C 
ATOM     12  C   UNL     1       6.315   7.318  17.525  0.00  0.00    +0.000 C 
ENDBRANCH   3   6
ENDBRANCH   1   3
BRANCH   1  13
ATOM     13  C   UNL     1       4.265   3.211  16.487  0.00  0.00    +0.000 C 
BRANCH  13  14
ATOM     14  C   UNL     1       3.513   3.121  17.812  0.00  0.00    +0.000 C 
BRANCH  14  20
ATOM     15  C   UNL     1       2.274   6.895  19.898  0.00  0.00    +0.000 C 
ATOM     16  C   UNL     1       2.308   5.406  19.569  0.00  0.00    +0.000 C 
ATOM     17  C   UNL     1       1.338   4.609  20.454  0.00  0.00    +0.000 C 
ATOM     18  C   UNL     1       1.312   3.121  20.094  0.00  0.00    +0.000 C 
ATOM     19  C   UNL     1       1.102   2.879  18.598  0.00  0.00    +0.000 C 
ATOM     20  C   UNL     1       2.074   3.680  17.717  0.00  0.00    +0.000 C 
ATOM     21  C   UNL     1       1.972   5.170  18.091  0.00  0.00    +0.000 C 
ENDBRANCH  14  20
ENDBRANCH  13  14
ENDBRANCH   1  13
TORSDOF 5
ENDMDL
MODEL 2
REMARK VINA RESULT:      -7.2      0.854      1.438
REMARK  Name = 
REMARK  7 active torsions:
REMARK  status: ('A' for Active; 'I' for Inactive)
REMARK    1  A    between atoms: C_1  and  C_2
REMARK    2  A    between atoms: C_6  and  C_7
REMARK    3  A    between atoms: C_7  and  C_8
REMARK    4  A    between atoms: C_8  and  N_9
REMARK    5  A    between atoms: N_9  and  S_10
REMARK    6  A    between atoms: S_10  and  N_13
REMARK    7  A    between atoms: C_17  and  C_18
REMARK                            x       y       z     vdW  Elec       q    Type
REMARK                         _______ _______ _______ _____ _____    ______ ____
ROOT
ATOM      1  N   UNL     1       5.796   3.631  16.445  0.00  0.00    +0.000 NA
ATOM      2  H   UNL     1       6.306   2.977  15.851  0.00  0.00    +0.000 HD
ENDROOT
BRANCH   1   3
ATOM      3  S   UNL     1       6.291   5.184  16.035  0.00  0.00    +0.000 S 
ATOM      4  O   UNL     1       7.700   5.112  15.730  0.00  0.00    +0.000 OA
ATOM      5  O   UNL     1       5.339   5.687  15.075  0.00  0.00    +0.000 OA
BRANCH   3   6
ATOM      6  N   UNL     1       6.065   5.980  17.496  0.00  0.00    +0.000 NA
ATOM      7  C   UNL     1       6.519   5.321  18.742  0.00  0.00    +0.000 C 
ATOM      8  C   UNL     1       7.979   5.618  19.061  0.00  0.00    +0.000 C 
ATOM      9  C   UNL     1       8.314   7.106  18.979  0.00  0.00    +0.000 C 
ATOM     10  C   UNL     1       7.810   7.727  17.670  0.00  0.00    +0.000 C 
ATOM     11  C   UNL     1       8.069   9.233  17.645  0.00  0.00    +0.000 C 
ATOM     12  C   UNL     1       6.319   7.438  17.494  0.00  0.00    +0.000 C 
ENDBRANCH   3   6
ENDBRANCH   1   3
BRANCH   1  13
ATOM     13  C   UNL     1       4.338   3.414  16.416  0.00  0.00    +0.000 C 
BRANCH  13  14
ATOM     14  C   UNL     1       3.840   3.141  17.832  0.00  0.00    +0.000 C 
BRANCH  14  20
ATOM     15  C   UNL     1       2.205   3.102  22.010  0.00  0.00    +0.000 C 
ATOM     16  C   UNL     1       2.191   3.077  20.485  0.00  0.00    +0.000 C 
ATOM     17  C   UNL     1       0.761   2.984  19.934  0.00  0.00    +0.000 C 
ATOM     18  C   UNL     1       0.724   3.022  18.404  0.00  0.00    +0.000 C 
ATOM     19  C   UNL     1       1.520   4.192  17.823  0.00  0.00    +0.000 C 
ATOM     20  C   UNL     1       2.950   4.281  18.379  0.00  0.00    +0.000 C 
ATOM     21  C   UNL     1       2.885   4.322  19.916  0.00  0.00    +0.000 C 
ENDBRANCH  14  20
ENDBRANCH  13  14
ENDBRANCH   1  13
TORSDOF 5
ENDMDL
MODEL 3
REMARK VINA RESULT:      -7.0      1.972      2.739
REMARK  Name = 
REMARK  7 active torsions:
REMARK  status: ('A' for Active; 'I' for Inactive)
REMARK    1  A    between atoms: C_1  and  C_2
REMARK    2  A    between atoms: C_6  and  C_7
REMARK    3  A    between atoms: C_7  and  C_8
REMARK    4  A    between atoms: C_8  and  N_9
REMARK    5  A    between atoms: N_9  and  S_10
REMARK    6  A    between atoms: S_10  and  N_13
REMARK    7  A    between atoms: C_17  and  C_18
REMARK                            x       y       z     vdW  Elec       q    Type
REMARK                         _______ _______ _______ _____ _____    ______ ____
ROOT
ATOM      1  N   UNL     1       6.199   3.995  18.185  0.00  0.00    +0.000 NA
ATOM      2  H   UNL     1       5.728   4.236  17.313  0.00  0.00    +0.000 HD
ENDROOT
BRANCH   1   3
ATOM      3  S   UNL     1       7.633   4.869  18.248  0.00  0.00    +0.000 S 
ATOM      4  O   UNL     1       7.629   5.599  19.493  0.00  0.00    +0.000 OA
ATOM      5  O   UNL     1       8.697   3.954  17.916  0.00  0.00    +0.000 OA
BRANCH   3   6
ATOM      6  N   UNL     1       7.408   5.930  16.966  0.00  0.00    +0.000 NA
ATOM      7  C   UNL     1       7.328   5.379  15.593  0.00  0.00    +0.000 C 
ATOM      8  C   UNL     1       5.912   4.967  15.210  0.00  0.00    +0.000 C 
ATOM      9  C   UNL     1       4.876   6.048  15.515  0.00  0.00    +0.000 C 
ATOM     10  C   UNL     1       5.019   6.580  16.946  0.00  0.00    +0.000 C 
ATOM     11  C   UNL     1       4.040   7.724  17.204  0.00  0.00    +0.000 C 
ATOM     12  C   UNL     1       6.456   7.041  17.192  0.00  0.00    +0.000 C 
ENDBRANCH   3   6
ENDBRANCH   1   3
BRANCH   1  13
ATOM     13  C   UNL     1       5.328   4.141  19.366  0.00  0.00    +0.000 C 
BRANCH  13  14
ATOM     14  C   UNL     1       4.279   3.034  19.359  0.00  0.00    +0.000 C 
BRANCH  14  20
ATOM     15  C   UNL     1       1.569   6.398  20.572  0.00  0.00    +0.000 C 
ATOM     16  C   UNL     1       2.002   4.965  20.281  0.00  0.00    +0.000 C 
ATOM     17  C   UNL     1       0.859   3.969  20.521  0.00  0.00    +0.000 C 
ATOM     18  C   UNL     1       1.256   2.532  20.172  0.00  0.00    +0.000 C 
ATOM     19  C   UNL     1       1.877   2.413  18.780  0.00  0.00    +0.000 C 
ATOM     20  C   UNL     1       3.021   3.413  18.544  0.00  0.00    +0.000 C 
ATOM     21  C   UNL     1       2.507   4.834  18.838  0.00  0.00    +0.000 C 
ENDBRANCH  14  20
ENDBRANCH  13  14
ENDBRANCH   1  13
TORSDOF 5
ENDMDL
MODEL 4
REMARK VINA RESULT:      -6.9      3.130      6.186
REMARK  Name = 
REMARK  7 active torsions:
REMARK  status: ('A' for Active; 'I' for Inactive)
REMARK    1  A    between atoms: C_1  and  C_2
REMARK    2  A    between atoms: C_6  and  C_7
REMARK    3  A    between atoms: C_7  and  C_8
REMARK    4  A    between atoms: C_8  and  N_9
REMARK    5  A    between atoms: N_9  and  S_10
REMARK    6  A    between atoms: S_10  and  N_13
REMARK    7  A    between atoms: C_17  and  C_18
REMARK                            x       y       z     vdW  Elec       q    Type
REMARK                         _______ _______ _______ _____ _____    ______ ____
ROOT
ATOM      1  N   UNL     1       6.384   4.030  18.015  0.00  0.00    +0.000 NA
ATOM      2  H   UNL     1       6.902   3.399  18.627  0.00  0.00    +0.000 HD
ENDROOT
BRANCH   1   3
ATOM      3  S   UNL     1       6.015   5.409  18.902  0.00  0.00    +0.000 S 
ATOM      4  O   UNL     1       6.983   5.497  19.969  0.00  0.00    +0.000 OA
ATOM      5  O   UNL     1       5.841   6.483  17.955  0.00  0.00    +0.000 OA
BRANCH   3   6
ATOM      6  N   UNL     1       4.515   4.986  19.528  0.00  0.00    +0.000 NA
ATOM      7  C   UNL     1       3.417   5.978  19.474  0.00  0.00    +0.000 C 
ATOM      8  C   UNL     1       2.639   5.917  18.164  0.00  0.00    +0.000 C 
ATOM      9  C   UNL     1       2.223   4.496  17.787  0.00  0.00    +0.000 C 
ATOM     10  C   UNL     1       3.403   3.520  17.872  0.00  0.00    +0.000 C 
ATOM     11  C   UNL     1       2.950   2.090  17.584  0.00  0.00    +0.000 C 
ATOM     12  C   UNL     1       4.055   3.607  19.252  0.00  0.00    +0.000 C 
ENDBRANCH   3   6
ENDBRANCH   1   3
BRANCH   1  13
ATOM     13  C   UNL     1       7.072   4.279  16.735  0.00  0.00    +0.000 C 
BRANCH  13  14
ATOM     14  C   UNL     1       6.303   3.595  15.609  0.00  0.00    +0.000 C 
BRANCH  14  20
ATOM     15  C   UNL     1       5.326   2.467  11.377  0.00  0.00    +0.000 C 
ATOM     16  C   UNL     1       6.031   3.186  12.523  0.00  0.00    +0.000 C 
ATOM     17  C   UNL     1       7.090   4.171  12.007  0.00  0.00    +0.000 C 
ATOM     18  C   UNL     1       7.762   4.949  13.141  0.00  0.00    +0.000 C 
ATOM     19  C   UNL     1       6.754   5.593  14.094  0.00  0.00    +0.000 C 
ATOM     20  C   UNL     1       5.695   4.603  14.607  0.00  0.00    +0.000 C 
ATOM     21  C   UNL     1       5.015   3.932  13.400  0.00  0.00    +0.000 C 
ENDBRANCH  14  20
ENDBRANCH  13  14
ENDBRANCH   1  13
TORSDOF 5
ENDMDL
MODEL 5
REMARK VINA RESULT:      -6.8      1.055      1.467
REMARK  Name = 
REMARK  7 active torsions:
REMARK  status: ('A' for Active; 'I' for Inactive)
REMARK    1  A    between atoms: C_1  and  C_2
REMARK    2  A    between atoms: C_6  and  C_7
REMARK    3  A    between atoms: C_7  and  C_8
REMARK    4  A    between atoms: C_8  and  N_9
REMARK    5  A    between atoms: N_9  and  S_10
REMARK    6  A    between atoms: S_10  and  N_13
REMARK    7  A    between atoms: C_17  and  C_18
REMARK                            x       y       z     vdW  Elec       q    Type
REMARK                         _______ _______ _______ _____ _____    ______ ____
ROOT
ATOM      1  N   UNL     1       5.822   3.701  16.607  0.00  0.00    +0.000 NA
ATOM      2  H   UNL     1       6.591   3.065  16.394  0.00  0.00    +0.000 HD
ENDROOT
BRANCH   1   3
ATOM      3  S   UNL     1       6.281   5.239  16.110  0.00  0.00    +0.000 S 
ATOM      4  O   UNL     1       7.689   5.180  15.798  0.00  0.00    +0.000 OA
ATOM      5  O   UNL     1       5.312   5.670  15.133  0.00  0.00    +0.000 OA
BRANCH   3   6
ATOM      6  N   UNL     1       6.049   6.108  17.528  0.00  0.00    +0.000 NA
ATOM      7  C   UNL     1       6.436   5.485  18.815  0.00  0.00    +0.000 C 
ATOM      8  C   UNL     1       7.899   5.732  19.166  0.00  0.00    +0.000 C 
ATOM      9  C   UNL     1       8.302   7.199  19.030  0.00  0.00    +0.000 C 
ATOM     10  C   UNL     1       7.864   7.784  17.681  0.00  0.00    +0.000 C 
ATOM     11  C   UNL     1       8.191   9.274  17.600  0.00  0.00    +0.000 C 
ATOM     12  C   UNL     1       6.368   7.552  17.472  0.00  0.00    +0.000 C 
ENDBRANCH   3   6
ENDBRANCH   1   3
BRANCH   1  13
ATOM     13  C   UNL     1       4.529   3.234  16.075  0.00  0.00    +0.000 C 
BRANCH  13  14
ATOM     14  C   UNL     1       3.404   3.718  16.984  0.00  0.00    +0.000 C 
BRANCH  14  20
ATOM     15  C   UNL     1       0.889   4.263  20.659  0.00  0.00    +0.000 C 
ATOM     16  C   UNL     1       2.028   3.742  19.788  0.00  0.00    +0.000 C 
ATOM     17  C   UNL     1       2.950   2.795  20.570  0.00  0.00    +0.000 C 
ATOM     18  C   UNL     1       4.062   2.212  19.695  0.00  0.00    +0.000 C 
ATOM     19  C   UNL     1       3.533   1.602  18.396  0.00  0.00    +0.000 C 
ATOM     20  C   UNL     1       2.609   2.554  17.618  0.00  0.00    +0.000 C 
ATOM     21  C   UNL     1       1.478   3.022  18.550  0.00  0.00    +0.000 C 
ENDBRANCH  14  20
ENDBRANCH  13  14
ENDBRANCH   1  13
TORSDOF 5
ENDMDL
MODEL 6
REMARK VINA RESULT:      -6.8      2.718      7.696
REMARK  Name = 
REMARK  7 active torsions:
REMARK  status: ('A' for Active; 'I' for Inactive)
REMARK    1  A    between atoms: C_1  and  C_2
REMARK    2  A    between atoms: C_6  and  C_7
REMARK    3  A    between atoms: C_7  and  C_8
REMARK    4  A    between atoms: C_8  and  N_9
REMARK    5  A    between atoms: N_9  and  S_10
REMARK    6  A    between atoms: S_10  and  N_13
REMARK    7  A    between atoms: C_17  and  C_18
REMARK                            x       y       z     vdW  Elec       q    Type
REMARK                         _______ _______ _______ _____ _____    ______ ____
ROOT
ATOM      1  N   UNL     1       7.890   7.460  17.070  0.00  0.00    +0.000 NA
ATOM      2  H   UNL     1       8.878   7.387  16.826  0.00  0.00    +0.000 HD
ENDROOT
BRANCH   1   3
ATOM      3  S   UNL     1       7.455   6.041  17.858  0.00  0.00    +0.000 S 
ATOM      4  O   UNL     1       7.871   4.945  17.016  0.00  0.00    +0.000 OA
ATOM      5  O   UNL     1       7.915   6.160  19.220  0.00  0.00    +0.000 OA
BRANCH   3   6
ATOM      6  N   UNL     1       5.781   6.172  17.835  0.00  0.00    +0.000 NA
ATOM      7  C   UNL     1       5.084   6.145  16.528  0.00  0.00    +0.000 C 
ATOM      8  C   UNL     1       4.757   4.729  16.070  0.00  0.00    +0.000 C 
ATOM      9  C   UNL     1       4.086   3.893  17.159  0.00  0.00    +0.000 C 
ATOM     10  C   UNL     1       4.852   3.971  18.485  0.00  0.00    +0.000 C 
ATOM     11  C   UNL     1       4.118   3.208  19.586  0.00  0.00    +0.000 C 
ATOM     12  C   UNL     1       5.051   5.433  18.889  0.00  0.00    +0.000 C 
ENDBRANCH   3   6
ENDBRANCH   1   3
BRANCH   1  13
ATOM     13  C   UNL     1       7.572   8.701  17.800  0.00  0.00    +0.000 C 
BRANCH  13  14
ATOM     14  C   UNL     1       8.867   9.427  18.151  0.00  0.00    +0.000 C 
BRANCH  14  20
ATOM     15  C   UNL     1      11.093  13.061  16.748  0.00  0.00    +0.000 C 
ATOM     16  C   UNL     1      10.636  11.962  17.702  0.00  0.00    +0.000 C 
ATOM     17  C   UNL     1      11.293  12.103  19.083  0.00  0.00    +0.000 C 
ATOM     18  C   UNL     1      10.797  11.048  20.074  0.00  0.00    +0.000 C 
ATOM     19  C   UNL     1       9.271  10.968  20.137  0.00  0.00    +0.000 C 
ATOM     20  C   UNL     1       8.618  10.829  18.753  0.00  0.00    +0.000 C 
ATOM     21  C   UNL     1       9.109  11.977  17.853  0.00  0.00    +0.000 C 
ENDBRANCH  14  20
ENDBRANCH  13  14
ENDBRANCH   1  13
TORSDOF 5
ENDMDL
MODEL 7
REMARK VINA RESULT:      -6.7      3.210      6.525
REMARK  Name = 
REMARK  7 active torsions:
REMARK  status: ('A' for Active; 'I' for Inactive)
REMARK    1  A    between atoms: C_1  and  C_2
REMARK    2  A    between atoms: C_6  and  C_7
REMARK    3  A    between atoms: C_7  and  C_8
REMARK    4  A    between atoms: C_8  and  N_9
REMARK    5  A    between atoms: N_9  and  S_10
REMARK    6  A    between atoms: S_10  and  N_13
REMARK    7  A    between atoms: C_17  and  C_18
REMARK                            x       y       z     vdW  Elec       q    Type
REMARK                         _______ _______ _______ _____ _____    ______ ____
ROOT
ATOM      1  N   UNL     1       5.685   5.124  17.424  0.00  0.00    +0.000 NA
ATOM      2  H   UNL     1       4.838   5.041  16.862  0.00  0.00    +0.000 HD
ENDROOT
BRANCH   1   3
ATOM      3  S   UNL     1       5.288   4.720  19.006  0.00  0.00    +0.000 S 
ATOM      4  O   UNL     1       5.240   3.279  19.075  0.00  0.00    +0.000 OA
ATOM      5  O   UNL     1       6.158   5.486  19.865  0.00  0.00    +0.000 OA
BRANCH   3   6
ATOM      6  N   UNL     1       3.734   5.347  19.107  0.00  0.00    +0.000 NA
ATOM      7  C   UNL     1       2.930   5.460  17.868  0.00  0.00    +0.000 C 
ATOM      8  C   UNL     1       2.156   4.185  17.556  0.00  0.00    +0.000 C 
ATOM      9  C   UNL     1       1.383   3.650  18.760  0.00  0.00    +0.000 C 
ATOM     10  C   UNL     1       2.269   3.566  20.009  0.00  0.00    +0.000 C 
ATOM     11  C   UNL     1       1.458   3.120  21.225  0.00  0.00    +0.000 C 
ATOM     12  C   UNL     1       2.929   4.920  20.274  0.00  0.00    +0.000 C 
ENDBRANCH   3   6
ENDBRANCH   1   3
BRANCH   1  13
ATOM     13  C   UNL     1       6.822   4.377  16.857  0.00  0.00    +0.000 C 
BRANCH  13  14
ATOM     14  C   UNL     1       6.368   3.646  15.597  0.00  0.00    +0.000 C 
BRANCH  14  20
ATOM     15  C   UNL     1       5.430   2.333  11.410  0.00  0.00    +0.000 C 
ATOM     16  C   UNL     1       6.106   3.120  12.528  0.00  0.00    +0.000 C 
ATOM     17  C   UNL     1       7.121   4.130  11.974  0.00  0.00    +0.000 C 
ATOM     18  C   UNL     1       7.763   4.975  13.078  0.00  0.00    +0.000 C 
ATOM     19  C   UNL     1       6.731   5.608  14.013  0.00  0.00    +0.000 C 
ATOM     20  C   UNL     1       5.716   4.593  14.563  0.00  0.00    +0.000 C 
ATOM     21  C   UNL     1       5.062   3.852  13.383  0.00  0.00    +0.000 C 
ENDBRANCH  14  20
ENDBRANCH  13  14
ENDBRANCH   1  13
TORSDOF 5
ENDMDL
MODEL 8
REMARK VINA RESULT:      -6.7      3.110      7.916
REMARK  Name = 
REMARK  7 active torsions:
REMARK  status: ('A' for Active; 'I' for Inactive)
REMARK    1  A    between atoms: C_1  and  C_2
REMARK    2  A    between atoms: C_6  and  C_7
REMARK    3  A    between atoms: C_7  and  C_8
REMARK    4  A    between atoms: C_8  and  N_9
REMARK    5  A    between atoms: N_9  and  S_10
REMARK    6  A    between atoms: S_10  and  N_13
REMARK    7  A    between atoms: C_17  and  C_18
REMARK                            x       y       z     vdW  Elec       q    Type
REMARK                         _______ _______ _______ _____ _____    ______ ____
ROOT
ATOM      1  N   UNL     1       7.384   8.494  17.516  0.00  0.00    +0.000 NA
ATOM      2  H   UNL     1       7.370   8.850  16.560  0.00  0.00    +0.000 HD
ENDROOT
BRANCH   1   3
ATOM      3  S   UNL     1       7.304   6.818  17.436  0.00  0.00    +0.000 S 
ATOM      4  O   UNL     1       7.869   6.427  16.167  0.00  0.00    +0.000 OA
ATOM      5  O   UNL     1       7.830   6.313  18.681  0.00  0.00    +0.000 OA
BRANCH   3   6
ATOM      6  N   UNL     1       5.641   6.586  17.414  0.00  0.00    +0.000 NA
ATOM      7  C   UNL     1       4.974   6.349  16.112  0.00  0.00    +0.000 C 
ATOM      8  C   UNL     1       4.960   4.876  15.723  0.00  0.00    +0.000 C 
ATOM      9  C   UNL     1       4.477   3.967  16.852  0.00  0.00    +0.000 C 
ATOM     10  C   UNL     1       5.200   4.270  18.170  0.00  0.00    +0.000 C 
ATOM     11  C   UNL     1       4.640   3.420  19.309  0.00  0.00    +0.000 C 
ATOM     12  C   UNL     1       5.079   5.757  18.504  0.00  0.00    +0.000 C 
ENDBRANCH   3   6
ENDBRANCH   1   3
BRANCH   1  13
ATOM     13  C   UNL     1       8.508   9.027  18.308  0.00  0.00    +0.000 C 
BRANCH  13  14
ATOM     14  C   UNL     1       8.670  10.516  18.016  0.00  0.00    +0.000 C 
BRANCH  14  20
ATOM     15  C   UNL     1       9.436  12.662  21.881  0.00  0.00    +0.000 C 
ATOM     16  C   UNL     1       9.317  12.460  20.374  0.00  0.00    +0.000 C 
ATOM     17  C   UNL     1       9.660  13.744  19.603  0.00  0.00    +0.000 C 
ATOM     18  C   UNL     1       9.609  13.543  18.086  0.00  0.00    +0.000 C 
ATOM     19  C   UNL     1      10.416  12.329  17.624  0.00  0.00    +0.000 C 
ATOM     20  C   UNL     1      10.071  11.047  18.399  0.00  0.00    +0.000 C 
ATOM     21  C   UNL     1      10.230  11.318  19.906  0.00  0.00    +0.000 C 
ENDBRANCH  14  20
ENDBRANCH  13  14
ENDBRANCH   1  13
TORSDOF 5
ENDMDL
MODEL 9
REMARK VINA RESULT:      -6.6      2.606      5.617
REMARK  Name = 
REMARK  7 active torsions:
REMARK  status: ('A' for Active; 'I' for Inactive)
REMARK    1  A    between atoms: C_1  and  C_2
REMARK    2  A    between atoms: C_6  and  C_7
REMARK    3  A    between atoms: C_7  and  C_8
REMARK    4  A    between atoms: C_8  and  N_9
REMARK    5  A    between atoms: N_9  and  S_10
REMARK    6  A    between atoms: S_10  and  N_13
REMARK    7  A    between atoms: C_17  and  C_18
REMARK                            x       y       z     vdW  Elec       q    Type
REMARK                         _______ _______ _______ _____ _____    ______ ____
ROOT
ATOM      1  N   UNL     1       4.052   3.774  18.142  0.00  0.00    +0.000 NA
ATOM      2  H   UNL     1       4.408   3.490  17.229  0.00  0.00    +0.000 HD
ENDROOT
BRANCH   1   3
ATOM      3  S   UNL     1       2.704   2.828  18.478  0.00  0.00    +0.000 S 
ATOM      4  O   UNL     1       2.407   2.075  17.283  0.00  0.00    +0.000 OA
ATOM      5  O   UNL     1       2.957   2.171  19.738  0.00  0.00    +0.000 OA
BRANCH   3   6
ATOM      6  N   UNL     1       1.539   4.015  18.707  0.00  0.00    +0.000 NA
ATOM      7  C   UNL     1       1.017   4.245  20.074  0.00  0.00    +0.000 C 
ATOM      8  C   UNL     1       1.863   5.238  20.863  0.00  0.00    +0.000 C 
ATOM      9  C   UNL     1       2.162   6.515  20.080  0.00  0.00    +0.000 C 
ATOM     10  C   UNL     1       2.689   6.206  18.674  0.00  0.00    +0.000 C 
ATOM     11  C   UNL     1       2.894   7.491  17.873  0.00  0.00    +0.000 C 
ATOM     12  C   UNL     1       1.723   5.271  17.946  0.00  0.00    +0.000 C 
ENDBRANCH   3   6
ENDBRANCH   1   3
BRANCH   1  13
ATOM     13  C   UNL     1       5.091   3.771  19.188  0.00  0.00    +0.000 C 
BRANCH  13  14
ATOM     14  C   UNL     1       5.771   5.137  19.227  0.00  0.00    +0.000 C 
BRANCH  14  20
ATOM     15  C   UNL     1       7.952   8.794  17.813  0.00  0.00    +0.000 C 
ATOM     16  C   UNL     1       7.297   7.418  17.735  0.00  0.00    +0.000 C 
ATOM     17  C   UNL     1       7.398   6.823  16.323  0.00  0.00    +0.000 C 
ATOM     18  C   UNL     1       6.802   5.415  16.242  0.00  0.00    +0.000 C 
ATOM     19  C   UNL     1       7.339   4.483  17.329  0.00  0.00    +0.000 C 
ATOM     20  C   UNL     1       7.237   5.084  18.741  0.00  0.00    +0.000 C 
ATOM     21  C   UNL     1       7.933   6.457  18.748  0.00  0.00    +0.000 C 
ENDBRANCH  14  20
ENDBRANCH  13  14
ENDBRANCH   1  13
TORSDOF 5
ENDMDL
