MODEL 1
REMARK VINA RESULT:      -7.8      0.000      0.000
REMARK  Name = 
REMARK  7 active torsions:
REMARK  status: ('A' for Active; 'I' for Inactive)
REMARK    1  A    between atoms: C_1  and  N_2
REMARK    2  A    between atoms: N_2  and  C_3
REMARK    3  A    between atoms: N_2  and  C_4
REMARK    4  A    between atoms: C_7  and  C_8
REMARK    5  A    between atoms: C_11  and  C_12
REMARK    6  A    between atoms: C_13  and  C_14
REMARK    7  A    between atoms: N_16  and  O_17
REMARK                            x       y       z     vdW  Elec       q    Type
REMARK                         _______ _______ _______ _____ _____    ______ ____
ROOT
ATOM      1  C   UNL     1       3.873   6.120  17.320  0.00  0.00    +0.000 A 
ATOM      2  C   UNL     1       3.867   4.716  17.259  0.00  0.00    +0.000 A 
ATOM      3  C   UNL     1       4.620   4.019  16.302  0.00  0.00    +0.000 A 
ATOM      4  C   UNL     1       5.387   4.708  15.359  0.00  0.00    +0.000 A 
ATOM      5  C   UNL     1       5.443   6.102  15.439  0.00  0.00    +0.000 A 
ATOM      6  C   UNL     1       4.699   6.792  16.403  0.00  0.00    +0.000 A 
ENDROOT
BRANCH   1  10
ATOM      7  C   UNL     1       1.438   8.331  20.204  0.00  0.00    +0.000 A 
ATOM      8  C   UNL     1       1.736   8.844  18.933  0.00  0.00    +0.000 A 
ATOM      9  C   UNL     1       2.511   8.136  17.996  0.00  0.00    +0.000 A 
ATOM     10  C   UNL     1       3.032   6.870  18.283  0.00  0.00    +0.000 A 
ATOM     11  C   UNL     1       2.726   6.345  19.545  0.00  0.00    +0.000 A 
ATOM     12  C   UNL     1       1.943   7.053  20.471  0.00  0.00    +0.000 A 
BRANCH   7  14
ATOM     13  C   UNL     1      -0.384   9.930  20.696  0.00  0.00    +0.000 C 
ATOM     14  N   UNL     1       0.675   9.030  21.136  0.00  0.00    +0.000 N 
ATOM     15  C   UNL     1       1.172   9.200  22.497  0.00  0.00    +0.000 C 
ENDBRANCH   7  14
ENDBRANCH   1  10
BRANCH   4  16
ATOM     16  C   UNL     1       6.126   3.951  14.338  0.00  0.00    +0.000 C 
ATOM     17  C   UNL     1       5.671   3.770  13.088  0.00  0.00    +0.000 C 
BRANCH  17  18
ATOM     18  C   UNL     1       6.446   2.969  12.113  0.00  0.00    +0.000 C 
ATOM     19  O   UNL     1       7.471   3.361  11.572  0.00  0.00    +0.000 OA
ATOM     20  N   UNL     1       5.902   1.735  11.877  0.00  0.00    +0.000 N 
ATOM     21  H   UNL     1       5.084   1.348  12.332  0.00  0.00    +0.000 HD
BRANCH  20  22
ATOM     22  O   UNL     1       6.607   0.888  10.995  0.00  0.00    +0.000 OA
ATOM     23  H   UNL     1       6.799   1.487  10.241  0.00  0.00    +0.000 HD
ENDBRANCH  20  22
ENDBRANCH  17  18
ENDBRANCH   4  16
TORSDOF 5
ENDMDL
MODEL 2
REMARK VINA RESULT:      -7.7      0.478      1.251
REMARK  Name = 
REMARK  7 active torsions:
REMARK  status: ('A' for Active; 'I' for Inactive)
REMARK    1  A    between atoms: C_1  and  N_2
REMARK    2  A    between atoms: N_2  and  C_3
REMARK    3  A    between atoms: N_2  and  C_4
REMARK    4  A    between atoms: C_7  and  C_8
REMARK    5  A    between atoms: C_11  and  C_12
REMARK    6  A    between atoms: C_13  and  C_14
REMARK    7  A    between atoms: N_16  and  O_17
REMARK                            x       y       z     vdW  Elec       q    Type
REMARK                         _______ _______ _______ _____ _____    ______ ____
ROOT
ATOM      1  C   UNL     1       3.809   6.262  17.382  0.00  0.00    +0.000 A 
ATOM      2  C   UNL     1       3.803   4.856  17.356  0.00  0.00    +0.000 A 
ATOM      3  C   UNL     1       4.549   4.137  16.410  0.00  0.00    +0.000 A 
ATOM      4  C   UNL     1       5.310   4.803  15.446  0.00  0.00    +0.000 A 
ATOM      5  C   UNL     1       5.366   6.198  15.492  0.00  0.00    +0.000 A 
ATOM      6  C   UNL     1       4.629   6.911  16.444  0.00  0.00    +0.000 A 
ENDROOT
BRANCH   1  10
ATOM      7  C   UNL     1       1.301   8.545  20.145  0.00  0.00    +0.000 A 
ATOM      8  C   UNL     1       1.808   7.279  20.473  0.00  0.00    +0.000 A 
ATOM      9  C   UNL     1       2.623   6.542  19.594  0.00  0.00    +0.000 A 
ATOM     10  C   UNL     1       2.974   7.035  18.333  0.00  0.00    +0.000 A 
ATOM     11  C   UNL     1       2.482   8.304  18.004  0.00  0.00    +0.000 A 
ATOM     12  C   UNL     1       1.679   9.039  18.891  0.00  0.00    +0.000 A 
BRANCH   7  14
ATOM     13  C   UNL     1      -0.399   8.593  21.942  0.00  0.00    +0.000 C 
ATOM     14  N   UNL     1       0.491   9.275  21.011  0.00  0.00    +0.000 N 
ATOM     15  C   UNL     1       0.210  10.680  20.727  0.00  0.00    +0.000 C 
ENDBRANCH   7  14
ENDBRANCH   1  10
BRANCH   4  16
ATOM     16  C   UNL     1       6.043   4.022  14.439  0.00  0.00    +0.000 C 
ATOM     17  C   UNL     1       5.665   3.947  13.153  0.00  0.00    +0.000 C 
BRANCH  17  18
ATOM     18  C   UNL     1       6.424   3.116  12.191  0.00  0.00    +0.000 C 
ATOM     19  O   UNL     1       7.451   3.484  11.636  0.00  0.00    +0.000 OA
ATOM     20  N   UNL     1       5.865   1.884  11.985  0.00  0.00    +0.000 N 
ATOM     21  H   UNL     1       5.045   1.517  12.452  0.00  0.00    +0.000 HD
BRANCH  20  22
ATOM     22  O   UNL     1       6.555   1.010  11.117  0.00  0.00    +0.000 OA
ATOM     23  H   UNL     1       6.934   0.354  11.742  0.00  0.00    +0.000 HD
ENDBRANCH  20  22
ENDBRANCH  17  18
ENDBRANCH   4  16
TORSDOF 5
ENDMDL
MODEL 3
REMARK VINA RESULT:      -7.2      2.858      4.876
REMARK  Name = 
REMARK  7 active torsions:
REMARK  status: ('A' for Active; 'I' for Inactive)
REMARK    1  A    between atoms: C_1  and  N_2
REMARK    2  A    between atoms: N_2  and  C_3
REMARK    3  A    between atoms: N_2  and  C_4
REMARK    4  A    between atoms: C_7  and  C_8
REMARK    5  A    between atoms: C_11  and  C_12
REMARK    6  A    between atoms: C_13  and  C_14
REMARK    7  A    between atoms: N_16  and  O_17
REMARK                            x       y       z     vdW  Elec       q    Type
REMARK                         _______ _______ _______ _____ _____    ______ ____
ROOT
ATOM      1  C   UNL     1       1.297   8.752  19.810  0.00  0.00    +0.000 A 
ATOM      2  C   UNL     1       1.687   9.074  18.498  0.00  0.00    +0.000 A 
ATOM      3  C   UNL     1       2.484   8.207  17.736  0.00  0.00    +0.000 A 
ATOM      4  C   UNL     1       2.934   6.997  18.269  0.00  0.00    +0.000 A 
ATOM      5  C   UNL     1       2.513   6.641  19.553  0.00  0.00    +0.000 A 
ATOM      6  C   UNL     1       1.709   7.504  20.306  0.00  0.00    +0.000 A 
ENDROOT
BRANCH   1  10
ATOM      7  C   UNL     1      -0.972  11.520  22.325  0.00  0.00    +0.000 A 
ATOM      8  C   UNL     1      -0.803  11.733  20.949  0.00  0.00    +0.000 A 
ATOM      9  C   UNL     1      -0.082  10.843  20.130  0.00  0.00    +0.000 A 
ATOM     10  C   UNL     1       0.511   9.687  20.650  0.00  0.00    +0.000 A 
ATOM     11  C   UNL     1       0.334   9.462  22.021  0.00  0.00    +0.000 A 
ATOM     12  C   UNL     1      -0.396  10.348  22.829  0.00  0.00    +0.000 A 
BRANCH   7  14
ATOM     13  C   UNL     1      -3.092  12.168  23.424  0.00  0.00    +0.000 C 
ATOM     14  N   UNL     1      -1.682  12.400  23.138  0.00  0.00    +0.000 N 
ATOM     15  C   UNL     1      -1.168  13.747  23.367  0.00  0.00    +0.000 C 
ENDBRANCH   7  14
ENDBRANCH   1  10
BRANCH   4  16
ATOM     16  C   UNL     1       3.808   6.133  17.462  0.00  0.00    +0.000 C 
ATOM     17  C   UNL     1       5.136   6.308  17.378  0.00  0.00    +0.000 C 
BRANCH  17  18
ATOM     18  C   UNL     1       5.960   5.425  16.522  0.00  0.00    +0.000 C 
ATOM     19  O   UNL     1       5.760   4.224  16.391  0.00  0.00    +0.000 OA
ATOM     20  N   UNL     1       6.972   6.087  15.881  0.00  0.00    +0.000 N 
ATOM     21  H   UNL     1       7.150   7.084  15.921  0.00  0.00    +0.000 HD
BRANCH  20  22
ATOM     22  O   UNL     1       7.776   5.326  15.006  0.00  0.00    +0.000 OA
ATOM     23  H   UNL     1       8.071   6.000  14.356  0.00  0.00    +0.000 HD
ENDBRANCH  20  22
ENDBRANCH  17  18
ENDBRANCH   4  16
TORSDOF 5
ENDMDL
MODEL 4
REMARK VINA RESULT:      -7.2      2.969      5.294
REMARK  Name = 
REMARK  7 active torsions:
REMARK  status: ('A' for Active; 'I' for Inactive)
REMARK    1  A    between atoms: C_1  and  N_2
REMARK    2  A    between atoms: N_2  and  C_3
REMARK    3  A    between atoms: N_2  and  C_4
REMARK    4  A    between atoms: C_7  and  C_8
REMARK    5  A    between atoms: C_11  and  C_12
REMARK    6  A    between atoms: C_13  and  C_14
REMARK    7  A    between atoms: N_16  and  O_17
REMARK                            x       y       z     vdW  Elec       q    Type
REMARK                         _______ _______ _______ _____ _____    ______ ____
ROOT
ATOM      1  C   UNL     1       1.100   8.985  20.020  0.00  0.00    +0.000 A 
ATOM      2  C   UNL     1       1.427   9.230  18.675  0.00  0.00    +0.000 A 
ATOM      3  C   UNL     1       2.214   8.333  17.937  0.00  0.00    +0.000 A 
ATOM      4  C   UNL     1       2.716   7.171  18.527  0.00  0.00    +0.000 A 
ATOM      5  C   UNL     1       2.357   6.889  19.848  0.00  0.00    +0.000 A 
ATOM      6  C   UNL     1       1.563   7.781  20.578  0.00  0.00    +0.000 A 
ENDROOT
BRANCH   1  10
ATOM      7  C   UNL     1      -1.232  11.844  22.371  0.00  0.00    +0.000 A 
ATOM      8  C   UNL     1      -0.786  10.628  22.908  0.00  0.00    +0.000 A 
ATOM      9  C   UNL     1      -0.027   9.707  22.162  0.00  0.00    +0.000 A 
ATOM     10  C   UNL     1       0.325   9.955  20.831  0.00  0.00    +0.000 A 
ATOM     11  C   UNL     1      -0.105  11.174  20.293  0.00  0.00    +0.000 A 
ATOM     12  C   UNL     1      -0.852  12.094  21.046  0.00  0.00    +0.000 A 
BRANCH   7  14
ATOM     13  C   UNL     1      -1.364  13.956  23.653  0.00  0.00    +0.000 C 
ATOM     14  N   UNL     1      -1.985  12.757  23.105  0.00  0.00    +0.000 N 
ATOM     15  C   UNL     1      -3.262  12.344  23.681  0.00  0.00    +0.000 C 
ENDBRANCH   7  14
ENDBRANCH   1  10
BRANCH   4  16
ATOM     16  C   UNL     1       3.578   6.277  17.741  0.00  0.00    +0.000 C 
ATOM     17  C   UNL     1       4.796   6.631  17.303  0.00  0.00    +0.000 C 
BRANCH  17  18
ATOM     18  C   UNL     1       5.604   5.697  16.487  0.00  0.00    +0.000 C 
ATOM     19  O   UNL     1       5.304   4.526  16.293  0.00  0.00    +0.000 OA
ATOM     20  N   UNL     1       6.727   6.276  15.960  0.00  0.00    +0.000 N 
ATOM     21  H   UNL     1       6.996   7.248  16.053  0.00  0.00    +0.000 HD
BRANCH  20  22
ATOM     22  O   UNL     1       7.529   5.465  15.127  0.00  0.00    +0.000 OA
ATOM     23  H   UNL     1       6.857   4.985  14.596  0.00  0.00    +0.000 HD
ENDBRANCH  20  22
ENDBRANCH  17  18
ENDBRANCH   4  16
TORSDOF 5
ENDMDL
MODEL 5
REMARK VINA RESULT:      -7.1      6.751     11.124
REMARK  Name = 
REMARK  7 active torsions:
REMARK  status: ('A' for Active; 'I' for Inactive)
REMARK    1  A    between atoms: C_1  and  N_2
REMARK    2  A    between atoms: N_2  and  C_3
REMARK    3  A    between atoms: N_2  and  C_4
REMARK    4  A    between atoms: C_7  and  C_8
REMARK    5  A    between atoms: C_11  and  C_12
REMARK    6  A    between atoms: C_13  and  C_14
REMARK    7  A    between atoms: N_16  and  O_17
REMARK                            x       y       z     vdW  Elec       q    Type
REMARK                         _______ _______ _______ _____ _____    ______ ____
ROOT
ATOM      1  C   UNL     1       1.084   8.898  20.537  0.00  0.00    +0.000 A 
ATOM      2  C   UNL     1       0.288   9.956  20.065  0.00  0.00    +0.000 A 
ATOM      3  C   UNL     1      -0.521  10.708  20.930  0.00  0.00    +0.000 A 
ATOM      4  C   UNL     1      -0.577  10.411  22.294  0.00  0.00    +0.000 A 
ATOM      5  C   UNL     1       0.247   9.395  22.786  0.00  0.00    +0.000 A 
ATOM      6  C   UNL     1       1.061   8.655  21.921  0.00  0.00    +0.000 A 
ENDROOT
BRANCH   1  10
ATOM      7  C   UNL     1       3.514   6.451  17.846  0.00  0.00    +0.000 A 
ATOM      8  C   UNL     1       3.111   5.992  19.109  0.00  0.00    +0.000 A 
ATOM      9  C   UNL     1       2.322   6.769  19.977  0.00  0.00    +0.000 A 
ATOM     10  C   UNL     1       1.893   8.053  19.626  0.00  0.00    +0.000 A 
ATOM     11  C   UNL     1       2.280   8.512  18.360  0.00  0.00    +0.000 A 
ATOM     12  C   UNL     1       3.058   7.727  17.495  0.00  0.00    +0.000 A 
BRANCH   7  14
ATOM     13  C   UNL     1       4.563   4.283  17.279  0.00  0.00    +0.000 C 
ATOM     14  N   UNL     1       4.299   5.687  16.986  0.00  0.00    +0.000 N 
ATOM     15  C   UNL     1       5.187   6.349  16.036  0.00  0.00    +0.000 C 
ENDBRANCH   7  14
ENDBRANCH   1  10
BRANCH   4  16
ATOM     16  C   UNL     1      -1.471  11.186  23.165  0.00  0.00    +0.000 C 
ATOM     17  C   UNL     1      -2.400  12.033  22.695  0.00  0.00    +0.000 C 
BRANCH  17  18
ATOM     18  C   UNL     1      -3.250  12.811  23.624  0.00  0.00    +0.000 C 
ATOM     19  O   UNL     1      -3.155  14.022  23.782  0.00  0.00    +0.000 OA
ATOM     20  N   UNL     1      -4.164  12.042  24.291  0.00  0.00    +0.000 N 
ATOM     21  H   UNL     1      -4.312  11.048  24.163  0.00  0.00    +0.000 HD
BRANCH  20  22
ATOM     22  O   UNL     1      -5.048  12.715  25.162  0.00  0.00    +0.000 OA
ATOM     23  H   UNL     1      -4.491  13.455  25.492  0.00  0.00    +0.000 HD
ENDBRANCH  20  22
ENDBRANCH  17  18
ENDBRANCH   4  16
TORSDOF 5
ENDMDL
MODEL 6
REMARK VINA RESULT:      -7.1      6.716     11.027
REMARK  Name = 
REMARK  7 active torsions:
REMARK  status: ('A' for Active; 'I' for Inactive)
REMARK    1  A    between atoms: C_1  and  N_2
REMARK    2  A    between atoms: N_2  and  C_3
REMARK    3  A    between atoms: N_2  and  C_4
REMARK    4  A    between atoms: C_7  and  C_8
REMARK    5  A    between atoms: C_11  and  C_12
REMARK    6  A    between atoms: C_13  and  C_14
REMARK    7  A    between atoms: N_16  and  O_17
REMARK                            x       y       z     vdW  Elec       q    Type
REMARK                         _______ _______ _______ _____ _____    ______ ____
ROOT
ATOM      1  C   UNL     1       1.136   8.828  20.509  0.00  0.00    +0.000 A 
ATOM      2  C   UNL     1       0.245   9.798  20.018  0.00  0.00    +0.000 A 
ATOM      3  C   UNL     1      -0.574  10.544  20.878  0.00  0.00    +0.000 A 
ATOM      4  C   UNL     1      -0.543  10.330  22.258  0.00  0.00    +0.000 A 
ATOM      5  C   UNL     1       0.374   9.405  22.765  0.00  0.00    +0.000 A 
ATOM      6  C   UNL     1       1.197   8.670  21.905  0.00  0.00    +0.000 A 
ENDROOT
BRANCH   1  10
ATOM      7  C   UNL     1       3.520   6.301  17.851  0.00  0.00    +0.000 A 
ATOM      8  C   UNL     1       3.148   7.607  17.500  0.00  0.00    +0.000 A 
ATOM      9  C   UNL     1       2.389   8.430  18.353  0.00  0.00    +0.000 A 
ATOM     10  C   UNL     1       1.959   7.986  19.608  0.00  0.00    +0.000 A 
ATOM     11  C   UNL     1       2.340   6.688  19.971  0.00  0.00    +0.000 A 
ATOM     12  C   UNL     1       3.107   5.876  19.119  0.00  0.00    +0.000 A 
BRANCH   7  14
ATOM     13  C   UNL     1       4.345   4.048  17.249  0.00  0.00    +0.000 C 
ATOM     14  N   UNL     1       4.268   5.483  17.008  0.00  0.00    +0.000 N 
ATOM     15  C   UNL     1       5.293   6.071  16.151  0.00  0.00    +0.000 C 
ENDBRANCH   7  14
ENDBRANCH   1  10
BRANCH   4  16
ATOM     16  C   UNL     1      -1.448  11.094  23.128  0.00  0.00    +0.000 C 
ATOM     17  C   UNL     1      -2.264  12.057  22.671  0.00  0.00    +0.000 C 
BRANCH  17  18
ATOM     18  C   UNL     1      -3.130  12.816  23.601  0.00  0.00    +0.000 C 
ATOM     19  O   UNL     1      -3.070  14.029  23.752  0.00  0.00    +0.000 OA
ATOM     20  N   UNL     1      -4.016  12.023  24.280  0.00  0.00    +0.000 N 
ATOM     21  H   UNL     1      -4.136  11.025  24.159  0.00  0.00    +0.000 HD
BRANCH  20  22
ATOM     22  O   UNL     1      -4.913  12.676  25.154  0.00  0.00    +0.000 OA
ATOM     23  H   UNL     1      -5.300  13.368  24.575  0.00  0.00    +0.000 HD
ENDBRANCH  20  22
ENDBRANCH  17  18
ENDBRANCH   4  16
TORSDOF 5
ENDMDL
MODEL 7
REMARK VINA RESULT:      -7.1      2.968      5.151
REMARK  Name = 
REMARK  7 active torsions:
REMARK  status: ('A' for Active; 'I' for Inactive)
REMARK    1  A    between atoms: C_1  and  N_2
REMARK    2  A    between atoms: N_2  and  C_3
REMARK    3  A    between atoms: N_2  and  C_4
REMARK    4  A    between atoms: C_7  and  C_8
REMARK    5  A    between atoms: C_11  and  C_12
REMARK    6  A    between atoms: C_13  and  C_14
REMARK    7  A    between atoms: N_16  and  O_17
REMARK                            x       y       z     vdW  Elec       q    Type
REMARK                         _______ _______ _______ _____ _____    ______ ____
ROOT
ATOM      1  C   UNL     1       1.028   9.183  20.057  0.00  0.00    +0.000 A 
ATOM      2  C   UNL     1       1.548   8.000  20.612  0.00  0.00    +0.000 A 
ATOM      3  C   UNL     1       2.323   7.111  19.852  0.00  0.00    +0.000 A 
ATOM      4  C   UNL     1       2.587   7.368  18.505  0.00  0.00    +0.000 A 
ATOM      5  C   UNL     1       2.121   8.564  17.953  0.00  0.00    +0.000 A 
ATOM      6  C   UNL     1       1.357   9.453  18.718  0.00  0.00    +0.000 A 
ENDROOT
BRANCH   1  10
ATOM      7  C   UNL     1      -1.506  11.892  22.375  0.00  0.00    +0.000 A 
ATOM      8  C   UNL     1      -1.284  12.073  21.001  0.00  0.00    +0.000 A 
ATOM      9  C   UNL     1      -0.478  11.200  20.246  0.00  0.00    +0.000 A 
ATOM     10  C   UNL     1       0.154  10.097  20.830  0.00  0.00    +0.000 A 
ATOM     11  C   UNL     1      -0.075   9.903  22.198  0.00  0.00    +0.000 A 
ATOM     12  C   UNL     1      -0.889  10.771  22.943  0.00  0.00    +0.000 A 
BRANCH   7  14
ATOM     13  C   UNL     1      -1.748  13.997  23.652  0.00  0.00    +0.000 C 
ATOM     14  N   UNL     1      -2.300  12.755  23.126  0.00  0.00    +0.000 N 
ATOM     15  C   UNL     1      -3.529  12.259  23.738  0.00  0.00    +0.000 C 
ENDBRANCH   7  14
ENDBRANCH   1  10
BRANCH   4  16
ATOM     16  C   UNL     1       3.362   6.394  17.723  0.00  0.00    +0.000 C 
ATOM     17  C   UNL     1       4.459   6.723  17.022  0.00  0.00    +0.000 C 
BRANCH  17  18
ATOM     18  C   UNL     1       5.178   5.703  16.226  0.00  0.00    +0.000 C 
ATOM     19  O   UNL     1       5.752   5.943  15.171  0.00  0.00    +0.000 OA
ATOM     20  N   UNL     1       5.144   4.457  16.790  0.00  0.00    +0.000 N 
ATOM     21  H   UNL     1       4.724   4.217  17.679  0.00  0.00    +0.000 HD
BRANCH  20  22
ATOM     22  O   UNL     1       5.849   3.435  16.117  0.00  0.00    +0.000 OA
ATOM     23  H   UNL     1       5.126   2.946  15.666  0.00  0.00    +0.000 HD
ENDBRANCH  20  22
ENDBRANCH  17  18
ENDBRANCH   4  16
TORSDOF 5
ENDMDL
MODEL 8
REMARK VINA RESULT:      -7.1      0.578      1.611
REMARK  Name = 
REMARK  7 active torsions:
REMARK  status: ('A' for Active; 'I' for Inactive)
REMARK    1  A    between atoms: C_1  and  N_2
REMARK    2  A    between atoms: N_2  and  C_3
REMARK    3  A    between atoms: N_2  and  C_4
REMARK    4  A    between atoms: C_7  and  C_8
REMARK    5  A    between atoms: C_11  and  C_12
REMARK    6  A    between atoms: C_13  and  C_14
REMARK    7  A    between atoms: N_16  and  O_17
REMARK                            x       y       z     vdW  Elec       q    Type
REMARK                         _______ _______ _______ _____ _____    ______ ____
ROOT
ATOM      1  C   UNL     1       3.611   6.237  17.369  0.00  0.00    +0.000 A 
ATOM      2  C   UNL     1       4.379   6.895  16.392  0.00  0.00    +0.000 A 
ATOM      3  C   UNL     1       5.127   6.181  15.443  0.00  0.00    +0.000 A 
ATOM      4  C   UNL     1       5.146   4.785  15.454  0.00  0.00    +0.000 A 
ATOM      5  C   UNL     1       4.347   4.117  16.386  0.00  0.00    +0.000 A 
ATOM      6  C   UNL     1       3.595   4.833  17.324  0.00  0.00    +0.000 A 
ENDROOT
BRANCH   1  10
ATOM      7  C   UNL     1       1.376   8.430  20.424  0.00  0.00    +0.000 A 
ATOM      8  C   UNL     1       1.834   7.120  20.633  0.00  0.00    +0.000 A 
ATOM      9  C   UNL     1       2.562   6.411  19.659  0.00  0.00    +0.000 A 
ATOM     10  C   UNL     1       2.870   6.978  18.418  0.00  0.00    +0.000 A 
ATOM     11  C   UNL     1       2.427   8.290  18.208  0.00  0.00    +0.000 A 
ATOM     12  C   UNL     1       1.711   8.995  19.188  0.00  0.00    +0.000 A 
BRANCH   7  14
ATOM     13  C   UNL     1      -0.448   8.494  22.094  0.00  0.00    +0.000 C 
ATOM     14  N   UNL     1       0.652   9.133  21.384  0.00  0.00    +0.000 N 
ATOM     15  C   UNL     1       0.699  10.592  21.400  0.00  0.00    +0.000 C 
ENDBRANCH   7  14
ENDBRANCH   1  10
BRANCH   4  16
ATOM     16  C   UNL     1       5.977   4.067  14.477  0.00  0.00    +0.000 C 
ATOM     17  C   UNL     1       5.681   4.004  13.169  0.00  0.00    +0.000 C 
BRANCH  17  18
ATOM     18  C   UNL     1       6.540   3.236  12.239  0.00  0.00    +0.000 C 
ATOM     19  O   UNL     1       7.561   3.681  11.731  0.00  0.00    +0.000 OA
ATOM     20  N   UNL     1       6.079   1.969  12.002  0.00  0.00    +0.000 N 
ATOM     21  H   UNL     1       5.268   1.541  12.430  0.00  0.00    +0.000 HD
BRANCH  20  22
ATOM     22  O   UNL     1       6.867   1.153  11.162  0.00  0.00    +0.000 OA
ATOM     23  H   UNL     1       7.757   1.558  11.254  0.00  0.00    +0.000 HD
ENDBRANCH  20  22
ENDBRANCH  17  18
ENDBRANCH   4  16
TORSDOF 5
ENDMDL
MODEL 9
REMARK VINA RESULT:      -7.0      2.265      4.148
REMARK  Name = 
REMARK  7 active torsions:
REMARK  status: ('A' for Active; 'I' for Inactive)
REMARK    1  A    between atoms: C_1  and  N_2
REMARK    2  A    between atoms: N_2  and  C_3
REMARK    3  A    between atoms: N_2  and  C_4
REMARK    4  A    between atoms: C_7  and  C_8
REMARK    5  A    between atoms: C_11  and  C_12
REMARK    6  A    between atoms: C_13  and  C_14
REMARK    7  A    between atoms: N_16  and  O_17
REMARK                            x       y       z     vdW  Elec       q    Type
REMARK                         _______ _______ _______ _____ _____    ______ ____
ROOT
ATOM      1  C   UNL     1       1.875   8.243  19.546  0.00  0.00    +0.000 A 
ATOM      2  C   UNL     1       2.308   8.565  18.248  0.00  0.00    +0.000 A 
ATOM      3  C   UNL     1       3.074   7.669  17.487  0.00  0.00    +0.000 A 
ATOM      4  C   UNL     1       3.450   6.429  18.009  0.00  0.00    +0.000 A 
ATOM      5  C   UNL     1       2.983   6.075  19.278  0.00  0.00    +0.000 A 
ATOM      6  C   UNL     1       2.210   6.967  20.029  0.00  0.00    +0.000 A 
ENDROOT
BRANCH   1  10
ATOM      7  C   UNL     1      -0.391  11.088  21.976  0.00  0.00    +0.000 A 
ATOM      8  C   UNL     1      -0.119   9.784  22.416  0.00  0.00    +0.000 A 
ATOM      9  C   UNL     1       0.617   8.866  21.645  0.00  0.00    +0.000 A 
ATOM     10  C   UNL     1       1.121   9.205  20.385  0.00  0.00    +0.000 A 
ATOM     11  C   UNL     1       0.865  10.510  19.945  0.00  0.00    +0.000 A 
ATOM     12  C   UNL     1       0.139  11.425  20.725  0.00  0.00    +0.000 A 
BRANCH   7  14
ATOM     13  C   UNL     1      -2.407  11.619  23.309  0.00  0.00    +0.000 C 
ATOM     14  N   UNL     1      -1.122  11.999  22.736  0.00  0.00    +0.000 N 
ATOM     15  C   UNL     1      -0.836  13.426  22.626  0.00  0.00    +0.000 C 
ENDBRANCH   7  14
ENDBRANCH   1  10
BRANCH   4  16
ATOM     16  C   UNL     1       4.293   5.533  17.206  0.00  0.00    +0.000 C 
ATOM     17  C   UNL     1       5.467   5.912  16.675  0.00  0.00    +0.000 C 
BRANCH  17  18
ATOM     18  C   UNL     1       6.257   4.974  15.847  0.00  0.00    +0.000 C 
ATOM     19  O   UNL     1       7.440   4.723  16.041  0.00  0.00    +0.000 OA
ATOM     20  N   UNL     1       5.530   4.404  14.836  0.00  0.00    +0.000 N 
ATOM     21  H   UNL     1       4.542   4.544  14.662  0.00  0.00    +0.000 HD
BRANCH  20  22
ATOM     22  O   UNL     1       6.198   3.459  14.027  0.00  0.00    +0.000 OA
ATOM     23  H   UNL     1       5.778   2.615  14.304  0.00  0.00    +0.000 HD
ENDBRANCH  20  22
ENDBRANCH  17  18
ENDBRANCH   4  16
TORSDOF 5
ENDMDL
