MODEL 1
REMARK VINA RESULT:      -8.2      0.000      0.000
REMARK  Name = 
REMARK  11 active torsions:
REMARK  status: ('A' for Active; 'I' for Inactive)
REMARK    1  A    between atoms: C_1  and  O_2
REMARK    2  A    between atoms: O_2  and  C_3
REMARK    3  A    between atoms: C_5  and  N_6
REMARK    4  A    between atoms: C_13  and  C_14
REMARK    5  A    between atoms: C_17  and  N_18
REMARK    6  A    between atoms: N_18  and  S_19
REMARK    7  A    between atoms: S_19  and  C_20
REMARK    8  A    between atoms: C_28  and  O_29
REMARK    9  A    between atoms: O_29  and  C_30
REMARK   10  A    between atoms: C_31  and  O_32
REMARK   11  A    between atoms: O_32  and  C_33
REMARK                            x       y       z     vdW  Elec       q    Type
REMARK                         _______ _______ _______ _____ _____    ______ ____
ROOT
ATOM      1  N   UNL     1       4.584   3.107  16.531  0.00  0.00    +0.000 N 
ATOM      2  C   UNL     1       3.811   3.357  17.603  0.00  0.00    +0.000 A 
ATOM      3  N   UNL     1       3.271   2.363  18.264  0.00  0.00    +0.000 NA
ATOM      4  C   UNL     1       2.560   2.956  19.253  0.00  0.00    +0.000 A 
ATOM      5  C   UNL     1       1.810   2.326  20.252  0.00  0.00    +0.000 A 
ATOM      6  C   UNL     1       1.141   3.119  21.166  0.00  0.00    +0.000 A 
ATOM      7  C   UNL     1       1.204   4.511  21.056  0.00  0.00    +0.000 A 
ATOM      8  C   UNL     1       1.952   5.206  20.055  0.00  0.00    +0.000 A 
ATOM      9  C   UNL     1       2.634   4.349  19.163  0.00  0.00    +0.000 A 
ATOM     10  O   UNL     1       3.472   4.612  18.075  0.00  0.00    +0.000 OA
ATOM     11  H   UNL     1       4.605   2.110  16.349  0.00  0.00    +0.000 HD
ENDROOT
BRANCH   1  14
ATOM     12  C   UNL     1       6.607   4.036  13.550  0.00  0.00    +0.000 A 
ATOM     13  C   UNL     1       5.729   3.392  14.439  0.00  0.00    +0.000 A 
ATOM     14  C   UNL     1       5.540   3.800  15.779  0.00  0.00    +0.000 A 
ATOM     15  C   UNL     1       6.302   4.861  16.227  0.00  0.00    +0.000 A 
ATOM     16  C   UNL     1       7.215   5.511  15.368  0.00  0.00    +0.000 A 
ATOM     17  C   UNL     1       7.392   5.100  14.023  0.00  0.00    +0.000 A 
BRANCH  12  19
ATOM     18  C   UNL     1       5.824   2.615  11.802  0.00  0.00    +0.000 C 
ATOM     19  O   UNL     1       6.742   3.616  12.247  0.00  0.00    +0.000 OA
ENDBRANCH  12  19
BRANCH  16  20
ATOM     20  O   UNL     1       7.910   6.512  16.008  0.00  0.00    +0.000 OA
ATOM     21  C   UNL     1       7.514   6.828  17.338  0.00  0.00    +0.000 C 
ENDBRANCH  16  20
BRANCH  17  22
ATOM     22  O   UNL     1       8.333   5.802  13.322  0.00  0.00    +0.000 OA
ATOM     23  C   UNL     1       8.143   6.212  11.979  0.00  0.00    +0.000 C 
ENDBRANCH  17  22
ENDBRANCH   1  14
BRANCH   8  24
ATOM     24  C   UNL     1       1.850   6.680  20.000  0.00  0.00    +0.000 A 
ATOM     25  C   UNL     1       1.290   7.393  21.093  0.00  0.00    +0.000 A 
ATOM     26  C   UNL     1       0.926   8.740  21.003  0.00  0.00    +0.000 A 
ATOM     27  C   UNL     1       1.173   9.438  19.829  0.00  0.00    +0.000 A 
ATOM     28  C   UNL     1       1.791   8.792  18.761  0.00  0.00    +0.000 A 
ATOM     29  C   UNL     1       2.121   7.425  18.844  0.00  0.00    +0.000 A 
BRANCH  27  30
ATOM     30  N   UNL     1       0.764  10.793  19.716  0.00  0.00    +0.000 N 
ATOM     31  H   UNL     1       1.413  11.462  19.307  0.00  0.00    +0.000 HD
BRANCH  30  32
ATOM     32  S   UNL     1      -0.852  11.167  19.484  0.00  0.00    +0.000 S 
ATOM     33  C   UNL     1      -0.806  12.625  18.449  0.00  0.00    +0.000 C 
ATOM     34  O   UNL     1      -1.482  10.100  18.741  0.00  0.00    +0.000 OA
ATOM     35  O   UNL     1      -1.350  11.578  20.780  0.00  0.00    +0.000 OA
ENDBRANCH  30  32
ENDBRANCH  27  30
ENDBRANCH   8  24
TORSDOF 7
ENDMDL
MODEL 2
REMARK VINA RESULT:      -8.2      0.194      2.298
REMARK  Name = 
REMARK  11 active torsions:
REMARK  status: ('A' for Active; 'I' for Inactive)
REMARK    1  A    between atoms: C_1  and  O_2
REMARK    2  A    between atoms: O_2  and  C_3
REMARK    3  A    between atoms: C_5  and  N_6
REMARK    4  A    between atoms: C_13  and  C_14
REMARK    5  A    between atoms: C_17  and  N_18
REMARK    6  A    between atoms: N_18  and  S_19
REMARK    7  A    between atoms: S_19  and  C_20
REMARK    8  A    between atoms: C_28  and  O_29
REMARK    9  A    between atoms: O_29  and  C_30
REMARK   10  A    between atoms: C_31  and  O_32
REMARK   11  A    between atoms: O_32  and  C_33
REMARK                            x       y       z     vdW  Elec       q    Type
REMARK                         _______ _______ _______ _____ _____    ______ ____
ROOT
ATOM      1  N   UNL     1       4.538   3.031  16.511  0.00  0.00    +0.000 N 
ATOM      2  C   UNL     1       3.813   3.336  17.601  0.00  0.00    +0.000 A 
ATOM      3  N   UNL     1       3.312   2.377  18.341  0.00  0.00    +0.000 NA
ATOM      4  C   UNL     1       2.642   3.020  19.327  0.00  0.00    +0.000 A 
ATOM      5  C   UNL     1       1.944   2.443  20.394  0.00  0.00    +0.000 A 
ATOM      6  C   UNL     1       1.311   3.282  21.292  0.00  0.00    +0.000 A 
ATOM      7  C   UNL     1       1.356   4.665  21.102  0.00  0.00    +0.000 A 
ATOM      8  C   UNL     1       2.051   5.307  20.030  0.00  0.00    +0.000 A 
ATOM      9  C   UNL     1       2.699   4.406  19.157  0.00  0.00    +0.000 A 
ATOM     10  O   UNL     1       3.485   4.614  18.019  0.00  0.00    +0.000 OA
ATOM     11  H   UNL     1       4.559   2.026  16.384  0.00  0.00    +0.000 HD
ENDROOT
BRANCH   1  14
ATOM     12  C   UNL     1       7.172   5.471  15.534  0.00  0.00    +0.000 A 
ATOM     13  C   UNL     1       6.178   4.764  16.233  0.00  0.00    +0.000 A 
ATOM     14  C   UNL     1       5.452   3.687  15.678  0.00  0.00    +0.000 A 
ATOM     15  C   UNL     1       5.720   3.359  14.363  0.00  0.00    +0.000 A 
ATOM     16  C   UNL     1       6.691   4.069  13.623  0.00  0.00    +0.000 A 
ATOM     17  C   UNL     1       7.421   5.143  14.192  0.00  0.00    +0.000 A 
BRANCH  12  19
ATOM     18  C   UNL     1       7.389   6.946  17.395  0.00  0.00    +0.000 C 
ATOM     19  O   UNL     1       7.868   6.500  16.125  0.00  0.00    +0.000 OA
ENDBRANCH  12  19
BRANCH  16  20
ATOM     20  O   UNL     1       6.783   3.624  12.323  0.00  0.00    +0.000 OA
ATOM     21  C   UNL     1       5.809   2.683  11.889  0.00  0.00    +0.000 C 
ENDBRANCH  16  20
BRANCH  17  22
ATOM     22  O   UNL     1       8.303   5.756  13.346  0.00  0.00    +0.000 OA
ATOM     23  C   UNL     1       7.967   6.121  12.019  0.00  0.00    +0.000 C 
ENDBRANCH  17  22
ENDBRANCH   1  14
BRANCH   8  24
ATOM     24  C   UNL     1       1.935   6.776  19.899  0.00  0.00    +0.000 A 
ATOM     25  C   UNL     1       1.360   7.539  20.949  0.00  0.00    +0.000 A 
ATOM     26  C   UNL     1       0.983   8.875  20.787  0.00  0.00    +0.000 A 
ATOM     27  C   UNL     1       1.229   9.513  19.581  0.00  0.00    +0.000 A 
ATOM     28  C   UNL     1       1.862   8.820  18.552  0.00  0.00    +0.000 A 
ATOM     29  C   UNL     1       2.205   7.463  18.707  0.00  0.00    +0.000 A 
BRANCH  27  30
ATOM     30  N   UNL     1       0.808  10.857  19.395  0.00  0.00    +0.000 N 
ATOM     31  H   UNL     1       1.436  11.501  18.920  0.00  0.00    +0.000 HD
BRANCH  30  32
ATOM     32  S   UNL     1      -0.819  11.207  19.198  0.00  0.00    +0.000 S 
ATOM     33  C   UNL     1      -0.815  12.756  18.305  0.00  0.00    +0.000 C 
ATOM     34  O   UNL     1      -1.422  10.198  18.359  0.00  0.00    +0.000 OA
ATOM     35  O   UNL     1      -1.324  11.482  20.528  0.00  0.00    +0.000 OA
ENDBRANCH  30  32
ENDBRANCH  27  30
ENDBRANCH   8  24
TORSDOF 7
ENDMDL
MODEL 3
REMARK VINA RESULT:      -7.9      1.143      1.273
REMARK  Name = 
REMARK  11 active torsions:
REMARK  status: ('A' for Active; 'I' for Inactive)
REMARK    1  A    between atoms: C_1  and  O_2
REMARK    2  A    between atoms: O_2  and  C_3
REMARK    3  A    between atoms: C_5  and  N_6
REMARK    4  A    between atoms: C_13  and  C_14
REMARK    5  A    between atoms: C_17  and  N_18
REMARK    6  A    between atoms: N_18  and  S_19
REMARK    7  A    between atoms: S_19  and  C_20
REMARK    8  A    between atoms: C_28  and  O_29
REMARK    9  A    between atoms: O_29  and  C_30
REMARK   10  A    between atoms: C_31  and  O_32
REMARK   11  A    between atoms: O_32  and  C_33
REMARK                            x       y       z     vdW  Elec       q    Type
REMARK                         _______ _______ _______ _____ _____    ______ ____
ROOT
ATOM      1  N   UNL     1       4.775   3.174  16.804  0.00  0.00    +0.000 N 
ATOM      2  C   UNL     1       4.006   3.478  17.863  0.00  0.00    +0.000 A 
ATOM      3  N   UNL     1       3.546   2.521  18.633  0.00  0.00    +0.000 NA
ATOM      4  C   UNL     1       2.813   3.161  19.575  0.00  0.00    +0.000 A 
ATOM      5  C   UNL     1       2.126   2.586  20.649  0.00  0.00    +0.000 A 
ATOM      6  C   UNL     1       1.420   3.420  21.495  0.00  0.00    +0.000 A 
ATOM      7  C   UNL     1       1.384   4.794  21.248  0.00  0.00    +0.000 A 
ATOM      8  C   UNL     1       2.065   5.434  20.165  0.00  0.00    +0.000 A 
ATOM      9  C   UNL     1       2.789   4.540  19.346  0.00  0.00    +0.000 A 
ATOM     10  O   UNL     1       3.588   4.748  18.218  0.00  0.00    +0.000 OA
ATOM     11  H   UNL     1       4.862   2.167  16.720  0.00  0.00    +0.000 HD
ENDROOT
BRANCH   1  14
ATOM     12  C   UNL     1       6.606   3.993  13.670  0.00  0.00    +0.000 A 
ATOM     13  C   UNL     1       5.797   3.375  14.639  0.00  0.00    +0.000 A 
ATOM     14  C   UNL     1       5.668   3.850  15.964  0.00  0.00    +0.000 A 
ATOM     15  C   UNL     1       6.420   4.955  16.313  0.00  0.00    +0.000 A 
ATOM     16  C   UNL     1       7.266   5.582  15.371  0.00  0.00    +0.000 A 
ATOM     17  C   UNL     1       7.382   5.103  14.041  0.00  0.00    +0.000 A 
BRANCH  12  19
ATOM     18  C   UNL     1       5.474   2.988  11.827  0.00  0.00    +0.000 C 
ATOM     19  O   UNL     1       6.683   3.507  12.386  0.00  0.00    +0.000 OA
ENDBRANCH  12  19
BRANCH  16  20
ATOM     20  O   UNL     1       7.963   6.635  15.917  0.00  0.00    +0.000 OA
ATOM     21  C   UNL     1       7.540   7.101  17.193  0.00  0.00    +0.000 C 
ENDBRANCH  16  20
BRANCH  17  22
ATOM     22  O   UNL     1       8.263   5.790  13.253  0.00  0.00    +0.000 OA
ATOM     23  C   UNL     1       7.965   6.174  11.922  0.00  0.00    +0.000 C 
ENDBRANCH  17  22
ENDBRANCH   1  14
BRANCH   8  24
ATOM     24  C   UNL     1       1.861   6.886  19.968  0.00  0.00    +0.000 A 
ATOM     25  C   UNL     1       1.187   7.648  20.957  0.00  0.00    +0.000 A 
ATOM     26  C   UNL     1       0.733   8.950  20.723  0.00  0.00    +0.000 A 
ATOM     27  C   UNL     1       0.998   9.556  19.504  0.00  0.00    +0.000 A 
ATOM     28  C   UNL     1       1.724   8.868  18.535  0.00  0.00    +0.000 A 
ATOM     29  C   UNL     1       2.146   7.543  18.762  0.00  0.00    +0.000 A 
BRANCH  27  30
ATOM     30  N   UNL     1       0.501  10.860  19.243  0.00  0.00    +0.000 N 
ATOM     31  H   UNL     1      -0.487  11.044  19.405  0.00  0.00    +0.000 HD
BRANCH  30  32
ATOM     32  S   UNL     1       1.493  12.194  19.448  0.00  0.00    +0.000 S 
ATOM     33  C   UNL     1       0.449  13.574  18.996  0.00  0.00    +0.000 C 
ATOM     34  O   UNL     1       1.835  12.319  20.846  0.00  0.00    +0.000 OA
ATOM     35  O   UNL     1       2.517  12.081  18.430  0.00  0.00    +0.000 OA
ENDBRANCH  30  32
ENDBRANCH  27  30
ENDBRANCH   8  24
TORSDOF 7
ENDMDL
MODEL 4
REMARK VINA RESULT:      -7.8      4.483      6.701
REMARK  Name = 
REMARK  11 active torsions:
REMARK  status: ('A' for Active; 'I' for Inactive)
REMARK    1  A    between atoms: C_1  and  O_2
REMARK    2  A    between atoms: O_2  and  C_3
REMARK    3  A    between atoms: C_5  and  N_6
REMARK    4  A    between atoms: C_13  and  C_14
REMARK    5  A    between atoms: C_17  and  N_18
REMARK    6  A    between atoms: N_18  and  S_19
REMARK    7  A    between atoms: S_19  and  C_20
REMARK    8  A    between atoms: C_28  and  O_29
REMARK    9  A    between atoms: O_29  and  C_30
REMARK   10  A    between atoms: C_31  and  O_32
REMARK   11  A    between atoms: O_32  and  C_33
REMARK                            x       y       z     vdW  Elec       q    Type
REMARK                         _______ _______ _______ _____ _____    ______ ____
ROOT
ATOM      1  N   UNL     1       8.409   8.863  17.385  0.00  0.00    +0.000 N 
ATOM      2  C   UNL     1       7.453   7.920  17.328  0.00  0.00    +0.000 A 
ATOM      3  N   UNL     1       7.680   6.796  16.694  0.00  0.00    +0.000 NA
ATOM      4  C   UNL     1       6.528   6.094  16.818  0.00  0.00    +0.000 A 
ATOM      5  C   UNL     1       6.262   4.810  16.329  0.00  0.00    +0.000 A 
ATOM      6  C   UNL     1       5.008   4.273  16.551  0.00  0.00    +0.000 A 
ATOM      7  C   UNL     1       4.039   5.023  17.223  0.00  0.00    +0.000 A 
ATOM      8  C   UNL     1       4.256   6.338  17.740  0.00  0.00    +0.000 A 
ATOM      9  C   UNL     1       5.560   6.829  17.507  0.00  0.00    +0.000 A 
ATOM     10  O   UNL     1       6.178   8.034  17.854  0.00  0.00    +0.000 OA
ATOM     11  H   UNL     1       9.218   8.564  16.850  0.00  0.00    +0.000 HD
ENDROOT
BRANCH   1  14
ATOM     12  C   UNL     1       8.838  12.472  18.184  0.00  0.00    +0.000 A 
ATOM     13  C   UNL     1       8.647  11.250  17.515  0.00  0.00    +0.000 A 
ATOM     14  C   UNL     1       8.683   9.994  18.163  0.00  0.00    +0.000 A 
ATOM     15  C   UNL     1       8.966   9.991  19.515  0.00  0.00    +0.000 A 
ATOM     16  C   UNL     1       9.193  11.199  20.210  0.00  0.00    +0.000 A 
ATOM     17  C   UNL     1       9.146  12.455  19.553  0.00  0.00    +0.000 A 
BRANCH  12  19
ATOM     18  C   UNL     1       7.542  14.391  17.615  0.00  0.00    +0.000 C 
ATOM     19  O   UNL     1       8.773  13.671  17.514  0.00  0.00    +0.000 OA
ENDBRANCH  12  19
BRANCH  16  20
ATOM     20  O   UNL     1       9.502  10.988  21.534  0.00  0.00    +0.000 OA
ATOM     21  C   UNL     1       8.526  11.369  22.497  0.00  0.00    +0.000 C 
ENDBRANCH  16  20
BRANCH  17  22
ATOM     22  O   UNL     1       9.418  13.534  20.347  0.00  0.00    +0.000 OA
ATOM     23  C   UNL     1      10.712  14.104  20.452  0.00  0.00    +0.000 C 
ENDBRANCH  17  22
ENDBRANCH   1  14
BRANCH   8  24
ATOM     24  C   UNL     1       3.111   7.052  18.346  0.00  0.00    +0.000 A 
ATOM     25  C   UNL     1       2.602   8.226  17.732  0.00  0.00    +0.000 A 
ATOM     26  C   UNL     1       1.709   9.085  18.379  0.00  0.00    +0.000 A 
ATOM     27  C   UNL     1       1.244   8.760  19.645  0.00  0.00    +0.000 A 
ATOM     28  C   UNL     1       1.661   7.577  20.249  0.00  0.00    +0.000 A 
ATOM     29  C   UNL     1       2.591   6.734  19.609  0.00  0.00    +0.000 A 
BRANCH  27  30
ATOM     30  N   UNL     1       0.372   9.651  20.325  0.00  0.00    +0.000 N 
ATOM     31  H   UNL     1      -0.408  10.053  19.811  0.00  0.00    +0.000 HD
BRANCH  30  32
ATOM     32  S   UNL     1       0.094   9.464  21.966  0.00  0.00    +0.000 S 
ATOM     33  C   UNL     1      -0.854  10.916  22.405  0.00  0.00    +0.000 C 
ATOM     34  O   UNL     1      -0.733   8.299  22.176  0.00  0.00    +0.000 OA
ATOM     35  O   UNL     1       1.390   9.592  22.601  0.00  0.00    +0.000 OA
ENDBRANCH  30  32
ENDBRANCH  27  30
ENDBRANCH   8  24
TORSDOF 7
ENDMDL
MODEL 5
REMARK VINA RESULT:      -7.6      1.321      2.643
REMARK  Name = 
REMARK  11 active torsions:
REMARK  status: ('A' for Active; 'I' for Inactive)
REMARK    1  A    between atoms: C_1  and  O_2
REMARK    2  A    between atoms: O_2  and  C_3
REMARK    3  A    between atoms: C_5  and  N_6
REMARK    4  A    between atoms: C_13  and  C_14
REMARK    5  A    between atoms: C_17  and  N_18
REMARK    6  A    between atoms: N_18  and  S_19
REMARK    7  A    between atoms: S_19  and  C_20
REMARK    8  A    between atoms: C_28  and  O_29
REMARK    9  A    between atoms: O_29  and  C_30
REMARK   10  A    between atoms: C_31  and  O_32
REMARK   11  A    between atoms: O_32  and  C_33
REMARK                            x       y       z     vdW  Elec       q    Type
REMARK                         _______ _______ _______ _____ _____    ______ ____
ROOT
ATOM      1  N   UNL     1       4.731   3.171  16.684  0.00  0.00    +0.000 N 
ATOM      2  C   UNL     1       3.994   3.510  17.756  0.00  0.00    +0.000 A 
ATOM      3  N   UNL     1       3.563   2.580  18.573  0.00  0.00    +0.000 NA
ATOM      4  C   UNL     1       2.858   3.252  19.514  0.00  0.00    +0.000 A 
ATOM      5  C   UNL     1       2.207   2.713  20.630  0.00  0.00    +0.000 A 
ATOM      6  C   UNL     1       1.524   3.575  21.468  0.00  0.00    +0.000 A 
ATOM      7  C   UNL     1       1.475   4.939  21.172  0.00  0.00    +0.000 A 
ATOM      8  C   UNL     1       2.118   5.542  20.046  0.00  0.00    +0.000 A 
ATOM      9  C   UNL     1       2.820   4.621  19.238  0.00  0.00    +0.000 A 
ATOM     10  O   UNL     1       3.583   4.792  18.078  0.00  0.00    +0.000 OA
ATOM     11  H   UNL     1       4.819   2.162  16.634  0.00  0.00    +0.000 HD
ENDROOT
BRANCH   1  14
ATOM     12  C   UNL     1       7.267   5.634  15.521  0.00  0.00    +0.000 A 
ATOM     13  C   UNL     1       6.320   4.928  16.284  0.00  0.00    +0.000 A 
ATOM     14  C   UNL     1       5.594   3.819  15.793  0.00  0.00    +0.000 A 
ATOM     15  C   UNL     1       5.811   3.457  14.477  0.00  0.00    +0.000 A 
ATOM     16  C   UNL     1       6.734   4.164  13.675  0.00  0.00    +0.000 A 
ATOM     17  C   UNL     1       7.464   5.270  14.180  0.00  0.00    +0.000 A 
BRANCH  12  19
ATOM     18  C   UNL     1       7.530   7.171  17.325  0.00  0.00    +0.000 C 
ATOM     19  O   UNL     1       7.965   6.694  16.050  0.00  0.00    +0.000 OA
ENDBRANCH  12  19
BRANCH  16  20
ATOM     20  O   UNL     1       6.779   3.682  12.386  0.00  0.00    +0.000 OA
ATOM     21  C   UNL     1       5.697   2.863  11.962  0.00  0.00    +0.000 C 
ENDBRANCH  16  20
BRANCH  17  22
ATOM     22  O   UNL     1       8.295   5.875  13.278  0.00  0.00    +0.000 OA
ATOM     23  C   UNL     1       7.943   6.069  11.919  0.00  0.00    +0.000 C 
ENDBRANCH  17  22
ENDBRANCH   1  14
BRANCH   8  24
ATOM     24  C   UNL     1       1.902   6.985  19.804  0.00  0.00    +0.000 A 
ATOM     25  C   UNL     1       1.392   7.810  20.840  0.00  0.00    +0.000 A 
ATOM     26  C   UNL     1       0.921   9.105  20.606  0.00  0.00    +0.000 A 
ATOM     27  C   UNL     1       1.007   9.643  19.330  0.00  0.00    +0.000 A 
ATOM     28  C   UNL     1       1.574   8.893  18.303  0.00  0.00    +0.000 A 
ATOM     29  C   UNL     1       2.011   7.573  18.536  0.00  0.00    +0.000 A 
BRANCH  27  30
ATOM     30  N   UNL     1       0.490  10.941  19.077  0.00  0.00    +0.000 N 
ATOM     31  H   UNL     1      -0.374  11.218  19.538  0.00  0.00    +0.000 HD
BRANCH  30  32
ATOM     32  S   UNL     1       1.532  12.210  18.746  0.00  0.00    +0.000 S 
ATOM     33  C   UNL     1       2.109  12.719  20.360  0.00  0.00    +0.000 C 
ATOM     34  O   UNL     1       2.660  11.712  17.994  0.00  0.00    +0.000 OA
ATOM     35  O   UNL     1       0.698  13.278  18.233  0.00  0.00    +0.000 OA
ENDBRANCH  30  32
ENDBRANCH  27  30
ENDBRANCH   8  24
TORSDOF 7
ENDMDL
MODEL 6
REMARK VINA RESULT:      -7.5      0.891      2.629
REMARK  Name = 
REMARK  11 active torsions:
REMARK  status: ('A' for Active; 'I' for Inactive)
REMARK    1  A    between atoms: C_1  and  O_2
REMARK    2  A    between atoms: O_2  and  C_3
REMARK    3  A    between atoms: C_5  and  N_6
REMARK    4  A    between atoms: C_13  and  C_14
REMARK    5  A    between atoms: C_17  and  N_18
REMARK    6  A    between atoms: N_18  and  S_19
REMARK    7  A    between atoms: S_19  and  C_20
REMARK    8  A    between atoms: C_28  and  O_29
REMARK    9  A    between atoms: O_29  and  C_30
REMARK   10  A    between atoms: C_31  and  O_32
REMARK   11  A    between atoms: O_32  and  C_33
REMARK                            x       y       z     vdW  Elec       q    Type
REMARK                         _______ _______ _______ _____ _____    ______ ____
ROOT
ATOM      1  N   UNL     1       4.857   2.911  16.838  0.00  0.00    +0.000 N 
ATOM      2  C   UNL     1       4.138   3.209  17.934  0.00  0.00    +0.000 A 
ATOM      3  N   UNL     1       3.856   2.271  18.805  0.00  0.00    +0.000 NA
ATOM      4  C   UNL     1       3.125   2.897  19.757  0.00  0.00    +0.000 A 
ATOM      5  C   UNL     1       2.594   2.335  20.924  0.00  0.00    +0.000 A 
ATOM      6  C   UNL     1       1.859   3.148  21.765  0.00  0.00    +0.000 A 
ATOM      7  C   UNL     1       1.640   4.485  21.425  0.00  0.00    +0.000 A 
ATOM      8  C   UNL     1       2.156   5.110  20.247  0.00  0.00    +0.000 A 
ATOM      9  C   UNL     1       2.918   4.241  19.435  0.00  0.00    +0.000 A 
ATOM     10  O   UNL     1       3.600   4.448  18.232  0.00  0.00    +0.000 OA
ATOM     11  H   UNL     1       5.057   1.917  16.818  0.00  0.00    +0.000 HD
ENDROOT
BRANCH   1  14
ATOM     12  C   UNL     1       7.167   5.498  15.488  0.00  0.00    +0.000 A 
ATOM     13  C   UNL     1       6.332   4.737  16.325  0.00  0.00    +0.000 A 
ATOM     14  C   UNL     1       5.596   3.615  15.880  0.00  0.00    +0.000 A 
ATOM     15  C   UNL     1       5.684   3.297  14.538  0.00  0.00    +0.000 A 
ATOM     16  C   UNL     1       6.490   4.060  13.664  0.00  0.00    +0.000 A 
ATOM     17  C   UNL     1       7.231   5.178  14.122  0.00  0.00    +0.000 A 
BRANCH  12  19
ATOM     18  C   UNL     1       7.525   7.036  17.275  0.00  0.00    +0.000 C 
ATOM     19  O   UNL     1       7.881   6.569  15.972  0.00  0.00    +0.000 OA
ENDBRANCH  12  19
BRANCH  16  20
ATOM     20  O   UNL     1       6.413   3.615  12.364  0.00  0.00    +0.000 OA
ATOM     21  C   UNL     1       5.231   2.920  11.985  0.00  0.00    +0.000 C 
ENDBRANCH  16  20
BRANCH  17  22
ATOM     22  O   UNL     1       7.940   5.838  13.157  0.00  0.00    +0.000 OA
ATOM     23  C   UNL     1       9.354   5.795  13.078  0.00  0.00    +0.000 C 
ENDBRANCH  17  22
ENDBRANCH   1  14
BRANCH   8  24
ATOM     24  C   UNL     1       1.765   6.508  19.965  0.00  0.00    +0.000 A 
ATOM     25  C   UNL     1       2.115   7.106  18.726  0.00  0.00    +0.000 A 
ATOM     26  C   UNL     1       2.012   8.483  18.501  0.00  0.00    +0.000 A 
ATOM     27  C   UNL     1       1.492   9.300  19.494  0.00  0.00    +0.000 A 
ATOM     28  C   UNL     1       1.065   8.739  20.695  0.00  0.00    +0.000 A 
ATOM     29  C   UNL     1       1.207   7.357  20.931  0.00  0.00    +0.000 A 
BRANCH  27  30
ATOM     30  N   UNL     1       1.427  10.704  19.288  0.00  0.00    +0.000 N 
ATOM     31  H   UNL     1       2.231  11.171  18.876  0.00  0.00    +0.000 HD
BRANCH  30  32
ATOM     32  S   UNL     1      -0.042  11.437  18.955  0.00  0.00    +0.000 S 
ATOM     33  C   UNL     1      -0.758  11.707  20.572  0.00  0.00    +0.000 C 
ATOM     34  O   UNL     1       0.199  12.722  18.342  0.00  0.00    +0.000 OA
ATOM     35  O   UNL     1      -0.844  10.426  18.296  0.00  0.00    +0.000 OA
ENDBRANCH  30  32
ENDBRANCH  27  30
ENDBRANCH   8  24
TORSDOF 7
ENDMDL
MODEL 7
REMARK VINA RESULT:      -7.4      4.418      6.758
REMARK  Name = 
REMARK  11 active torsions:
REMARK  status: ('A' for Active; 'I' for Inactive)
REMARK    1  A    between atoms: C_1  and  O_2
REMARK    2  A    between atoms: O_2  and  C_3
REMARK    3  A    between atoms: C_5  and  N_6
REMARK    4  A    between atoms: C_13  and  C_14
REMARK    5  A    between atoms: C_17  and  N_18
REMARK    6  A    between atoms: N_18  and  S_19
REMARK    7  A    between atoms: S_19  and  C_20
REMARK    8  A    between atoms: C_28  and  O_29
REMARK    9  A    between atoms: O_29  and  C_30
REMARK   10  A    between atoms: C_31  and  O_32
REMARK   11  A    between atoms: O_32  and  C_33
REMARK                            x       y       z     vdW  Elec       q    Type
REMARK                         _______ _______ _______ _____ _____    ______ ____
ROOT
ATOM      1  N   UNL     1       8.465   8.752  17.507  0.00  0.00    +0.000 N 
ATOM      2  C   UNL     1       7.476   7.841  17.479  0.00  0.00    +0.000 A 
ATOM      3  N   UNL     1       7.704   6.646  16.991  0.00  0.00    +0.000 NA
ATOM      4  C   UNL     1       6.518   6.001  17.100  0.00  0.00    +0.000 A 
ATOM      5  C   UNL     1       6.235   4.680  16.736  0.00  0.00    +0.000 A 
ATOM      6  C   UNL     1       4.947   4.213  16.916  0.00  0.00    +0.000 A 
ATOM      7  C   UNL     1       3.963   5.065  17.423  0.00  0.00    +0.000 A 
ATOM      8  C   UNL     1       4.195   6.422  17.808  0.00  0.00    +0.000 A 
ATOM      9  C   UNL     1       5.532   6.840  17.626  0.00  0.00    +0.000 A 
ATOM     10  O   UNL     1       6.172   8.056  17.886  0.00  0.00    +0.000 OA
ATOM     11  H   UNL     1       9.297   8.368  17.074  0.00  0.00    +0.000 HD
ENDROOT
BRANCH   1  14
ATOM     12  C   UNL     1       9.130  11.021  20.381  0.00  0.00    +0.000 A 
ATOM     13  C   UNL     1       8.811   9.906  19.585  0.00  0.00    +0.000 A 
ATOM     14  C   UNL     1       8.726   9.954  18.176  0.00  0.00    +0.000 A 
ATOM     15  C   UNL     1       8.926  11.182  17.574  0.00  0.00    +0.000 A 
ATOM     16  C   UNL     1       9.218  12.328  18.347  0.00  0.00    +0.000 A 
ATOM     17  C   UNL     1       9.310  12.267  19.761  0.00  0.00    +0.000 A 
BRANCH  12  19
ATOM     18  C   UNL     1       8.164  11.511  22.505  0.00  0.00    +0.000 C 
ATOM     19  O   UNL     1       9.223  10.920  21.749  0.00  0.00    +0.000 OA
ENDBRANCH  12  19
BRANCH  16  20
ATOM     20  O   UNL     1       9.341  13.459  17.574  0.00  0.00    +0.000 OA
ATOM     21  C   UNL     1      10.637  13.764  17.071  0.00  0.00    +0.000 C 
ENDBRANCH  16  20
BRANCH  17  22
ATOM     22  O   UNL     1       9.567  13.461  20.376  0.00  0.00    +0.000 OA
ATOM     23  C   UNL     1      10.878  13.896  20.693  0.00  0.00    +0.000 C 
ENDBRANCH  17  22
ENDBRANCH   1  14
BRANCH   8  24
ATOM     24  C   UNL     1       3.038   7.237  18.240  0.00  0.00    +0.000 A 
ATOM     25  C   UNL     1       2.559   8.283  17.409  0.00  0.00    +0.000 A 
ATOM     26  C   UNL     1       1.654   9.248  17.864  0.00  0.00    +0.000 A 
ATOM     27  C   UNL     1       1.149   9.157  19.152  0.00  0.00    +0.000 A 
ATOM     28  C   UNL     1       1.536   8.100  19.971  0.00  0.00    +0.000 A 
ATOM     29  C   UNL     1       2.478   7.153  19.522  0.00  0.00    +0.000 A 
BRANCH  27  30
ATOM     30  N   UNL     1       0.265  10.159  19.634  0.00  0.00    +0.000 N 
ATOM     31  H   UNL     1      -0.711   9.913  19.783  0.00  0.00    +0.000 HD
BRANCH  30  32
ATOM     32  S   UNL     1       0.835  11.366  20.646  0.00  0.00    +0.000 S 
ATOM     33  C   UNL     1      -0.600  12.395  20.929  0.00  0.00    +0.000 C 
ATOM     34  O   UNL     1       1.232  10.780  21.904  0.00  0.00    +0.000 OA
ATOM     35  O   UNL     1       1.765  12.139  19.848  0.00  0.00    +0.000 OA
ENDBRANCH  30  32
ENDBRANCH  27  30
ENDBRANCH   8  24
TORSDOF 7
ENDMDL
MODEL 8
REMARK VINA RESULT:      -7.4      4.259      6.450
REMARK  Name = 
REMARK  11 active torsions:
REMARK  status: ('A' for Active; 'I' for Inactive)
REMARK    1  A    between atoms: C_1  and  O_2
REMARK    2  A    between atoms: O_2  and  C_3
REMARK    3  A    between atoms: C_5  and  N_6
REMARK    4  A    between atoms: C_13  and  C_14
REMARK    5  A    between atoms: C_17  and  N_18
REMARK    6  A    between atoms: N_18  and  S_19
REMARK    7  A    between atoms: S_19  and  C_20
REMARK    8  A    between atoms: C_28  and  O_29
REMARK    9  A    between atoms: O_29  and  C_30
REMARK   10  A    between atoms: C_31  and  O_32
REMARK   11  A    between atoms: O_32  and  C_33
REMARK                            x       y       z     vdW  Elec       q    Type
REMARK                         _______ _______ _______ _____ _____    ______ ____
ROOT
ATOM      1  N   UNL     1       8.394   8.608  17.458  0.00  0.00    +0.000 N 
ATOM      2  C   UNL     1       7.350   7.762  17.417  0.00  0.00    +0.000 A 
ATOM      3  N   UNL     1       7.479   6.592  16.842  0.00  0.00    +0.000 NA
ATOM      4  C   UNL     1       6.261   6.013  16.965  0.00  0.00    +0.000 A 
ATOM      5  C   UNL     1       5.880   4.740  16.528  0.00  0.00    +0.000 A 
ATOM      6  C   UNL     1       4.573   4.340  16.738  0.00  0.00    +0.000 A 
ATOM      7  C   UNL     1       3.668   5.213  17.346  0.00  0.00    +0.000 A 
ATOM      8  C   UNL     1       4.003   6.524  17.809  0.00  0.00    +0.000 A 
ATOM      9  C   UNL     1       5.354   6.872  17.591  0.00  0.00    +0.000 A 
ATOM     10  O   UNL     1       6.080   8.026  17.900  0.00  0.00    +0.000 OA
ATOM     11  H   UNL     1       9.181   8.205  16.962  0.00  0.00    +0.000 HD
ENDROOT
BRANCH   1  14
ATOM     12  C   UNL     1       9.331  12.156  18.072  0.00  0.00    +0.000 A 
ATOM     13  C   UNL     1       9.017  10.928  17.465  0.00  0.00    +0.000 A 
ATOM     14  C   UNL     1       8.760   9.743  18.191  0.00  0.00    +0.000 A 
ATOM     15  C   UNL     1       8.873   9.811  19.566  0.00  0.00    +0.000 A 
ATOM     16  C   UNL     1       9.216  11.022  20.206  0.00  0.00    +0.000 A 
ATOM     17  C   UNL     1       9.464  12.208  19.469  0.00  0.00    +0.000 A 
BRANCH  12  19
ATOM     18  C   UNL     1      10.875  13.468  16.815  0.00  0.00    +0.000 C 
ATOM     19  O   UNL     1       9.552  13.289  17.324  0.00  0.00    +0.000 OA
ENDBRANCH  12  19
BRANCH  16  20
ATOM     20  O   UNL     1       9.321  10.878  21.571  0.00  0.00    +0.000 OA
ATOM     21  C   UNL     1       8.299  11.467  22.366  0.00  0.00    +0.000 C 
ENDBRANCH  16  20
BRANCH  17  22
ATOM     22  O   UNL     1       9.817  13.294  20.221  0.00  0.00    +0.000 OA
ATOM     23  C   UNL     1      11.163  13.703  20.394  0.00  0.00    +0.000 C 
ENDBRANCH  17  22
ENDBRANCH   1  14
BRANCH   8  24
ATOM     24  C   UNL     1       2.920   7.375  18.348  0.00  0.00    +0.000 A 
ATOM     25  C   UNL     1       2.519   8.542  17.645  0.00  0.00    +0.000 A 
ATOM     26  C   UNL     1       1.699   9.519  18.219  0.00  0.00    +0.000 A 
ATOM     27  C   UNL     1       1.200   9.327  19.498  0.00  0.00    +0.000 A 
ATOM     28  C   UNL     1       1.508   8.159  20.190  0.00  0.00    +0.000 A 
ATOM     29  C   UNL     1       2.366   7.195  19.623  0.00  0.00    +0.000 A 
BRANCH  27  30
ATOM     30  N   UNL     1       0.405  10.337  20.103  0.00  0.00    +0.000 N 
ATOM     31  H   UNL     1       0.825  10.919  20.823  0.00  0.00    +0.000 HD
BRANCH  30  32
ATOM     32  S   UNL     1      -0.804  11.093  19.223  0.00  0.00    +0.000 S 
ATOM     33  C   UNL     1      -1.820  11.867  20.474  0.00  0.00    +0.000 C 
ATOM     34  O   UNL     1      -0.216  12.130  18.407  0.00  0.00    +0.000 OA
ATOM     35  O   UNL     1      -1.587  10.026  18.635  0.00  0.00    +0.000 OA
ENDBRANCH  30  32
ENDBRANCH  27  30
ENDBRANCH   8  24
TORSDOF 7
ENDMDL
MODEL 9
REMARK VINA RESULT:      -7.3      3.571      6.078
REMARK  Name = 
REMARK  11 active torsions:
REMARK  status: ('A' for Active; 'I' for Inactive)
REMARK    1  A    between atoms: C_1  and  O_2
REMARK    2  A    between atoms: O_2  and  C_3
REMARK    3  A    between atoms: C_5  and  N_6
REMARK    4  A    between atoms: C_13  and  C_14
REMARK    5  A    between atoms: C_17  and  N_18
REMARK    6  A    between atoms: N_18  and  S_19
REMARK    7  A    between atoms: S_19  and  C_20
REMARK    8  A    between atoms: C_28  and  O_29
REMARK    9  A    between atoms: O_29  and  C_30
REMARK   10  A    between atoms: C_31  and  O_32
REMARK   11  A    between atoms: O_32  and  C_33
REMARK                            x       y       z     vdW  Elec       q    Type
REMARK                         _______ _______ _______ _____ _____    ______ ____
ROOT
ATOM      1  N   UNL     1       1.535   6.526  20.242  0.00  0.00    +0.000 N 
ATOM      2  C   UNL     1       1.147   7.723  20.716  0.00  0.00    +0.000 A 
ATOM      3  N   UNL     1       0.221   7.789  21.641  0.00  0.00    +0.000 NA
ATOM      4  C   UNL     1       0.065   9.114  21.874  0.00  0.00    +0.000 A 
ATOM      5  C   UNL     1      -0.797   9.717  22.797  0.00  0.00    +0.000 A 
ATOM      6  C   UNL     1      -0.816  11.097  22.870  0.00  0.00    +0.000 A 
ATOM      7  C   UNL     1      -0.008  11.850  22.015  0.00  0.00    +0.000 A 
ATOM      8  C   UNL     1       0.888  11.288  21.053  0.00  0.00    +0.000 A 
ATOM      9  C   UNL     1       0.885   9.876  21.036  0.00  0.00    +0.000 A 
ATOM     10  O   UNL     1       1.609   8.951  20.277  0.00  0.00    +0.000 OA
ATOM     11  H   UNL     1       0.983   5.792  20.671  0.00  0.00    +0.000 HD
ENDROOT
BRANCH   1  14
ATOM     12  C   UNL     1       4.042   4.018  19.114  0.00  0.00    +0.000 A 
ATOM     13  C   UNL     1       3.006   4.679  19.797  0.00  0.00    +0.000 A 
ATOM     14  C   UNL     1       2.628   6.015  19.532  0.00  0.00    +0.000 A 
ATOM     15  C   UNL     1       3.359   6.699  18.579  0.00  0.00    +0.000 A 
ATOM     16  C   UNL     1       4.425   6.073  17.897  0.00  0.00    +0.000 A 
ATOM     17  C   UNL     1       4.791   4.729  18.163  0.00  0.00    +0.000 A 
BRANCH  12  19
ATOM     18  C   UNL     1       3.632   1.710  18.673  0.00  0.00    +0.000 C 
ATOM     19  O   UNL     1       4.359   2.708  19.392  0.00  0.00    +0.000 OA
ENDBRANCH  12  19
BRANCH  16  20
ATOM     20  O   UNL     1       5.056   6.927  17.021  0.00  0.00    +0.000 OA
ATOM     21  C   UNL     1       6.364   7.363  17.370  0.00  0.00    +0.000 C 
ENDBRANCH  16  20
BRANCH  17  22
ATOM     22  O   UNL     1       5.862   4.268  17.449  0.00  0.00    +0.000 OA
ATOM     23  C   UNL     1       5.752   3.799  16.117  0.00  0.00    +0.000 C 
ENDBRANCH  17  22
ENDBRANCH   1  14
BRANCH   8  24
ATOM     24  C   UNL     1       1.612  12.206  20.147  0.00  0.00    +0.000 A 
ATOM     25  C   UNL     1       2.409  13.250  20.685  0.00  0.00    +0.000 A 
ATOM     26  C   UNL     1       2.900  14.300  19.902  0.00  0.00    +0.000 A 
ATOM     27  C   UNL     1       2.661  14.302  18.535  0.00  0.00    +0.000 A 
ATOM     28  C   UNL     1       1.949  13.254  17.959  0.00  0.00    +0.000 A 
ATOM     29  C   UNL     1       1.423  12.219  18.758  0.00  0.00    +0.000 A 
BRANCH  27  30
ATOM     30  N   UNL     1       3.119  15.388  17.742  0.00  0.00    +0.000 N 
ATOM     31  H   UNL     1       3.385  15.205  16.777  0.00  0.00    +0.000 HD
BRANCH  30  32
ATOM     32  S   UNL     1       2.533  16.933  18.016  0.00  0.00    +0.000 S 
ATOM     33  C   UNL     1       0.821  16.666  18.460  0.00  0.00    +0.000 C 
ATOM     34  O   UNL     1       3.216  17.503  19.153  0.00  0.00    +0.000 OA
ATOM     35  O   UNL     1       2.542  17.590  16.725  0.00  0.00    +0.000 OA
ENDBRANCH  30  32
ENDBRANCH  27  30
ENDBRANCH   8  24
TORSDOF 7
ENDMDL
