MODEL 1
REMARK VINA RESULT:      -7.9      0.000      0.000
REMARK  Name = 
REMARK  5 active torsions:
REMARK  status: ('A' for Active; 'I' for Inactive)
REMARK    1  A    between atoms: C_1  and  N_2
REMARK    2  A    between atoms: N_2  and  C_3
REMARK    3  A    between atoms: C_3  and  C_4
REMARK    4  A    between atoms: N_6  and  C_7
REMARK    5  A    between atoms: C_16  and  C_18
REMARK                            x       y       z     vdW  Elec       q    Type
REMARK                         _______ _______ _______ _____ _____    ______ ____
ROOT
ATOM      1  C   UNL     1       1.462   2.231  21.888  0.00  0.00    +0.000 C 
ATOM      2  N   UNL     1       2.222   3.117  21.013  0.00  0.00    +0.000 N 
ATOM      3  C   UNL     1       2.516   2.612  19.737  0.00  0.00    +0.000 C 
ATOM      4  O   UNL     1       2.097   1.518  19.348  0.00  0.00    +0.000 OA
ENDROOT
BRANCH   3   5
ATOM      5  C   UNL     1       3.349   3.382  18.766  0.00  0.00    +0.000 A 
ATOM      6  C   UNL     1       3.026   3.285  17.406  0.00  0.00    +0.000 A 
ATOM      7  C   UNL     1       3.804   3.938  16.445  0.00  0.00    +0.000 A 
ATOM      8  C   UNL     1       4.917   4.692  16.827  0.00  0.00    +0.000 A 
ATOM      9  C   UNL     1       5.246   4.784  18.186  0.00  0.00    +0.000 A 
ATOM     10  C   UNL     1       4.484   4.106  19.143  0.00  0.00    +0.000 A 
ATOM     11  N   UNL     1       6.309   5.580  18.645  0.00  0.00    +0.000 N 
ATOM     12  C   UNL     1       7.285   6.141  17.865  0.00  0.00    +0.000 C 
ATOM     13  O   UNL     1       8.091   6.922  18.372  0.00  0.00    +0.000 OA
ATOM     14  C   UNL     1       7.429   5.645  16.445  0.00  0.00    +0.000 C 
ATOM     15  S   UNL     1       5.843   5.558  15.578  0.00  0.00    +0.000 S 
ATOM     16  H   UNL     1       6.369   5.819  19.628  0.00  0.00    +0.000 HD
ENDBRANCH   3   5
BRANCH   2  17
ATOM     17  C   UNL     1       2.432   4.516  21.420  0.00  0.00    +0.000 C 
BRANCH  17  18
ATOM     18  C   UNL     1       1.671   5.659  20.744  0.00  0.00    +0.000 C 
ATOM     19  O   UNL     1       0.497   5.523  20.403  0.00  0.00    +0.000 OA
ATOM     20  N   UNL     1       2.430   6.791  20.506  0.00  0.00    +0.000 N 
ATOM     21  H   UNL     1       3.417   6.630  20.320  0.00  0.00    +0.000 HD
BRANCH  20  22
ATOM     22  C   UNL     1       1.854   7.926  19.891  0.00  0.00    +0.000 A 
ATOM     23  C   UNL     1       2.058   8.213  18.534  0.00  0.00    +0.000 A 
ATOM     24  C   UNL     1       1.534   9.384  17.980  0.00  0.00    +0.000 A 
ATOM     25  C   UNL     1       0.828  10.270  18.791  0.00  0.00    +0.000 A 
ATOM     26  F   UNL     1       0.374  11.416  18.266  0.00  0.00    +0.000 F 
ATOM     27  C   UNL     1       0.603   9.979  20.130  0.00  0.00    +0.000 A 
ATOM     28  F   UNL     1      -0.052  10.851  20.909  0.00  0.00    +0.000 F 
ATOM     29  C   UNL     1       1.090   8.797  20.668  0.00  0.00    +0.000 A 
ATOM     30  F   UNL     1       0.897   8.518  21.967  0.00  0.00    +0.000 F 
ENDBRANCH  20  22
ENDBRANCH  17  18
ENDBRANCH   2  17
TORSDOF 4
ENDMDL
MODEL 2
REMARK VINA RESULT:      -7.7      0.969      1.475
REMARK  Name = 
REMARK  5 active torsions:
REMARK  status: ('A' for Active; 'I' for Inactive)
REMARK    1  A    between atoms: C_1  and  N_2
REMARK    2  A    between atoms: N_2  and  C_3
REMARK    3  A    between atoms: C_3  and  C_4
REMARK    4  A    between atoms: N_6  and  C_7
REMARK    5  A    between atoms: C_16  and  C_18
REMARK                            x       y       z     vdW  Elec       q    Type
REMARK                         _______ _______ _______ _____ _____    ______ ____
ROOT
ATOM      1  C   UNL     1       1.440   2.114  21.904  0.00  0.00    +0.000 C 
ATOM      2  N   UNL     1       2.189   3.042  21.064  0.00  0.00    +0.000 N 
ATOM      3  C   UNL     1       2.500   2.583  19.775  0.00  0.00    +0.000 C 
ATOM      4  O   UNL     1       2.106   1.494  19.348  0.00  0.00    +0.000 OA
ENDROOT
BRANCH   3   5
ATOM      5  C   UNL     1       3.325   3.399  18.834  0.00  0.00    +0.000 A 
ATOM      6  C   UNL     1       2.977   3.383  17.476  0.00  0.00    +0.000 A 
ATOM      7  C   UNL     1       3.746   4.081  16.540  0.00  0.00    +0.000 A 
ATOM      8  C   UNL     1       4.873   4.803  16.945  0.00  0.00    +0.000 A 
ATOM      9  C   UNL     1       5.226   4.815  18.302  0.00  0.00    +0.000 A 
ATOM     10  C   UNL     1       4.473   4.090  19.232  0.00  0.00    +0.000 A 
ATOM     11  N   UNL     1       6.304   5.573  18.786  0.00  0.00    +0.000 N 
ATOM     12  C   UNL     1       7.272   6.169  18.023  0.00  0.00    +0.000 C 
ATOM     13  O   UNL     1       8.095   6.912  18.559  0.00  0.00    +0.000 OA
ATOM     14  C   UNL     1       7.387   5.753  16.575  0.00  0.00    +0.000 C 
ATOM     15  S   UNL     1       5.787   5.730  15.732  0.00  0.00    +0.000 S 
ATOM     16  H   UNL     1       6.383   5.756  19.780  0.00  0.00    +0.000 HD
ENDBRANCH   3   5
BRANCH   2  17
ATOM     17  C   UNL     1       2.369   4.431  21.516  0.00  0.00    +0.000 C 
BRANCH  17  18
ATOM     18  C   UNL     1       1.583   5.579  20.878  0.00  0.00    +0.000 C 
ATOM     19  O   UNL     1       0.523   5.370  20.289  0.00  0.00    +0.000 OA
ATOM     20  N   UNL     1       2.197   6.815  20.971  0.00  0.00    +0.000 N 
ATOM     21  H   UNL     1       3.213   6.805  20.968  0.00  0.00    +0.000 HD
BRANCH  20  22
ATOM     22  C   UNL     1       1.580   7.966  20.429  0.00  0.00    +0.000 A 
ATOM     23  C   UNL     1       0.600   8.680  21.132  0.00  0.00    +0.000 A 
ATOM     24  C   UNL     1      -0.039   9.767  20.532  0.00  0.00    +0.000 A 
ATOM     25  C   UNL     1       0.291  10.122  19.226  0.00  0.00    +0.000 A 
ATOM     26  F   UNL     1      -0.364  11.132  18.638  0.00  0.00    +0.000 F 
ATOM     27  C   UNL     1       1.277   9.433  18.533  0.00  0.00    +0.000 A 
ATOM     28  F   UNL     1       1.567   9.762  17.267  0.00  0.00    +0.000 F 
ATOM     29  C   UNL     1       1.939   8.378  19.145  0.00  0.00    +0.000 A 
ATOM     30  F   UNL     1       2.878   7.692  18.475  0.00  0.00    +0.000 F 
ENDBRANCH  20  22
ENDBRANCH  17  18
ENDBRANCH   2  17
TORSDOF 4
ENDMDL
MODEL 3
REMARK VINA RESULT:      -7.7      4.540      7.473
REMARK  Name = 
REMARK  5 active torsions:
REMARK  status: ('A' for Active; 'I' for Inactive)
REMARK    1  A    between atoms: C_1  and  N_2
REMARK    2  A    between atoms: N_2  and  C_3
REMARK    3  A    between atoms: C_3  and  C_4
REMARK    4  A    between atoms: N_6  and  C_7
REMARK    5  A    between atoms: C_16  and  C_18
REMARK                            x       y       z     vdW  Elec       q    Type
REMARK                         _______ _______ _______ _____ _____    ______ ____
ROOT
ATOM      1  C   UNL     1       4.240   3.185  19.476  0.00  0.00    +0.000 C 
ATOM      2  N   UNL     1       3.902   4.594  19.311  0.00  0.00    +0.000 N 
ATOM      3  C   UNL     1       2.683   5.000  19.875  0.00  0.00    +0.000 C 
ATOM      4  O   UNL     1       1.972   4.235  20.533  0.00  0.00    +0.000 OA
ENDROOT
BRANCH   3   5
ATOM      5  C   UNL     1       2.178   6.397  19.719  0.00  0.00    +0.000 A 
ATOM      6  C   UNL     1       2.240   6.976  18.443  0.00  0.00    +0.000 A 
ATOM      7  C   UNL     1       1.835   8.299  18.246  0.00  0.00    +0.000 A 
ATOM      8  C   UNL     1       1.366   9.065  19.318  0.00  0.00    +0.000 A 
ATOM      9  C   UNL     1       1.310   8.490  20.596  0.00  0.00    +0.000 A 
ATOM     10  C   UNL     1       1.745   7.175  20.796  0.00  0.00    +0.000 A 
ATOM     11  N   UNL     1       0.787   9.178  21.702  0.00  0.00    +0.000 N 
ATOM     12  C   UNL     1       0.512  10.518  21.756  0.00  0.00    +0.000 C 
ATOM     13  O   UNL     1      -0.062  10.981  22.743  0.00  0.00    +0.000 OA
ATOM     14  C   UNL     1       1.078  11.401  20.668  0.00  0.00    +0.000 C 
ATOM     15  S   UNL     1       0.801  10.724  19.013  0.00  0.00    +0.000 S 
ATOM     16  H   UNL     1       0.535   8.666  22.540  0.00  0.00    +0.000 HD
ENDBRANCH   3   5
BRANCH   2  17
ATOM     17  C   UNL     1       4.921   5.517  18.784  0.00  0.00    +0.000 C 
BRANCH  17  18
ATOM     18  C   UNL     1       5.198   5.615  17.282  0.00  0.00    +0.000 C 
ATOM     19  O   UNL     1       4.887   6.621  16.645  0.00  0.00    +0.000 OA
ATOM     20  N   UNL     1       5.749   4.475  16.726  0.00  0.00    +0.000 N 
ATOM     21  H   UNL     1       5.475   3.596  17.157  0.00  0.00    +0.000 HD
BRANCH  20  22
ATOM     22  C   UNL     1       6.061   4.426  15.347  0.00  0.00    +0.000 A 
ATOM     23  C   UNL     1       5.325   3.638  14.452  0.00  0.00    +0.000 A 
ATOM     24  C   UNL     1       5.711   3.557  13.112  0.00  0.00    +0.000 A 
ATOM     25  C   UNL     1       6.839   4.249  12.680  0.00  0.00    +0.000 A 
ATOM     26  F   UNL     1       7.234   4.125  11.405  0.00  0.00    +0.000 F 
ATOM     27  C   UNL     1       7.558   5.050  13.557  0.00  0.00    +0.000 A 
ATOM     28  F   UNL     1       8.660   5.689  13.140  0.00  0.00    +0.000 F 
ATOM     29  C   UNL     1       7.151   5.160  14.879  0.00  0.00    +0.000 A 
ATOM     30  F   UNL     1       7.852   5.914  15.740  0.00  0.00    +0.000 F 
ENDBRANCH  20  22
ENDBRANCH  17  18
ENDBRANCH   2  17
TORSDOF 4
ENDMDL
MODEL 4
REMARK VINA RESULT:      -7.5      4.654      7.223
REMARK  Name = 
REMARK  5 active torsions:
REMARK  status: ('A' for Active; 'I' for Inactive)
REMARK    1  A    between atoms: C_1  and  N_2
REMARK    2  A    between atoms: N_2  and  C_3
REMARK    3  A    between atoms: C_3  and  C_4
REMARK    4  A    between atoms: N_6  and  C_7
REMARK    5  A    between atoms: C_16  and  C_18
REMARK                            x       y       z     vdW  Elec       q    Type
REMARK                         _______ _______ _______ _____ _____    ______ ____
ROOT
ATOM      1  C   UNL     1       3.621   2.167  18.412  0.00  0.00    +0.000 C 
ATOM      2  N   UNL     1       3.532   3.598  18.683  0.00  0.00    +0.000 N 
ATOM      3  C   UNL     1       2.403   4.014  19.405  0.00  0.00    +0.000 C 
ATOM      4  O   UNL     1       1.572   3.216  19.848  0.00  0.00    +0.000 OA
ENDROOT
BRANCH   3   5
ATOM      5  C   UNL     1       2.148   5.458  19.689  0.00  0.00    +0.000 A 
ATOM      6  C   UNL     1       1.613   5.793  20.941  0.00  0.00    +0.000 A 
ATOM      7  C   UNL     1       1.299   7.121  21.244  0.00  0.00    +0.000 A 
ATOM      8  C   UNL     1       1.511   8.133  20.302  0.00  0.00    +0.000 A 
ATOM      9  C   UNL     1       2.039   7.798  19.047  0.00  0.00    +0.000 A 
ATOM     10  C   UNL     1       2.323   6.464  18.735  0.00  0.00    +0.000 A 
ATOM     11  N   UNL     1       2.341   8.771  18.080  0.00  0.00    +0.000 N 
ATOM     12  C   UNL     1       1.946  10.082  18.112  0.00  0.00    +0.000 C 
ATOM     13  O   UNL     1       2.380  10.866  17.267  0.00  0.00    +0.000 OA
ATOM     14  C   UNL     1       0.861  10.471  19.089  0.00  0.00    +0.000 C 
ATOM     15  S   UNL     1       1.158   9.818  20.750  0.00  0.00    +0.000 S 
ATOM     16  H   UNL     1       2.937   8.532  17.296  0.00  0.00    +0.000 HD
ENDBRANCH   3   5
BRANCH   2  17
ATOM     17  C   UNL     1       4.694   4.454  18.394  0.00  0.00    +0.000 C 
BRANCH  17  18
ATOM     18  C   UNL     1       5.055   4.838  16.956  0.00  0.00    +0.000 C 
ATOM     19  O   UNL     1       4.733   5.931  16.493  0.00  0.00    +0.000 OA
ATOM     20  N   UNL     1       5.697   3.843  16.242  0.00  0.00    +0.000 N 
ATOM     21  H   UNL     1       5.442   2.889  16.486  0.00  0.00    +0.000 HD
BRANCH  20  22
ATOM     22  C   UNL     1       6.093   4.062  14.902  0.00  0.00    +0.000 A 
ATOM     23  C   UNL     1       5.474   3.399  13.832  0.00  0.00    +0.000 A 
ATOM     24  C   UNL     1       5.944   3.584  12.530  0.00  0.00    +0.000 A 
ATOM     25  C   UNL     1       7.039   4.415  12.307  0.00  0.00    +0.000 A 
ATOM     26  F   UNL     1       7.517   4.547  11.062  0.00  0.00    +0.000 F 
ATOM     27  C   UNL     1       7.641   5.092  13.360  0.00  0.00    +0.000 A 
ATOM     28  F   UNL     1       8.713   5.866  13.140  0.00  0.00    +0.000 F 
ATOM     29  C   UNL     1       7.148   4.937  14.648  0.00  0.00    +0.000 A 
ATOM     30  F   UNL     1       7.737   5.570  15.675  0.00  0.00    +0.000 F 
ENDBRANCH  20  22
ENDBRANCH  17  18
ENDBRANCH   2  17
TORSDOF 4
ENDMDL
MODEL 5
REMARK VINA RESULT:      -7.5      5.096      8.157
REMARK  Name = 
REMARK  5 active torsions:
REMARK  status: ('A' for Active; 'I' for Inactive)
REMARK    1  A    between atoms: C_1  and  N_2
REMARK    2  A    between atoms: N_2  and  C_3
REMARK    3  A    between atoms: C_3  and  C_4
REMARK    4  A    between atoms: N_6  and  C_7
REMARK    5  A    between atoms: C_16  and  C_18
REMARK                            x       y       z     vdW  Elec       q    Type
REMARK                         _______ _______ _______ _____ _____    ______ ____
ROOT
ATOM      1  C   UNL     1      -1.206   9.924  18.007  0.00  0.00    +0.000 C 
ATOM      2  N   UNL     1      -0.003  10.537  18.558  0.00  0.00    +0.000 N 
ATOM      3  C   UNL     1      -0.023  11.937  18.661  0.00  0.00    +0.000 C 
ATOM      4  O   UNL     1      -1.019  12.606  18.374  0.00  0.00    +0.000 OA
ENDROOT
BRANCH   3   5
ATOM      5  C   UNL     1       1.168  12.701  19.139  0.00  0.00    +0.000 A 
ATOM      6  C   UNL     1       1.165  13.155  20.465  0.00  0.00    +0.000 A 
ATOM      7  C   UNL     1       2.226  13.924  20.953  0.00  0.00    +0.000 A 
ATOM      8  C   UNL     1       3.303  14.253  20.124  0.00  0.00    +0.000 A 
ATOM      9  C   UNL     1       3.304  13.806  18.795  0.00  0.00    +0.000 A 
ATOM     10  C   UNL     1       2.227  13.063  18.301  0.00  0.00    +0.000 A 
ATOM     11  N   UNL     1       4.384  14.042  17.929  0.00  0.00    +0.000 N 
ATOM     12  C   UNL     1       5.416  14.913  18.154  0.00  0.00    +0.000 C 
ATOM     13  O   UNL     1       6.369  14.939  17.374  0.00  0.00    +0.000 OA
ATOM     14  C   UNL     1       5.259  15.925  19.265  0.00  0.00    +0.000 C 
ATOM     15  S   UNL     1       4.663  15.180  20.802  0.00  0.00    +0.000 S 
ATOM     16  H   UNL     1       4.466  13.509  17.071  0.00  0.00    +0.000 HD
ENDBRANCH   3   5
BRANCH   2  17
ATOM     17  C   UNL     1       1.028   9.676  19.160  0.00  0.00    +0.000 C 
BRANCH  17  18
ATOM     18  C   UNL     1       1.906   8.770  18.292  0.00  0.00    +0.000 C 
ATOM     19  O   UNL     1       2.210   9.094  17.145  0.00  0.00    +0.000 OA
ATOM     20  N   UNL     1       2.251   7.569  18.886  0.00  0.00    +0.000 N 
ATOM     21  H   UNL     1       1.567   7.182  19.530  0.00  0.00    +0.000 HD
BRANCH  20  22
ATOM     22  C   UNL     1       3.063   6.637  18.200  0.00  0.00    +0.000 A 
ATOM     23  C   UNL     1       4.251   7.021  17.562  0.00  0.00    +0.000 A 
ATOM     24  C   UNL     1       4.986   6.085  16.831  0.00  0.00    +0.000 A 
ATOM     25  C   UNL     1       4.520   4.776  16.726  0.00  0.00    +0.000 A 
ATOM     26  F   UNL     1       5.203   3.897  15.980  0.00  0.00    +0.000 F 
ATOM     27  C   UNL     1       3.357   4.385  17.375  0.00  0.00    +0.000 A 
ATOM     28  F   UNL     1       2.901   3.132  17.245  0.00  0.00    +0.000 F 
ATOM     29  C   UNL     1       2.649   5.306  18.134  0.00  0.00    +0.000 A 
ATOM     30  F   UNL     1       1.512   4.943  18.746  0.00  0.00    +0.000 F 
ENDBRANCH  20  22
ENDBRANCH  17  18
ENDBRANCH   2  17
TORSDOF 4
ENDMDL
MODEL 6
REMARK VINA RESULT:      -7.3      4.546      7.579
REMARK  Name = 
REMARK  5 active torsions:
REMARK  status: ('A' for Active; 'I' for Inactive)
REMARK    1  A    between atoms: C_1  and  N_2
REMARK    2  A    between atoms: N_2  and  C_3
REMARK    3  A    between atoms: C_3  and  C_4
REMARK    4  A    between atoms: N_6  and  C_7
REMARK    5  A    between atoms: C_16  and  C_18
REMARK                            x       y       z     vdW  Elec       q    Type
REMARK                         _______ _______ _______ _____ _____    ______ ____
ROOT
ATOM      1  C   UNL     1       4.470   3.472  19.262  0.00  0.00    +0.000 C 
ATOM      2  N   UNL     1       4.065   4.866  19.128  0.00  0.00    +0.000 N 
ATOM      3  C   UNL     1       2.872   5.221  19.776  0.00  0.00    +0.000 C 
ATOM      4  O   UNL     1       2.240   4.426  20.478  0.00  0.00    +0.000 OA
ENDROOT
BRANCH   3   5
ATOM      5  C   UNL     1       2.301   6.596  19.662  0.00  0.00    +0.000 A 
ATOM      6  C   UNL     1       2.356   7.225  18.410  0.00  0.00    +0.000 A 
ATOM      7  C   UNL     1       1.889   8.534  18.255  0.00  0.00    +0.000 A 
ATOM      8  C   UNL     1       1.364   9.234  19.345  0.00  0.00    +0.000 A 
ATOM      9  C   UNL     1       1.315   8.609  20.599  0.00  0.00    +0.000 A 
ATOM     10  C   UNL     1       1.811   7.311  20.759  0.00  0.00    +0.000 A 
ATOM     11  N   UNL     1       0.738   9.228  21.720  0.00  0.00    +0.000 N 
ATOM     12  C   UNL     1       0.397  10.551  21.818  0.00  0.00    +0.000 C 
ATOM     13  O   UNL     1      -0.217  10.946  22.810  0.00  0.00    +0.000 OA
ATOM     14  C   UNL     1       0.937  11.500  20.774  0.00  0.00    +0.000 C 
ATOM     15  S   UNL     1       0.722  10.874  19.091  0.00  0.00    +0.000 S 
ATOM     16  H   UNL     1       0.498   8.673  22.533  0.00  0.00    +0.000 HD
ENDBRANCH   3   5
BRANCH   2  17
ATOM     17  C   UNL     1       5.006   5.832  18.536  0.00  0.00    +0.000 C 
BRANCH  17  18
ATOM     18  C   UNL     1       5.307   5.824  17.035  0.00  0.00    +0.000 C 
ATOM     19  O   UNL     1       4.771   6.630  16.278  0.00  0.00    +0.000 OA
ATOM     20  N   UNL     1       6.160   4.813  16.628  0.00  0.00    +0.000 N 
ATOM     21  H   UNL     1       6.107   3.949  17.161  0.00  0.00    +0.000 HD
BRANCH  20  22
ATOM     22  C   UNL     1       6.528   4.689  15.268  0.00  0.00    +0.000 A 
ATOM     23  C   UNL     1       7.667   5.322  14.752  0.00  0.00    +0.000 A 
ATOM     24  C   UNL     1       7.955   5.237  13.387  0.00  0.00    +0.000 A 
ATOM     25  C   UNL     1       7.094   4.536  12.546  0.00  0.00    +0.000 A 
ATOM     26  F   UNL     1       7.349   4.504  11.231  0.00  0.00    +0.000 F 
ATOM     27  C   UNL     1       5.978   3.888  13.057  0.00  0.00    +0.000 A 
ATOM     28  F   UNL     1       5.139   3.241  12.236  0.00  0.00    +0.000 F 
ATOM     29  C   UNL     1       5.714   3.940  14.418  0.00  0.00    +0.000 A 
ATOM     30  F   UNL     1       4.625   3.335  14.917  0.00  0.00    +0.000 F 
ENDBRANCH  20  22
ENDBRANCH  17  18
ENDBRANCH   2  17
TORSDOF 4
ENDMDL
MODEL 7
REMARK VINA RESULT:      -7.3      4.313      7.156
REMARK  Name = 
REMARK  5 active torsions:
REMARK  status: ('A' for Active; 'I' for Inactive)
REMARK    1  A    between atoms: C_1  and  N_2
REMARK    2  A    between atoms: N_2  and  C_3
REMARK    3  A    between atoms: C_3  and  C_4
REMARK    4  A    between atoms: N_6  and  C_7
REMARK    5  A    between atoms: C_16  and  C_18
REMARK                            x       y       z     vdW  Elec       q    Type
REMARK                         _______ _______ _______ _____ _____    ______ ____
ROOT
ATOM      1  C   UNL     1       4.205   2.700  19.924  0.00  0.00    +0.000 C 
ATOM      2  N   UNL     1       3.972   4.121  19.688  0.00  0.00    +0.000 N 
ATOM      3  C   UNL     1       2.672   4.579  19.949  0.00  0.00    +0.000 C 
ATOM      4  O   UNL     1       1.796   3.847  20.419  0.00  0.00    +0.000 OA
ENDROOT
BRANCH   3   5
ATOM      5  C   UNL     1       2.275   5.994  19.681  0.00  0.00    +0.000 A 
ATOM      6  C   UNL     1       2.468   6.493  18.386  0.00  0.00    +0.000 A 
ATOM      7  C   UNL     1       2.168   7.826  18.089  0.00  0.00    +0.000 A 
ATOM      8  C   UNL     1       1.675   8.680  19.080  0.00  0.00    +0.000 A 
ATOM      9  C   UNL     1       1.489   8.184  20.378  0.00  0.00    +0.000 A 
ATOM     10  C   UNL     1       1.818   6.858  20.680  0.00  0.00    +0.000 A 
ATOM     11  N   UNL     1       0.934   8.966  21.404  0.00  0.00    +0.000 N 
ATOM     12  C   UNL     1       0.747  10.323  21.366  0.00  0.00    +0.000 C 
ATOM     13  O   UNL     1       0.136  10.876  22.280  0.00  0.00    +0.000 OA
ATOM     14  C   UNL     1       1.449  11.103  20.279  0.00  0.00    +0.000 C 
ATOM     15  S   UNL     1       1.247  10.351  18.646  0.00  0.00    +0.000 S 
ATOM     16  H   UNL     1       0.588   8.520  22.246  0.00  0.00    +0.000 HD
ENDBRANCH   3   5
BRANCH   2  17
ATOM     17  C   UNL     1       5.123   4.999  19.418  0.00  0.00    +0.000 C 
BRANCH  17  18
ATOM     18  C   UNL     1       5.981   4.813  18.164  0.00  0.00    +0.000 C 
ATOM     19  O   UNL     1       7.183   4.567  18.251  0.00  0.00    +0.000 OA
ATOM     20  N   UNL     1       5.306   5.011  16.973  0.00  0.00    +0.000 N 
ATOM     21  H   UNL     1       4.551   5.692  17.001  0.00  0.00    +0.000 HD
BRANCH  20  22
ATOM     22  C   UNL     1       5.975   4.869  15.736  0.00  0.00    +0.000 A 
ATOM     23  C   UNL     1       7.151   5.575  15.447  0.00  0.00    +0.000 A 
ATOM     24  C   UNL     1       7.741   5.465  14.185  0.00  0.00    +0.000 A 
ATOM     25  C   UNL     1       7.141   4.665  13.215  0.00  0.00    +0.000 A 
ATOM     26  F   UNL     1       7.684   4.606  11.991  0.00  0.00    +0.000 F 
ATOM     27  C   UNL     1       5.990   3.945  13.503  0.00  0.00    +0.000 A 
ATOM     28  F   UNL     1       5.404   3.201  12.555  0.00  0.00    +0.000 F 
ATOM     29  C   UNL     1       5.427   4.025  14.770  0.00  0.00    +0.000 A 
ATOM     30  F   UNL     1       4.302   3.349  15.050  0.00  0.00    +0.000 F 
ENDBRANCH  20  22
ENDBRANCH  17  18
ENDBRANCH   2  17
TORSDOF 4
ENDMDL
MODEL 8
REMARK VINA RESULT:      -7.2      1.468      1.551
REMARK  Name = 
REMARK  5 active torsions:
REMARK  status: ('A' for Active; 'I' for Inactive)
REMARK    1  A    between atoms: C_1  and  N_2
REMARK    2  A    between atoms: N_2  and  C_3
REMARK    3  A    between atoms: C_3  and  C_4
REMARK    4  A    between atoms: N_6  and  C_7
REMARK    5  A    between atoms: C_16  and  C_18
REMARK                            x       y       z     vdW  Elec       q    Type
REMARK                         _______ _______ _______ _____ _____    ______ ____
ROOT
ATOM      1  C   UNL     1       2.181   2.222  22.193  0.00  0.00    +0.000 C 
ATOM      2  N   UNL     1       2.473   2.722  20.854  0.00  0.00    +0.000 N 
ATOM      3  C   UNL     1       3.795   2.554  20.414  0.00  0.00    +0.000 C 
ATOM      4  O   UNL     1       4.643   1.956  21.082  0.00  0.00    +0.000 OA
ENDROOT
BRANCH   3   5
ATOM      5  C   UNL     1       4.251   3.084  19.094  0.00  0.00    +0.000 A 
ATOM      6  C   UNL     1       3.792   2.440  17.936  0.00  0.00    +0.000 A 
ATOM      7  C   UNL     1       4.230   2.855  16.675  0.00  0.00    +0.000 A 
ATOM      8  C   UNL     1       5.132   3.916  16.551  0.00  0.00    +0.000 A 
ATOM      9  C   UNL     1       5.597   4.556  17.708  0.00  0.00    +0.000 A 
ATOM     10  C   UNL     1       5.182   4.119  18.970  0.00  0.00    +0.000 A 
ATOM     11  N   UNL     1       6.450   5.671  17.653  0.00  0.00    +0.000 N 
ATOM     12  C   UNL     1       7.124   6.110  16.545  0.00  0.00    +0.000 C 
ATOM     13  O   UNL     1       7.744   7.173  16.594  0.00  0.00    +0.000 OA
ATOM     14  C   UNL     1       7.213   5.182  15.356  0.00  0.00    +0.000 C 
ATOM     15  S   UNL     1       5.614   4.454  14.924  0.00  0.00    +0.000 S 
ATOM     16  H   UNL     1       6.570   6.253  18.473  0.00  0.00    +0.000 HD
ENDBRANCH   3   5
BRANCH   2  17
ATOM     17  C   UNL     1       1.359   3.151  19.992  0.00  0.00    +0.000 C 
BRANCH  17  18
ATOM     18  C   UNL     1       1.427   4.464  19.208  0.00  0.00    +0.000 C 
ATOM     19  O   UNL     1       1.158   4.499  18.008  0.00  0.00    +0.000 OA
ATOM     20  N   UNL     1       1.867   5.548  19.945  0.00  0.00    +0.000 N 
ATOM     21  H   UNL     1       2.534   5.339  20.683  0.00  0.00    +0.000 HD
BRANCH  20  22
ATOM     22  C   UNL     1       1.974   6.826  19.348  0.00  0.00    +0.000 A 
ATOM     23  C   UNL     1       2.692   7.029  18.161  0.00  0.00    +0.000 A 
ATOM     24  C   UNL     1       2.839   8.318  17.644  0.00  0.00    +0.000 A 
ATOM     25  C   UNL     1       2.283   9.398  18.326  0.00  0.00    +0.000 A 
ATOM     26  F   UNL     1       2.473  10.637  17.852  0.00  0.00    +0.000 F 
ATOM     27  C   UNL     1       1.551   9.200  19.489  0.00  0.00    +0.000 A 
ATOM     28  F   UNL     1       1.046  10.248  20.155  0.00  0.00    +0.000 F 
ATOM     29  C   UNL     1       1.374   7.915  19.981  0.00  0.00    +0.000 A 
ATOM     30  F   UNL     1       0.687   7.716  21.116  0.00  0.00    +0.000 F 
ENDBRANCH  20  22
ENDBRANCH  17  18
ENDBRANCH   2  17
TORSDOF 4
ENDMDL
MODEL 9
REMARK VINA RESULT:      -7.2      6.861     10.255
REMARK  Name = 
REMARK  5 active torsions:
REMARK  status: ('A' for Active; 'I' for Inactive)
REMARK    1  A    between atoms: C_1  and  N_2
REMARK    2  A    between atoms: N_2  and  C_3
REMARK    3  A    between atoms: C_3  and  C_4
REMARK    4  A    between atoms: N_6  and  C_7
REMARK    5  A    between atoms: C_16  and  C_18
REMARK                            x       y       z     vdW  Elec       q    Type
REMARK                         _______ _______ _______ _____ _____    ______ ____
ROOT
ATOM      1  C   UNL     1       1.261   9.279  21.712  0.00  0.00    +0.000 C 
ATOM      2  N   UNL     1       0.458  10.494  21.645  0.00  0.00    +0.000 N 
ATOM      3  C   UNL     1      -0.398  10.722  22.733  0.00  0.00    +0.000 C 
ATOM      4  O   UNL     1      -0.420   9.983  23.721  0.00  0.00    +0.000 OA
ENDROOT
BRANCH   3   5
ATOM      5  C   UNL     1      -1.331  11.889  22.761  0.00  0.00    +0.000 A 
ATOM      6  C   UNL     1      -0.773  13.169  22.887  0.00  0.00    +0.000 A 
ATOM      7  C   UNL     1      -1.598  14.294  22.976  0.00  0.00    +0.000 A 
ATOM      8  C   UNL     1      -2.989  14.158  22.946  0.00  0.00    +0.000 A 
ATOM      9  C   UNL     1      -3.548  12.878  22.828  0.00  0.00    +0.000 A 
ATOM     10  C   UNL     1      -2.721  11.751  22.769  0.00  0.00    +0.000 A 
ATOM     11  N   UNL     1      -4.933  12.676  22.722  0.00  0.00    +0.000 N 
ATOM     12  C   UNL     1      -5.902  13.613  22.966  0.00  0.00    +0.000 C 
ATOM     13  O   UNL     1      -7.079  13.348  22.718  0.00  0.00    +0.000 OA
ATOM     14  C   UNL     1      -5.497  14.876  23.690  0.00  0.00    +0.000 C 
ATOM     15  S   UNL     1      -4.001  15.621  22.998  0.00  0.00    +0.000 S 
ATOM     16  H   UNL     1      -5.288  11.784  22.396  0.00  0.00    +0.000 HD
ENDBRANCH   3   5
BRANCH   2  17
ATOM     17  C   UNL     1       0.744  11.484  20.593  0.00  0.00    +0.000 C 
BRANCH  17  18
ATOM     18  C   UNL     1      -0.054  11.503  19.286  0.00  0.00    +0.000 C 
ATOM     19  O   UNL     1       0.319  12.176  18.327  0.00  0.00    +0.000 OA
ATOM     20  N   UNL     1      -1.224  10.767  19.320  0.00  0.00    +0.000 N 
ATOM     21  H   UNL     1      -1.690  10.717  20.222  0.00  0.00    +0.000 HD
BRANCH  20  22
ATOM     22  C   UNL     1      -2.059  10.692  18.180  0.00  0.00    +0.000 A 
ATOM     23  C   UNL     1      -1.734   9.887  17.080  0.00  0.00    +0.000 A 
ATOM     24  C   UNL     1      -2.545   9.898  15.942  0.00  0.00    +0.000 A 
ATOM     25  C   UNL     1      -3.663  10.728  15.905  0.00  0.00    +0.000 A 
ATOM     26  F   UNL     1      -4.406  10.773  14.790  0.00  0.00    +0.000 F 
ATOM     27  C   UNL     1      -4.002  11.510  17.001  0.00  0.00    +0.000 A 
ATOM     28  F   UNL     1      -5.063  12.327  16.945  0.00  0.00    +0.000 F 
ATOM     29  C   UNL     1      -3.217  11.468  18.145  0.00  0.00    +0.000 A 
ATOM     30  F   UNL     1      -3.525  12.236  19.201  0.00  0.00    +0.000 F 
ENDBRANCH  20  22
ENDBRANCH  17  18
ENDBRANCH   2  17
TORSDOF 4
ENDMDL
