MODEL 1
REMARK VINA RESULT:      -7.9      0.000      0.000
REMARK  Name = 
REMARK  10 active torsions:
REMARK  status: ('A' for Active; 'I' for Inactive)
REMARK    1  A    between atoms: C_1  and  C_2
REMARK    2  A    between atoms: C_2  and  C_3
REMARK    3  A    between atoms: C_2  and  C_4
REMARK    4  A    between atoms: C_2  and  O_5
REMARK    5  A    between atoms: O_5  and  C_6
REMARK    6  A    between atoms: C_11  and  N_12
REMARK    7  A    between atoms: N_12  and  C_30
REMARK    8  A    between atoms: C_13  and  C_15
REMARK    9  A    between atoms: C_18  and  C_19
REMARK   10  A    between atoms: C_24  and  C_25
REMARK                            x       y       z     vdW  Elec       q    Type
REMARK                         _______ _______ _______ _____ _____    ______ ____
ROOT
ATOM      1  N   UNL     1       0.688  11.965  19.867  0.00  0.00    +0.000 N 
ATOM      2  C   UNL     1       0.206  10.663  19.589  0.00  0.00    +0.000 C 
ATOM      3  O   UNL     1      -0.987  10.359  19.593  0.00  0.00    +0.000 OA
ENDROOT
BRANCH   1   9
ATOM      4  C   UNL     1      -3.464  12.573  22.903  0.00  0.00    +0.000 C 
ATOM      5  O   UNL     1      -3.343  12.890  24.080  0.00  0.00    +0.000 OA
ATOM      6  N   UNL     1      -2.389  12.346  22.072  0.00  0.00    +0.000 N 
ATOM      7  C   UNL     1      -1.028  12.345  22.595  0.00  0.00    +0.000 C 
ATOM      8  C   UNL     1      -0.160  13.341  21.834  0.00  0.00    +0.000 C 
ATOM      9  C   UNL     1      -0.206  13.095  20.307  0.00  0.00    +0.000 C 
ATOM     10  C   UNL     1      -1.681  13.081  19.862  0.00  0.00    +0.000 C 
ATOM     11  C   UNL     1      -2.521  12.078  20.649  0.00  0.00    +0.000 C 
BRANCH   4  12
ATOM     12  O   UNL     1      -4.657  12.405  22.271  0.00  0.00    +0.000 OA
BRANCH  12  14
ATOM     13  C   UNL     1      -4.866  14.799  21.831  0.00  0.00    +0.000 C 
ATOM     14  C   UNL     1      -5.602  13.501  22.176  0.00  0.00    +0.000 C 
ATOM     15  C   UNL     1      -6.450  13.615  23.447  0.00  0.00    +0.000 C 
ATOM     16  C   UNL     1      -6.537  13.156  21.004  0.00  0.00    +0.000 C 
ENDBRANCH  12  14
ENDBRANCH   4  12
ENDBRANCH   1   9
BRANCH   2  17
ATOM     17  C   UNL     1       1.121   9.560  19.160  0.00  0.00    +0.000 A 
ATOM     18  C   UNL     1       1.644   9.405  17.877  0.00  0.00    +0.000 A 
ATOM     19  C   UNL     1       2.259   8.198  17.503  0.00  0.00    +0.000 A 
ATOM     20  C   UNL     1       2.413   7.133  18.411  0.00  0.00    +0.000 A 
ATOM     21  C   UNL     1       2.060   7.406  19.744  0.00  0.00    +0.000 A 
ATOM     22  F   UNL     1       2.268   6.496  20.707  0.00  0.00    +0.000 F 
ATOM     23  C   UNL     1       1.433   8.592  20.118  0.00  0.00    +0.000 A 
BRANCH  20  24
ATOM     24  C   UNL     1       2.891   5.787  17.984  0.00  0.00    +0.000 A 
ATOM     25  C   UNL     1       1.996   4.699  17.951  0.00  0.00    +0.000 A 
ATOM     26  C   UNL     1       2.427   3.450  17.524  0.00  0.00    +0.000 A 
ATOM     27  N   UNL     1       3.691   3.186  17.150  0.00  0.00    +0.000 NA
ATOM     28  C   UNL     1       4.552   4.227  17.169  0.00  0.00    +0.000 A 
ATOM     29  C   UNL     1       4.209   5.524  17.548  0.00  0.00    +0.000 A 
BRANCH  29  30
ATOM     30  C   UNL     1       5.222   6.528  17.426  0.00  0.00    +0.000 C 
ATOM     31  N   UNL     1       6.043   7.342  17.318  0.00  0.00    +0.000 NA
ENDBRANCH  29  30
ENDBRANCH  20  24
ENDBRANCH   2  17
BRANCH   1  32
ATOM     32  C   UNL     1       2.062  12.358  19.574  0.00  0.00    +0.000 C 
ATOM     33  C   UNL     1       2.445  12.934  18.227  0.00  0.00    +0.000 C 
ATOM     34  C   UNL     1       2.516  13.792  19.442  0.00  0.00    +0.000 C 
ENDBRANCH   1  32
TORSDOF 7
ENDMDL
MODEL 2
REMARK VINA RESULT:      -7.5      2.007      2.930
REMARK  Name = 
REMARK  10 active torsions:
REMARK  status: ('A' for Active; 'I' for Inactive)
REMARK    1  A    between atoms: C_1  and  C_2
REMARK    2  A    between atoms: C_2  and  C_3
REMARK    3  A    between atoms: C_2  and  C_4
REMARK    4  A    between atoms: C_2  and  O_5
REMARK    5  A    between atoms: O_5  and  C_6
REMARK    6  A    between atoms: C_11  and  N_12
REMARK    7  A    between atoms: N_12  and  C_30
REMARK    8  A    between atoms: C_13  and  C_15
REMARK    9  A    between atoms: C_18  and  C_19
REMARK   10  A    between atoms: C_24  and  C_25
REMARK                            x       y       z     vdW  Elec       q    Type
REMARK                         _______ _______ _______ _____ _____    ______ ____
ROOT
ATOM      1  N   UNL     1      -0.623  11.198  19.189  0.00  0.00    +0.000 N 
ATOM      2  C   UNL     1       0.399  10.621  19.981  0.00  0.00    +0.000 C 
ATOM      3  O   UNL     1       0.632  10.949  21.144  0.00  0.00    +0.000 OA
ENDROOT
BRANCH   1   9
ATOM      4  C   UNL     1      -0.359  14.884  22.818  0.00  0.00    +0.000 C 
ATOM      5  O   UNL     1       0.106  15.988  22.562  0.00  0.00    +0.000 OA
ATOM      6  N   UNL     1      -0.399  13.856  21.903  0.00  0.00    +0.000 N 
ATOM      7  C   UNL     1       0.239  13.991  20.599  0.00  0.00    +0.000 C 
ATOM      8  C   UNL     1      -0.763  13.724  19.481  0.00  0.00    +0.000 C 
ATOM      9  C   UNL     1      -1.467  12.356  19.654  0.00  0.00    +0.000 C 
ATOM     10  C   UNL     1      -2.076  12.300  21.069  0.00  0.00    +0.000 C 
ATOM     11  C   UNL     1      -1.047  12.580  22.161  0.00  0.00    +0.000 C 
BRANCH   4  12
ATOM     12  O   UNL     1      -0.888  14.532  24.022  0.00  0.00    +0.000 OA
BRANCH  12  14
ATOM     13  C   UNL     1      -3.155  14.086  24.816  0.00  0.00    +0.000 C 
ATOM     14  C   UNL     1      -2.105  15.156  24.503  0.00  0.00    +0.000 C 
ATOM     15  C   UNL     1      -2.609  16.220  23.522  0.00  0.00    +0.000 C 
ATOM     16  C   UNL     1      -1.731  15.857  25.820  0.00  0.00    +0.000 C 
ENDBRANCH  12  14
ENDBRANCH   4  12
ENDBRANCH   1   9
BRANCH   2  17
ATOM     17  C   UNL     1       1.225   9.475  19.487  0.00  0.00    +0.000 A 
ATOM     18  C   UNL     1       1.748   9.358  18.201  0.00  0.00    +0.000 A 
ATOM     19  C   UNL     1       2.264   8.131  17.754  0.00  0.00    +0.000 A 
ATOM     20  C   UNL     1       2.319   7.001  18.592  0.00  0.00    +0.000 A 
ATOM     21  C   UNL     1       1.975   7.217  19.938  0.00  0.00    +0.000 A 
ATOM     22  F   UNL     1       2.096   6.234  20.841  0.00  0.00    +0.000 F 
ATOM     23  C   UNL     1       1.445   8.426  20.383  0.00  0.00    +0.000 A 
BRANCH  20  24
ATOM     24  C   UNL     1       2.689   5.649  18.082  0.00  0.00    +0.000 A 
ATOM     25  C   UNL     1       1.734   4.613  18.079  0.00  0.00    +0.000 A 
ATOM     26  C   UNL     1       2.063   3.360  17.576  0.00  0.00    +0.000 A 
ATOM     27  N   UNL     1       3.279   3.045  17.098  0.00  0.00    +0.000 NA
ATOM     28  C   UNL     1       4.196   4.038  17.088  0.00  0.00    +0.000 A 
ATOM     29  C   UNL     1       3.954   5.335  17.539  0.00  0.00    +0.000 A 
BRANCH  29  30
ATOM     30  C   UNL     1       5.010   6.288  17.376  0.00  0.00    +0.000 C 
ATOM     31  N   UNL     1       5.864   7.065  17.252  0.00  0.00    +0.000 NA
ENDBRANCH  29  30
ENDBRANCH  20  24
ENDBRANCH   2  17
BRANCH   1  32
ATOM     32  C   UNL     1      -1.058  10.597  17.933  0.00  0.00    +0.000 C 
ATOM     33  C   UNL     1      -2.356   9.823  17.840  0.00  0.00    +0.000 C 
ATOM     34  C   UNL     1      -2.215  11.114  17.111  0.00  0.00    +0.000 C 
ENDBRANCH   1  32
TORSDOF 7
ENDMDL
MODEL 3
REMARK VINA RESULT:      -7.5      1.327      1.678
REMARK  Name = 
REMARK  10 active torsions:
REMARK  status: ('A' for Active; 'I' for Inactive)
REMARK    1  A    between atoms: C_1  and  C_2
REMARK    2  A    between atoms: C_2  and  C_3
REMARK    3  A    between atoms: C_2  and  C_4
REMARK    4  A    between atoms: C_2  and  O_5
REMARK    5  A    between atoms: O_5  and  C_6
REMARK    6  A    between atoms: C_11  and  N_12
REMARK    7  A    between atoms: N_12  and  C_30
REMARK    8  A    between atoms: C_13  and  C_15
REMARK    9  A    between atoms: C_18  and  C_19
REMARK   10  A    between atoms: C_24  and  C_25
REMARK                            x       y       z     vdW  Elec       q    Type
REMARK                         _______ _______ _______ _____ _____    ______ ____
ROOT
ATOM      1  N   UNL     1       0.741  12.007  19.397  0.00  0.00    +0.000 N 
ATOM      2  C   UNL     1       0.244  10.696  19.201  0.00  0.00    +0.000 C 
ATOM      3  O   UNL     1      -0.953  10.419  19.145  0.00  0.00    +0.000 OA
ENDROOT
BRANCH   1   9
ATOM      4  C   UNL     1      -1.155  14.477  23.536  0.00  0.00    +0.000 C 
ATOM      5  O   UNL     1      -0.579  15.450  24.007  0.00  0.00    +0.000 OA
ATOM      6  N   UNL     1      -0.661  13.755  22.472  0.00  0.00    +0.000 N 
ATOM      7  C   UNL     1       0.660  14.040  21.925  0.00  0.00    +0.000 C 
ATOM      8  C   UNL     1       0.571  14.328  20.431  0.00  0.00    +0.000 C 
ATOM      9  C   UNL     1      -0.150  13.191  19.668  0.00  0.00    +0.000 C 
ATOM     10  C   UNL     1      -1.514  12.945  20.341  0.00  0.00    +0.000 C 
ATOM     11  C   UNL     1      -1.388  12.668  21.837  0.00  0.00    +0.000 C 
BRANCH   4  12
ATOM     12  O   UNL     1      -2.339  13.987  23.995  0.00  0.00    +0.000 OA
BRANCH  12  14
ATOM     13  C   UNL     1      -3.623  15.480  22.550  0.00  0.00    +0.000 C 
ATOM     14  C   UNL     1      -3.547  14.782  23.911  0.00  0.00    +0.000 C 
ATOM     15  C   UNL     1      -3.655  15.755  25.089  0.00  0.00    +0.000 C 
ATOM     16  C   UNL     1      -4.717  13.787  24.002  0.00  0.00    +0.000 C 
ENDBRANCH  12  14
ENDBRANCH   4  12
ENDBRANCH   1   9
BRANCH   2  17
ATOM     17  C   UNL     1       1.157   9.539  18.940  0.00  0.00    +0.000 A 
ATOM     18  C   UNL     1       1.767   9.259  17.719  0.00  0.00    +0.000 A 
ATOM     19  C   UNL     1       2.373   8.010  17.499  0.00  0.00    +0.000 A 
ATOM     20  C   UNL     1       2.431   7.028  18.506  0.00  0.00    +0.000 A 
ATOM     21  C   UNL     1       1.991   7.427  19.779  0.00  0.00    +0.000 A 
ATOM     22  F   UNL     1       2.103   6.602  20.831  0.00  0.00    +0.000 F 
ATOM     23  C   UNL     1       1.372   8.655  20.000  0.00  0.00    +0.000 A 
BRANCH  20  24
ATOM     24  C   UNL     1       2.901   5.639  18.235  0.00  0.00    +0.000 A 
ATOM     25  C   UNL     1       2.001   4.560  18.333  0.00  0.00    +0.000 A 
ATOM     26  C   UNL     1       2.424   3.267  18.052  0.00  0.00    +0.000 A 
ATOM     27  N   UNL     1       3.685   2.955  17.705  0.00  0.00    +0.000 NA
ATOM     28  C   UNL     1       4.551   3.987  17.598  0.00  0.00    +0.000 A 
ATOM     29  C   UNL     1       4.216   5.321  17.826  0.00  0.00    +0.000 A 
BRANCH  29  30
ATOM     30  C   UNL     1       5.233   6.299  17.584  0.00  0.00    +0.000 C 
ATOM     31  N   UNL     1       6.063   7.086  17.384  0.00  0.00    +0.000 NA
ENDBRANCH  29  30
ENDBRANCH  20  24
ENDBRANCH   2  17
BRANCH   1  32
ATOM     32  C   UNL     1       2.143  12.343  19.172  0.00  0.00    +0.000 C 
ATOM     33  C   UNL     1       2.705  12.477  17.772  0.00  0.00    +0.000 C 
ATOM     34  C   UNL     1       2.613  13.679  18.647  0.00  0.00    +0.000 C 
ENDBRANCH   1  32
TORSDOF 7
ENDMDL
MODEL 4
REMARK VINA RESULT:      -7.4      3.796     10.610
REMARK  Name = 
REMARK  10 active torsions:
REMARK  status: ('A' for Active; 'I' for Inactive)
REMARK    1  A    between atoms: C_1  and  C_2
REMARK    2  A    between atoms: C_2  and  C_3
REMARK    3  A    between atoms: C_2  and  C_4
REMARK    4  A    between atoms: C_2  and  O_5
REMARK    5  A    between atoms: O_5  and  C_6
REMARK    6  A    between atoms: C_11  and  N_12
REMARK    7  A    between atoms: N_12  and  C_30
REMARK    8  A    between atoms: C_13  and  C_15
REMARK    9  A    between atoms: C_18  and  C_19
REMARK   10  A    between atoms: C_24  and  C_25
REMARK                            x       y       z     vdW  Elec       q    Type
REMARK                         _______ _______ _______ _____ _____    ______ ____
ROOT
ATOM      1  N   UNL     1       2.978   5.448  19.491  0.00  0.00    +0.000 N 
ATOM      2  C   UNL     1       3.013   6.625  18.705  0.00  0.00    +0.000 C 
ATOM      3  O   UNL     1       3.749   6.777  17.730  0.00  0.00    +0.000 OA
ENDROOT
BRANCH   1   9
ATOM      4  C   UNL     1       6.866   4.244  16.288  0.00  0.00    +0.000 C 
ATOM      5  O   UNL     1       8.030   4.474  16.595  0.00  0.00    +0.000 OA
ATOM      6  N   UNL     1       5.797   4.596  17.081  0.00  0.00    +0.000 N 
ATOM      7  C   UNL     1       5.992   5.390  18.288  0.00  0.00    +0.000 C 
ATOM      8  C   UNL     1       5.405   4.677  19.501  0.00  0.00    +0.000 C 
ATOM      9  C   UNL     1       3.922   4.293  19.281  0.00  0.00    +0.000 C 
ATOM     10  C   UNL     1       3.819   3.489  17.970  0.00  0.00    +0.000 C 
ATOM     11  C   UNL     1       4.423   4.230  16.779  0.00  0.00    +0.000 C 
BRANCH   4  12
ATOM     12  O   UNL     1       6.483   3.621  15.141  0.00  0.00    +0.000 OA
BRANCH  12  14
ATOM     13  C   UNL     1       5.433   5.617  14.201  0.00  0.00    +0.000 C 
ATOM     14  C   UNL     1       6.290   4.379  13.920  0.00  0.00    +0.000 C 
ATOM     15  C   UNL     1       5.719   3.498  12.804  0.00  0.00    +0.000 C 
ATOM     16  C   UNL     1       7.688   4.853  13.489  0.00  0.00    +0.000 C 
ENDBRANCH  12  14
ENDBRANCH   4  12
ENDBRANCH   1   9
BRANCH   2  17
ATOM     17  C   UNL     1       2.065   7.758  18.943  0.00  0.00    +0.000 A 
ATOM     18  C   UNL     1       1.591   8.627  17.962  0.00  0.00    +0.000 A 
ATOM     19  C   UNL     1       0.936   9.816  18.324  0.00  0.00    +0.000 A 
ATOM     20  C   UNL     1       0.692  10.146  19.671  0.00  0.00    +0.000 A 
ATOM     21  C   UNL     1       0.999   9.150  20.613  0.00  0.00    +0.000 A 
ATOM     22  F   UNL     1       0.706   9.322  21.910  0.00  0.00    +0.000 F 
ATOM     23  C   UNL     1       1.665   7.978  20.263  0.00  0.00    +0.000 A 
BRANCH  20  24
ATOM     24  C   UNL     1       0.169  11.482  20.080  0.00  0.00    +0.000 A 
ATOM     25  C   UNL     1       0.970  12.345  20.852  0.00  0.00    +0.000 A 
ATOM     26  C   UNL     1       0.501  13.603  21.210  0.00  0.00    +0.000 A 
ATOM     27  N   UNL     1      -0.718  14.064  20.882  0.00  0.00    +0.000 NA
ATOM     28  C   UNL     1      -1.488  13.245  20.132  0.00  0.00    +0.000 A 
ATOM     29  C   UNL     1      -1.096  11.980  19.695  0.00  0.00    +0.000 A 
BRANCH  29  30
ATOM     30  C   UNL     1      -2.000  11.280  18.834  0.00  0.00    +0.000 C 
ATOM     31  N   UNL     1      -2.734  10.719  18.131  0.00  0.00    +0.000 NA
ENDBRANCH  29  30
ENDBRANCH  20  24
ENDBRANCH   2  17
BRANCH   1  32
ATOM     32  C   UNL     1       1.907   5.190  20.447  0.00  0.00    +0.000 C 
ATOM     33  C   UNL     1       0.878   4.106  20.201  0.00  0.00    +0.000 C 
ATOM     34  C   UNL     1       1.843   3.963  21.326  0.00  0.00    +0.000 C 
ENDBRANCH   1  32
TORSDOF 7
ENDMDL
MODEL 5
REMARK VINA RESULT:      -7.4      1.478      2.175
REMARK  Name = 
REMARK  10 active torsions:
REMARK  status: ('A' for Active; 'I' for Inactive)
REMARK    1  A    between atoms: C_1  and  C_2
REMARK    2  A    between atoms: C_2  and  C_3
REMARK    3  A    between atoms: C_2  and  C_4
REMARK    4  A    between atoms: C_2  and  O_5
REMARK    5  A    between atoms: O_5  and  C_6
REMARK    6  A    between atoms: C_11  and  N_12
REMARK    7  A    between atoms: N_12  and  C_30
REMARK    8  A    between atoms: C_13  and  C_15
REMARK    9  A    between atoms: C_18  and  C_19
REMARK   10  A    between atoms: C_24  and  C_25
REMARK                            x       y       z     vdW  Elec       q    Type
REMARK                         _______ _______ _______ _____ _____    ______ ____
ROOT
ATOM      1  N   UNL     1       0.131  11.628  18.816  0.00  0.00    +0.000 N 
ATOM      2  C   UNL     1       0.025  10.282  18.390  0.00  0.00    +0.000 C 
ATOM      3  O   UNL     1      -0.962   9.820  17.817  0.00  0.00    +0.000 OA
ENDROOT
BRANCH   1   9
ATOM      4  C   UNL     1      -4.005  12.990  21.620  0.00  0.00    +0.000 C 
ATOM      5  O   UNL     1      -3.948  13.919  22.416  0.00  0.00    +0.000 OA
ATOM      6  N   UNL     1      -2.919  12.556  20.894  0.00  0.00    +0.000 N 
ATOM      7  C   UNL     1      -1.590  13.107  21.135  0.00  0.00    +0.000 C 
ATOM      8  C   UNL     1      -0.998  13.664  19.846  0.00  0.00    +0.000 C 
ATOM      9  C   UNL     1      -1.003  12.614  18.709  0.00  0.00    +0.000 C 
ATOM     10  C   UNL     1      -2.437  12.072  18.557  0.00  0.00    +0.000 C 
ATOM     11  C   UNL     1      -3.001  11.529  19.868  0.00  0.00    +0.000 C 
BRANCH   4  12
ATOM     12  O   UNL     1      -5.131  12.274  21.352  0.00  0.00    +0.000 OA
BRANCH  12  14
ATOM     13  C   UNL     1      -6.795  11.839  19.617  0.00  0.00    +0.000 C 
ATOM     14  C   UNL     1      -6.218  12.865  20.597  0.00  0.00    +0.000 C 
ATOM     15  C   UNL     1      -5.777  14.163  19.912  0.00  0.00    +0.000 C 
ATOM     16  C   UNL     1      -7.310  13.212  21.623  0.00  0.00    +0.000 C 
ENDBRANCH  12  14
ENDBRANCH   4  12
ENDBRANCH   1   9
BRANCH   2  17
ATOM     17  C   UNL     1       1.169   9.325  18.515  0.00  0.00    +0.000 A 
ATOM     18  C   UNL     1       2.151   9.117  17.548  0.00  0.00    +0.000 A 
ATOM     19  C   UNL     1       3.010   8.010  17.636  0.00  0.00    +0.000 A 
ATOM     20  C   UNL     1       2.948   7.108  18.716  0.00  0.00    +0.000 A 
ATOM     21  C   UNL     1       2.088   7.468  19.768  0.00  0.00    +0.000 A 
ATOM     22  F   UNL     1       2.034   6.734  20.889  0.00  0.00    +0.000 F 
ATOM     23  C   UNL     1       1.220   8.553  19.678  0.00  0.00    +0.000 A 
BRANCH  20  24
ATOM     24  C   UNL     1       3.720   5.833  18.733  0.00  0.00    +0.000 A 
ATOM     25  C   UNL     1       5.010   5.798  19.299  0.00  0.00    +0.000 A 
ATOM     26  C   UNL     1       5.723   4.607  19.346  0.00  0.00    +0.000 A 
ATOM     27  N   UNL     1       5.264   3.445  18.850  0.00  0.00    +0.000 NA
ATOM     28  C   UNL     1       4.023   3.469  18.315  0.00  0.00    +0.000 A 
ATOM     29  C   UNL     1       3.217   4.604  18.250  0.00  0.00    +0.000 A 
BRANCH  29  30
ATOM     30  C   UNL     1       1.894   4.435  17.731  0.00  0.00    +0.000 C 
ATOM     31  N   UNL     1       0.819   4.306  17.311  0.00  0.00    +0.000 NA
ENDBRANCH  29  30
ENDBRANCH  20  24
ENDBRANCH   2  17
BRANCH   1  32
ATOM     32  C   UNL     1       1.405  12.210  19.224  0.00  0.00    +0.000 C 
ATOM     33  C   UNL     1       2.478  12.544  18.208  0.00  0.00    +0.000 C 
ATOM     34  C   UNL     1       1.799  13.643  18.951  0.00  0.00    +0.000 C 
ENDBRANCH   1  32
TORSDOF 7
ENDMDL
MODEL 6
REMARK VINA RESULT:      -7.4      3.658     10.486
REMARK  Name = 
REMARK  10 active torsions:
REMARK  status: ('A' for Active; 'I' for Inactive)
REMARK    1  A    between atoms: C_1  and  C_2
REMARK    2  A    between atoms: C_2  and  C_3
REMARK    3  A    between atoms: C_2  and  C_4
REMARK    4  A    between atoms: C_2  and  O_5
REMARK    5  A    between atoms: O_5  and  C_6
REMARK    6  A    between atoms: C_11  and  N_12
REMARK    7  A    between atoms: N_12  and  C_30
REMARK    8  A    between atoms: C_13  and  C_15
REMARK    9  A    between atoms: C_18  and  C_19
REMARK   10  A    between atoms: C_24  and  C_25
REMARK                            x       y       z     vdW  Elec       q    Type
REMARK                         _______ _______ _______ _____ _____    ______ ____
ROOT
ATOM      1  N   UNL     1       2.935   5.460  19.504  0.00  0.00    +0.000 N 
ATOM      2  C   UNL     1       2.953   6.640  18.723  0.00  0.00    +0.000 C 
ATOM      3  O   UNL     1       3.705   6.815  17.764  0.00  0.00    +0.000 OA
ENDROOT
BRANCH   1   9
ATOM      4  C   UNL     1       6.817   4.303  16.277  0.00  0.00    +0.000 C 
ATOM      5  O   UNL     1       7.976   4.580  16.561  0.00  0.00    +0.000 OA
ATOM      6  N   UNL     1       5.748   4.639  17.077  0.00  0.00    +0.000 N 
ATOM      7  C   UNL     1       5.932   5.471  18.259  0.00  0.00    +0.000 C 
ATOM      8  C   UNL     1       5.386   4.771  19.499  0.00  0.00    +0.000 C 
ATOM      9  C   UNL     1       3.914   4.331  19.310  0.00  0.00    +0.000 C 
ATOM     10  C   UNL     1       3.821   3.491  18.022  0.00  0.00    +0.000 C 
ATOM     11  C   UNL     1       4.382   4.220  16.804  0.00  0.00    +0.000 C 
BRANCH   4  12
ATOM     12  O   UNL     1       6.439   3.637  15.152  0.00  0.00    +0.000 OA
BRANCH  12  14
ATOM     13  C   UNL     1       5.728   3.413  12.825  0.00  0.00    +0.000 C 
ATOM     14  C   UNL     1       6.360   4.327  13.879  0.00  0.00    +0.000 C 
ATOM     15  C   UNL     1       7.728   4.871  13.456  0.00  0.00    +0.000 C 
ATOM     16  C   UNL     1       5.417   5.522  14.102  0.00  0.00    +0.000 C 
ENDBRANCH  12  14
ENDBRANCH   4  12
ENDBRANCH   1   9
BRANCH   2  17
ATOM     17  C   UNL     1       1.970   7.746  18.944  0.00  0.00    +0.000 A 
ATOM     18  C   UNL     1       1.295   8.433  17.937  0.00  0.00    +0.000 A 
ATOM     19  C   UNL     1       0.615   9.628  18.227  0.00  0.00    +0.000 A 
ATOM     20  C   UNL     1       0.546  10.142  19.536  0.00  0.00    +0.000 A 
ATOM     21  C   UNL     1       1.060   9.315  20.549  0.00  0.00    +0.000 A 
ATOM     22  F   UNL     1       0.948   9.663  21.839  0.00  0.00    +0.000 F 
ATOM     23  C   UNL     1       1.752   8.139  20.267  0.00  0.00    +0.000 A 
BRANCH  20  24
ATOM     24  C   UNL     1      -0.008  11.495  19.831  0.00  0.00    +0.000 A 
ATOM     25  C   UNL     1      -1.197  11.621  20.576  0.00  0.00    +0.000 A 
ATOM     26  C   UNL     1      -1.702  12.879  20.881  0.00  0.00    +0.000 A 
ATOM     27  N   UNL     1      -1.130  14.028  20.481  0.00  0.00    +0.000 NA
ATOM     28  C   UNL     1       0.016  13.914  19.775  0.00  0.00    +0.000 A 
ATOM     29  C   UNL     1       0.620  12.701  19.447  0.00  0.00    +0.000 A 
BRANCH  29  30
ATOM     30  C   UNL     1       1.879  12.762  18.769  0.00  0.00    +0.000 C 
ATOM     31  N   UNL     1       2.900  12.803  18.218  0.00  0.00    +0.000 NA
ENDBRANCH  29  30
ENDBRANCH  20  24
ENDBRANCH   2  17
BRANCH   1  32
ATOM     32  C   UNL     1       1.852   5.168  20.437  0.00  0.00    +0.000 C 
ATOM     33  C   UNL     1       0.862   4.053  20.170  0.00  0.00    +0.000 C 
ATOM     34  C   UNL     1       1.807   3.941  21.316  0.00  0.00    +0.000 C 
ENDBRANCH   1  32
TORSDOF 7
ENDMDL
MODEL 7
REMARK VINA RESULT:      -7.3      3.836     10.540
REMARK  Name = 
REMARK  10 active torsions:
REMARK  status: ('A' for Active; 'I' for Inactive)
REMARK    1  A    between atoms: C_1  and  C_2
REMARK    2  A    between atoms: C_2  and  C_3
REMARK    3  A    between atoms: C_2  and  C_4
REMARK    4  A    between atoms: C_2  and  O_5
REMARK    5  A    between atoms: O_5  and  C_6
REMARK    6  A    between atoms: C_11  and  N_12
REMARK    7  A    between atoms: N_12  and  C_30
REMARK    8  A    between atoms: C_13  and  C_15
REMARK    9  A    between atoms: C_18  and  C_19
REMARK   10  A    between atoms: C_24  and  C_25
REMARK                            x       y       z     vdW  Elec       q    Type
REMARK                         _______ _______ _______ _____ _____    ______ ____
ROOT
ATOM      1  N   UNL     1       2.988   5.208  19.757  0.00  0.00    +0.000 N 
ATOM      2  C   UNL     1       3.083   6.454  19.092  0.00  0.00    +0.000 C 
ATOM      3  O   UNL     1       3.779   6.646  18.095  0.00  0.00    +0.000 OA
ENDROOT
BRANCH   1   9
ATOM      4  C   UNL     1       6.687   4.074  16.315  0.00  0.00    +0.000 C 
ATOM      5  O   UNL     1       7.872   4.158  16.612  0.00  0.00    +0.000 OA
ATOM      6  N   UNL     1       5.670   4.417  17.177  0.00  0.00    +0.000 N 
ATOM      7  C   UNL     1       5.960   5.033  18.467  0.00  0.00    +0.000 C 
ATOM      8  C   UNL     1       5.332   4.227  19.599  0.00  0.00    +0.000 C 
ATOM      9  C   UNL     1       3.816   4.008  19.377  0.00  0.00    +0.000 C 
ATOM     10  C   UNL     1       3.615   3.389  17.980  0.00  0.00    +0.000 C 
ATOM     11  C   UNL     1       4.262   4.218  16.873  0.00  0.00    +0.000 C 
BRANCH   4  12
ATOM     12  O   UNL     1       6.226   3.638  15.111  0.00  0.00    +0.000 OA
BRANCH  12  14
ATOM     13  C   UNL     1       5.323   3.928  12.859  0.00  0.00    +0.000 C 
ATOM     14  C   UNL     1       6.191   4.529  13.968  0.00  0.00    +0.000 C 
ATOM     15  C   UNL     1       7.605   4.881  13.495  0.00  0.00    +0.000 C 
ATOM     16  C   UNL     1       5.514   5.821  14.457  0.00  0.00    +0.000 C 
ENDBRANCH  12  14
ENDBRANCH   4  12
ENDBRANCH   1   9
BRANCH   2  17
ATOM     17  C   UNL     1       2.251   7.629  19.498  0.00  0.00    +0.000 A 
ATOM     18  C   UNL     1       1.469   7.699  20.650  0.00  0.00    +0.000 A 
ATOM     19  C   UNL     1       0.516   8.720  20.799  0.00  0.00    +0.000 A 
ATOM     20  C   UNL     1       0.350   9.726  19.829  0.00  0.00    +0.000 A 
ATOM     21  C   UNL     1       1.294   9.737  18.788  0.00  0.00    +0.000 A 
ATOM     22  F   UNL     1       1.290  10.716  17.871  0.00  0.00    +0.000 F 
ATOM     23  C   UNL     1       2.229   8.718  18.623  0.00  0.00    +0.000 A 
BRANCH  20  24
ATOM     24  C   UNL     1      -0.775  10.703  19.880  0.00  0.00    +0.000 A 
ATOM     25  C   UNL     1      -0.885  11.593  20.967  0.00  0.00    +0.000 A 
ATOM     26  C   UNL     1      -1.913  12.527  21.006  0.00  0.00    +0.000 A 
ATOM     27  N   UNL     1      -2.861  12.631  20.058  0.00  0.00    +0.000 NA
ATOM     28  C   UNL     1      -2.755  11.787  19.008  0.00  0.00    +0.000 A 
ATOM     29  C   UNL     1      -1.744  10.839  18.860  0.00  0.00    +0.000 A 
BRANCH  29  30
ATOM     30  C   UNL     1      -1.730  10.085  17.644  0.00  0.00    +0.000 C 
ATOM     31  N   UNL     1      -1.726   9.478  16.654  0.00  0.00    +0.000 NA
ENDBRANCH  29  30
ENDBRANCH  20  24
ENDBRANCH   2  17
BRANCH   1  32
ATOM     32  C   UNL     1       1.948   4.939  20.745  0.00  0.00    +0.000 C 
ATOM     33  C   UNL     1       0.796   4.005  20.439  0.00  0.00    +0.000 C 
ATOM     34  C   UNL     1       1.800   3.622  21.471  0.00  0.00    +0.000 C 
ENDBRANCH   1  32
TORSDOF 7
ENDMDL
MODEL 8
REMARK VINA RESULT:      -7.3      3.827     10.578
REMARK  Name = 
REMARK  10 active torsions:
REMARK  status: ('A' for Active; 'I' for Inactive)
REMARK    1  A    between atoms: C_1  and  C_2
REMARK    2  A    between atoms: C_2  and  C_3
REMARK    3  A    between atoms: C_2  and  C_4
REMARK    4  A    between atoms: C_2  and  O_5
REMARK    5  A    between atoms: O_5  and  C_6
REMARK    6  A    between atoms: C_11  and  N_12
REMARK    7  A    between atoms: N_12  and  C_30
REMARK    8  A    between atoms: C_13  and  C_15
REMARK    9  A    between atoms: C_18  and  C_19
REMARK   10  A    between atoms: C_24  and  C_25
REMARK                            x       y       z     vdW  Elec       q    Type
REMARK                         _______ _______ _______ _____ _____    ______ ____
ROOT
ATOM      1  N   UNL     1       3.103   5.374  19.726  0.00  0.00    +0.000 N 
ATOM      2  C   UNL     1       3.148   6.583  18.993  0.00  0.00    +0.000 C 
ATOM      3  O   UNL     1       3.869   6.764  18.012  0.00  0.00    +0.000 OA
ENDROOT
BRANCH   1   9
ATOM      4  C   UNL     1       6.821   4.189  16.321  0.00  0.00    +0.000 C 
ATOM      5  O   UNL     1       8.000   4.395  16.578  0.00  0.00    +0.000 OA
ATOM      6  N   UNL     1       5.795   4.537  17.170  0.00  0.00    +0.000 N 
ATOM      7  C   UNL     1       6.056   5.301  18.384  0.00  0.00    +0.000 C 
ATOM      8  C   UNL     1       5.515   4.567  19.606  0.00  0.00    +0.000 C 
ATOM      9  C   UNL     1       4.018   4.210  19.446  0.00  0.00    +0.000 C 
ATOM     10  C   UNL     1       3.843   3.438  18.124  0.00  0.00    +0.000 C 
ATOM     11  C   UNL     1       4.402   4.198  16.923  0.00  0.00    +0.000 C 
BRANCH   4  12
ATOM     12  O   UNL     1       6.375   3.598  15.178  0.00  0.00    +0.000 OA
BRANCH  12  14
ATOM     13  C   UNL     1       5.696   3.480  12.834  0.00  0.00    +0.000 C 
ATOM     14  C   UNL     1       6.302   4.349  13.941  0.00  0.00    +0.000 C 
ATOM     15  C   UNL     1       7.667   4.932  13.562  0.00  0.00    +0.000 C 
ATOM     16  C   UNL     1       5.339   5.518  14.210  0.00  0.00    +0.000 C 
ENDBRANCH  12  14
ENDBRANCH   4  12
ENDBRANCH   1   9
BRANCH   2  17
ATOM     17  C   UNL     1       2.228   7.724  19.299  0.00  0.00    +0.000 A 
ATOM     18  C   UNL     1       1.450   7.840  20.449  0.00  0.00    +0.000 A 
ATOM     19  C   UNL     1       0.421   8.794  20.516  0.00  0.00    +0.000 A 
ATOM     20  C   UNL     1       0.173   9.691  19.459  0.00  0.00    +0.000 A 
ATOM     21  C   UNL     1       1.109   9.678  18.411  0.00  0.00    +0.000 A 
ATOM     22  F   UNL     1       1.024  10.565  17.408  0.00  0.00    +0.000 F 
ATOM     23  C   UNL     1       2.119   8.723  18.329  0.00  0.00    +0.000 A 
BRANCH  20  24
ATOM     24  C   UNL     1      -1.024  10.580  19.435  0.00  0.00    +0.000 A 
ATOM     25  C   UNL     1      -1.942  10.496  18.369  0.00  0.00    +0.000 A 
ATOM     26  C   UNL     1      -3.075  11.298  18.355  0.00  0.00    +0.000 A 
ATOM     27  N   UNL     1      -3.359  12.202  19.309  0.00  0.00    +0.000 NA
ATOM     28  C   UNL     1      -2.488  12.281  20.340  0.00  0.00    +0.000 A 
ATOM     29  C   UNL     1      -1.342  11.497  20.462  0.00  0.00    +0.000 A 
BRANCH  29  30
ATOM     30  C   UNL     1      -0.575  11.646  21.661  0.00  0.00    +0.000 C 
ATOM     31  N   UNL     1       0.055  11.765  22.630  0.00  0.00    +0.000 NA
ENDBRANCH  29  30
ENDBRANCH  20  24
ENDBRANCH   2  17
BRANCH   1  32
ATOM     32  C   UNL     1       2.044   5.094  20.690  0.00  0.00    +0.000 C 
ATOM     33  C   UNL     1       0.897   4.165  20.351  0.00  0.00    +0.000 C 
ATOM     34  C   UNL     1       1.880   3.770  21.397  0.00  0.00    +0.000 C 
ENDBRANCH   1  32
TORSDOF 7
ENDMDL
MODEL 9
REMARK VINA RESULT:      -7.3      1.473      1.665
REMARK  Name = 
REMARK  10 active torsions:
REMARK  status: ('A' for Active; 'I' for Inactive)
REMARK    1  A    between atoms: C_1  and  C_2
REMARK    2  A    between atoms: C_2  and  C_3
REMARK    3  A    between atoms: C_2  and  C_4
REMARK    4  A    between atoms: C_2  and  O_5
REMARK    5  A    between atoms: O_5  and  C_6
REMARK    6  A    between atoms: C_11  and  N_12
REMARK    7  A    between atoms: N_12  and  C_30
REMARK    8  A    between atoms: C_13  and  C_15
REMARK    9  A    between atoms: C_18  and  C_19
REMARK   10  A    between atoms: C_24  and  C_25
REMARK                            x       y       z     vdW  Elec       q    Type
REMARK                         _______ _______ _______ _____ _____    ______ ____
ROOT
ATOM      1  N   UNL     1       0.331  11.888  18.822  0.00  0.00    +0.000 N 
ATOM      2  C   UNL     1      -0.015  10.535  18.597  0.00  0.00    +0.000 C 
ATOM      3  O   UNL     1      -1.106  10.170  18.160  0.00  0.00    +0.000 OA
ENDROOT
BRANCH   1   9
ATOM      4  C   UNL     1      -3.037  14.491  21.773  0.00  0.00    +0.000 C 
ATOM      5  O   UNL     1      -2.712  15.530  22.334  0.00  0.00    +0.000 OA
ATOM      6  N   UNL     1      -2.162  13.736  21.025  0.00  0.00    +0.000 N 
ATOM      7  C   UNL     1      -0.745  14.073  20.967  0.00  0.00    +0.000 C 
ATOM      8  C   UNL     1      -0.295  14.255  19.522  0.00  0.00    +0.000 C 
ATOM      9  C   UNL     1      -0.644  13.025  18.651  0.00  0.00    +0.000 C 
ATOM     10  C   UNL     1      -2.149  12.732  18.807  0.00  0.00    +0.000 C 
ATOM     11  C   UNL     1      -2.565  12.562  20.266  0.00  0.00    +0.000 C 
BRANCH   4  12
ATOM     12  O   UNL     1      -4.286  13.953  21.816  0.00  0.00    +0.000 OA
BRANCH  12  14
ATOM     13  C   UNL     1      -5.346  14.861  23.821  0.00  0.00    +0.000 C 
ATOM     14  C   UNL     1      -4.893  13.598  23.084  0.00  0.00    +0.000 C 
ATOM     15  C   UNL     1      -3.957  12.720  23.921  0.00  0.00    +0.000 C 
ATOM     16  C   UNL     1      -6.144  12.772  22.740  0.00  0.00    +0.000 C 
ENDBRANCH  12  14
ENDBRANCH   4  12
ENDBRANCH   1   9
BRANCH   2  17
ATOM     17  C   UNL     1       0.975   9.428  18.782  0.00  0.00    +0.000 A 
ATOM     18  C   UNL     1       1.727   8.846  17.763  0.00  0.00    +0.000 A 
ATOM     19  C   UNL     1       2.413   7.641  17.987  0.00  0.00    +0.000 A 
ATOM     20  C   UNL     1       2.408   7.009  19.245  0.00  0.00    +0.000 A 
ATOM     21  C   UNL     1       1.814   7.732  20.293  0.00  0.00    +0.000 A 
ATOM     22  F   UNL     1       1.850   7.268  21.551  0.00  0.00    +0.000 F 
ATOM     23  C   UNL     1       1.116   8.918  20.075  0.00  0.00    +0.000 A 
BRANCH  20  24
ATOM     24  C   UNL     1       2.971   5.644  19.452  0.00  0.00    +0.000 A 
ATOM     25  C   UNL     1       2.225   4.672  20.147  0.00  0.00    +0.000 A 
ATOM     26  C   UNL     1       2.729   3.390  20.316  0.00  0.00    +0.000 A 
ATOM     27  N   UNL     1       3.936   2.999  19.869  0.00  0.00    +0.000 NA
ATOM     28  C   UNL     1       4.652   3.923  19.192  0.00  0.00    +0.000 A 
ATOM     29  C   UNL     1       4.220   5.225  18.941  0.00  0.00    +0.000 A 
BRANCH  29  30
ATOM     30  C   UNL     1       5.066   6.048  18.132  0.00  0.00    +0.000 C 
ATOM     31  N   UNL     1       5.751   6.710  17.468  0.00  0.00    +0.000 NA
ENDBRANCH  29  30
ENDBRANCH  20  24
ENDBRANCH   2  17
BRANCH   1  32
ATOM     32  C   UNL     1       1.709  12.303  19.061  0.00  0.00    +0.000 C 
ATOM     33  C   UNL     1       2.740  12.286  17.951  0.00  0.00    +0.000 C 
ATOM     34  C   UNL     1       2.304  13.587  18.531  0.00  0.00    +0.000 C 
ENDBRANCH   1  32
TORSDOF 7
ENDMDL
