MODEL 1
REMARK VINA RESULT:      -6.9      0.000      0.000
REMARK  Name = 
REMARK  2 active torsions:
REMARK  status: ('A' for Active; 'I' for Inactive)
REMARK    1  A    between atoms: C_6  and  C_8
REMARK    2  A    between atoms: C_9  and  C_10
REMARK                            x       y       z     vdW  Elec       q    Type
REMARK                         _______ _______ _______ _____ _____    ______ ____
ROOT
ATOM      1  O   UNL     1       0.658   3.316  20.468  0.00  0.00    +0.000 OA
ATOM      2  C   UNL     1       1.541   3.819  19.776  0.00  0.00    +0.000 C 
ATOM      3  C   UNL     1       2.567   4.671  20.404  0.00  0.00    +0.000 C 
ATOM      4  C   UNL     1       3.559   5.172  19.663  0.00  0.00    +0.000 C 
ATOM      5  N   UNL     1       3.765   4.874  18.318  0.00  0.00    +0.000 N 
ATOM      6  C   UNL     1       4.798   5.538  17.638  0.00  0.00    +0.000 C 
ATOM      7  O   UNL     1       5.506   6.399  18.165  0.00  0.00    +0.000 OA
ATOM      8  C   UNL     1       2.980   3.759  17.760  0.00  0.00    +0.000 C 
ATOM      9  C   UNL     1       1.556   3.696  18.280  0.00  0.00    +0.000 C 
ENDROOT
BRANCH   6  10
ATOM     10  C   UNL     1       4.998   5.215  16.198  0.00  0.00    +0.000 C 
ATOM     11  C   UNL     1       6.204   4.799  15.779  0.00  0.00    +0.000 C 
BRANCH  11  12
ATOM     12  C   UNL     1       6.472   4.549  14.363  0.00  0.00    +0.000 A 
ATOM     13  C   UNL     1       5.690   3.619  13.665  0.00  0.00    +0.000 A 
ATOM     14  C   UNL     1       5.949   3.348  12.320  0.00  0.00    +0.000 A 
ATOM     15  C   UNL     1       6.990   4.008  11.664  0.00  0.00    +0.000 A 
ATOM     16  C   UNL     1       7.766   4.940  12.353  0.00  0.00    +0.000 A 
ATOM     17  C   UNL     1       7.509   5.210  13.699  0.00  0.00    +0.000 A 
ENDBRANCH  11  12
ENDBRANCH   6  10
TORSDOF 2
ENDMDL
MODEL 2
REMARK VINA RESULT:      -6.9      0.353      1.224
REMARK  Name = 
REMARK  2 active torsions:
REMARK  status: ('A' for Active; 'I' for Inactive)
REMARK    1  A    between atoms: C_6  and  C_8
REMARK    2  A    between atoms: C_9  and  C_10
REMARK                            x       y       z     vdW  Elec       q    Type
REMARK                         _______ _______ _______ _____ _____    ______ ____
ROOT
ATOM      1  O   UNL     1       0.714   2.818  20.712  0.00  0.00    +0.000 OA
ATOM      2  C   UNL     1       1.532   3.366  19.976  0.00  0.00    +0.000 C 
ATOM      3  C   UNL     1       2.403   4.428  20.512  0.00  0.00    +0.000 C 
ATOM      4  C   UNL     1       3.331   4.985  19.728  0.00  0.00    +0.000 C 
ATOM      5  N   UNL     1       3.615   4.571  18.428  0.00  0.00    +0.000 N 
ATOM      6  C   UNL     1       4.557   5.301  17.688  0.00  0.00    +0.000 C 
ATOM      7  O   UNL     1       5.115   6.312  18.118  0.00  0.00    +0.000 OA
ATOM      8  C   UNL     1       3.020   3.295  17.995  0.00  0.00    +0.000 C 
ATOM      9  C   UNL     1       1.607   3.078  18.504  0.00  0.00    +0.000 C 
ENDROOT
BRANCH   6  10
ATOM     10  C   UNL     1       4.842   4.852  16.296  0.00  0.00    +0.000 C 
ATOM     11  C   UNL     1       6.090   4.964  15.812  0.00  0.00    +0.000 C 
BRANCH  11  12
ATOM     12  C   UNL     1       6.402   4.613  14.428  0.00  0.00    +0.000 A 
ATOM     13  C   UNL     1       7.468   5.249  13.777  0.00  0.00    +0.000 A 
ATOM     14  C   UNL     1       7.762   4.946  12.446  0.00  0.00    +0.000 A 
ATOM     15  C   UNL     1       6.996   4.003  11.759  0.00  0.00    +0.000 A 
ATOM     16  C   UNL     1       5.939   3.362  12.405  0.00  0.00    +0.000 A 
ATOM     17  C   UNL     1       5.642   3.666  13.736  0.00  0.00    +0.000 A 
ENDBRANCH  11  12
ENDBRANCH   6  10
TORSDOF 2
ENDMDL
MODEL 3
REMARK VINA RESULT:      -6.8      1.235      1.713
REMARK  Name = 
REMARK  2 active torsions:
REMARK  status: ('A' for Active; 'I' for Inactive)
REMARK    1  A    between atoms: C_6  and  C_8
REMARK    2  A    between atoms: C_9  and  C_10
REMARK                            x       y       z     vdW  Elec       q    Type
REMARK                         _______ _______ _______ _____ _____    ______ ____
ROOT
ATOM      1  O   UNL     1       1.866   2.362  22.006  0.00  0.00    +0.000 OA
ATOM      2  C   UNL     1       2.305   2.991  21.046  0.00  0.00    +0.000 C 
ATOM      3  C   UNL     1       2.330   4.465  21.085  0.00  0.00    +0.000 C 
ATOM      4  C   UNL     1       2.858   5.148  20.066  0.00  0.00    +0.000 C 
ATOM      5  N   UNL     1       3.492   4.564  18.971  0.00  0.00    +0.000 N 
ATOM      6  C   UNL     1       3.927   5.398  17.930  0.00  0.00    +0.000 C 
ATOM      7  O   UNL     1       3.741   6.617  17.921  0.00  0.00    +0.000 OA
ATOM      8  C   UNL     1       3.800   3.127  19.074  0.00  0.00    +0.000 C 
ATOM      9  C   UNL     1       2.718   2.320  19.768  0.00  0.00    +0.000 C 
ENDROOT
BRANCH   6  10
ATOM     10  C   UNL     1       4.593   4.757  16.762  0.00  0.00    +0.000 C 
ATOM     11  C   UNL     1       5.262   5.523  15.885  0.00  0.00    +0.000 C 
BRANCH  11  12
ATOM     12  C   UNL     1       5.862   4.952  14.680  0.00  0.00    +0.000 A 
ATOM     13  C   UNL     1       7.108   5.418  14.240  0.00  0.00    +0.000 A 
ATOM     14  C   UNL     1       7.683   4.903  13.077  0.00  0.00    +0.000 A 
ATOM     15  C   UNL     1       7.018   3.916  12.348  0.00  0.00    +0.000 A 
ATOM     16  C   UNL     1       5.781   3.443  12.786  0.00  0.00    +0.000 A 
ATOM     17  C   UNL     1       5.203   3.959  13.949  0.00  0.00    +0.000 A 
ENDBRANCH  11  12
ENDBRANCH   6  10
TORSDOF 2
ENDMDL
MODEL 4
REMARK VINA RESULT:      -6.6      4.814      6.073
REMARK  Name = 
REMARK  2 active torsions:
REMARK  status: ('A' for Active; 'I' for Inactive)
REMARK    1  A    between atoms: C_6  and  C_8
REMARK    2  A    between atoms: C_9  and  C_10
REMARK                            x       y       z     vdW  Elec       q    Type
REMARK                         _______ _______ _______ _____ _____    ______ ____
ROOT
ATOM      1  O   UNL     1      -0.865  10.457  22.515  0.00  0.00    +0.000 OA
ATOM      2  C   UNL     1      -0.220   9.926  21.614  0.00  0.00    +0.000 C 
ATOM      3  C   UNL     1       0.131  10.700  20.410  0.00  0.00    +0.000 C 
ATOM      4  C   UNL     1       0.881  10.142  19.455  0.00  0.00    +0.000 C 
ATOM      5  N   UNL     1       1.455   8.876  19.545  0.00  0.00    +0.000 N 
ATOM      6  C   UNL     1       2.151   8.378  18.433  0.00  0.00    +0.000 C 
ATOM      7  O   UNL     1       2.244   8.991  17.367  0.00  0.00    +0.000 OA
ATOM      8  C   UNL     1       1.425   8.228  20.869  0.00  0.00    +0.000 C 
ATOM      9  C   UNL     1       0.136   8.467  21.634  0.00  0.00    +0.000 C 
ENDROOT
BRANCH   6  10
ATOM     10  C   UNL     1       2.750   7.019  18.542  0.00  0.00    +0.000 C 
ATOM     11  C   UNL     1       2.063   5.960  18.083  0.00  0.00    +0.000 C 
BRANCH  11  12
ATOM     12  C   UNL     1       2.573   4.598  18.241  0.00  0.00    +0.000 A 
ATOM     13  C   UNL     1       3.678   4.365  19.069  0.00  0.00    +0.000 A 
ATOM     14  C   UNL     1       4.194   3.075  19.210  0.00  0.00    +0.000 A 
ATOM     15  C   UNL     1       3.606   2.010  18.526  0.00  0.00    +0.000 A 
ATOM     16  C   UNL     1       2.500   2.236  17.707  0.00  0.00    +0.000 A 
ATOM     17  C   UNL     1       1.984   3.526  17.563  0.00  0.00    +0.000 A 
ENDBRANCH  11  12
ENDBRANCH   6  10
TORSDOF 2
ENDMDL
MODEL 5
REMARK VINA RESULT:      -6.6      1.190      1.211
REMARK  Name = 
REMARK  2 active torsions:
REMARK  status: ('A' for Active; 'I' for Inactive)
REMARK    1  A    between atoms: C_6  and  C_8
REMARK    2  A    between atoms: C_9  and  C_10
REMARK                            x       y       z     vdW  Elec       q    Type
REMARK                         _______ _______ _______ _____ _____    ______ ____
ROOT
ATOM      1  O   UNL     1       1.842   2.231  21.920  0.00  0.00    +0.000 OA
ATOM      2  C   UNL     1       2.262   2.912  20.988  0.00  0.00    +0.000 C 
ATOM      3  C   UNL     1       2.451   4.363  21.168  0.00  0.00    +0.000 C 
ATOM      4  C   UNL     1       2.961   5.096  20.174  0.00  0.00    +0.000 C 
ATOM      5  N   UNL     1       3.429   4.572  18.970  0.00  0.00    +0.000 N 
ATOM      6  C   UNL     1       3.861   5.466  17.978  0.00  0.00    +0.000 C 
ATOM      7  O   UNL     1       3.810   6.691  18.106  0.00  0.00    +0.000 OA
ATOM      8  C   UNL     1       3.586   3.109  18.902  0.00  0.00    +0.000 C 
ATOM      9  C   UNL     1       2.487   2.345  19.616  0.00  0.00    +0.000 C 
ENDROOT
BRANCH   6  10
ATOM     10  C   UNL     1       4.349   4.891  16.694  0.00  0.00    +0.000 C 
ATOM     11  C   UNL     1       5.489   5.354  16.157  0.00  0.00    +0.000 C 
BRANCH  11  12
ATOM     12  C   UNL     1       5.966   4.880  14.859  0.00  0.00    +0.000 A 
ATOM     13  C   UNL     1       5.239   3.899  14.171  0.00  0.00    +0.000 A 
ATOM     14  C   UNL     1       5.694   3.415  12.943  0.00  0.00    +0.000 A 
ATOM     15  C   UNL     1       6.877   3.911  12.393  0.00  0.00    +0.000 A 
ATOM     16  C   UNL     1       7.600   4.893  13.070  0.00  0.00    +0.000 A 
ATOM     17  C   UNL     1       7.147   5.376  14.300  0.00  0.00    +0.000 A 
ENDBRANCH  11  12
ENDBRANCH   6  10
TORSDOF 2
ENDMDL
MODEL 6
REMARK VINA RESULT:      -6.6      4.594      5.940
REMARK  Name = 
REMARK  2 active torsions:
REMARK  status: ('A' for Active; 'I' for Inactive)
REMARK    1  A    between atoms: C_6  and  C_8
REMARK    2  A    between atoms: C_9  and  C_10
REMARK                            x       y       z     vdW  Elec       q    Type
REMARK                         _______ _______ _______ _____ _____    ______ ____
ROOT
ATOM      1  O   UNL     1      -0.559  10.714  23.299  0.00  0.00    +0.000 OA
ATOM      2  C   UNL     1      -0.124  10.366  22.203  0.00  0.00    +0.000 C 
ATOM      3  C   UNL     1       0.345  11.384  21.245  0.00  0.00    +0.000 C 
ATOM      4  C   UNL     1       0.869  11.004  20.076  0.00  0.00    +0.000 C 
ATOM      5  N   UNL     1       1.102   9.680  19.711  0.00  0.00    +0.000 N 
ATOM      6  C   UNL     1       1.580   9.419  18.417  0.00  0.00    +0.000 C 
ATOM      7  O   UNL     1       1.767  10.303  17.578  0.00  0.00    +0.000 OA
ATOM      8  C   UNL     1       0.981   8.669  20.776  0.00  0.00    +0.000 C 
ATOM      9  C   UNL     1      -0.156   8.937  21.744  0.00  0.00    +0.000 C 
ENDROOT
BRANCH   6  10
ATOM     10  C   UNL     1       1.814   7.998  18.039  0.00  0.00    +0.000 C 
ATOM     11  C   UNL     1       3.043   7.475  18.175  0.00  0.00    +0.000 C 
BRANCH  11  12
ATOM     12  C   UNL     1       3.341   6.111  17.741  0.00  0.00    +0.000 A 
ATOM     13  C   UNL     1       2.431   5.083  18.018  0.00  0.00    +0.000 A 
ATOM     14  C   UNL     1       2.712   3.770  17.636  0.00  0.00    +0.000 A 
ATOM     15  C   UNL     1       3.904   3.477  16.970  0.00  0.00    +0.000 A 
ATOM     16  C   UNL     1       4.809   4.499  16.685  0.00  0.00    +0.000 A 
ATOM     17  C   UNL     1       4.530   5.812  17.070  0.00  0.00    +0.000 A 
ENDBRANCH  11  12
ENDBRANCH   6  10
TORSDOF 2
ENDMDL
MODEL 7
REMARK VINA RESULT:      -6.5      4.648      6.138
REMARK  Name = 
REMARK  2 active torsions:
REMARK  status: ('A' for Active; 'I' for Inactive)
REMARK    1  A    between atoms: C_6  and  C_8
REMARK    2  A    between atoms: C_9  and  C_10
REMARK                            x       y       z     vdW  Elec       q    Type
REMARK                         _______ _______ _______ _____ _____    ______ ____
ROOT
ATOM      1  O   UNL     1      -0.457  11.078  23.064  0.00  0.00    +0.000 OA
ATOM      2  C   UNL     1      -0.019  10.653  21.998  0.00  0.00    +0.000 C 
ATOM      3  C   UNL     1       0.576  11.588  21.025  0.00  0.00    +0.000 C 
ATOM      4  C   UNL     1       1.103  11.120  19.891  0.00  0.00    +0.000 C 
ATOM      5  N   UNL     1       1.225   9.768  19.578  0.00  0.00    +0.000 N 
ATOM      6  C   UNL     1       1.723   9.419  18.313  0.00  0.00    +0.000 C 
ATOM      7  O   UNL     1       2.020  10.251  17.453  0.00  0.00    +0.000 OA
ATOM      8  C   UNL     1       0.974   8.811  20.670  0.00  0.00    +0.000 C 
ATOM      9  C   UNL     1      -0.166   9.217  21.585  0.00  0.00    +0.000 C 
ENDROOT
BRANCH   6  10
ATOM     10  C   UNL     1       1.837   7.969  17.990  0.00  0.00    +0.000 C 
ATOM     11  C   UNL     1       2.998   7.335  18.219  0.00  0.00    +0.000 C 
BRANCH  11  12
ATOM     12  C   UNL     1       3.185   5.934  17.844  0.00  0.00    +0.000 A 
ATOM     13  C   UNL     1       4.363   5.544  17.193  0.00  0.00    +0.000 A 
ATOM     14  C   UNL     1       4.546   4.216  16.803  0.00  0.00    +0.000 A 
ATOM     15  C   UNL     1       3.555   3.268  17.065  0.00  0.00    +0.000 A 
ATOM     16  C   UNL     1       2.384   3.651  17.719  0.00  0.00    +0.000 A 
ATOM     17  C   UNL     1       2.198   4.980  18.108  0.00  0.00    +0.000 A 
ENDBRANCH  11  12
ENDBRANCH   6  10
TORSDOF 2
ENDMDL
MODEL 8
REMARK VINA RESULT:      -6.5      4.592      6.030
REMARK  Name = 
REMARK  2 active torsions:
REMARK  status: ('A' for Active; 'I' for Inactive)
REMARK    1  A    between atoms: C_6  and  C_8
REMARK    2  A    between atoms: C_9  and  C_10
REMARK                            x       y       z     vdW  Elec       q    Type
REMARK                         _______ _______ _______ _____ _____    ______ ____
ROOT
ATOM      1  O   UNL     1       1.694   4.598  17.931  0.00  0.00    +0.000 OA
ATOM      2  C   UNL     1       2.839   5.037  17.862  0.00  0.00    +0.000 C 
ATOM      3  C   UNL     1       3.952   4.130  17.524  0.00  0.00    +0.000 C 
ATOM      4  C   UNL     1       5.189   4.616  17.393  0.00  0.00    +0.000 C 
ATOM      5  N   UNL     1       5.515   5.969  17.463  0.00  0.00    +0.000 N 
ATOM      6  C   UNL     1       6.869   6.334  17.392  0.00  0.00    +0.000 C 
ATOM      7  O   UNL     1       7.784   5.512  17.311  0.00  0.00    +0.000 OA
ATOM      8  C   UNL     1       4.392   6.922  17.440  0.00  0.00    +0.000 C 
ATOM      9  C   UNL     1       3.180   6.454  18.224  0.00  0.00    +0.000 C 
ENDROOT
BRANCH   6  10
ATOM     10  C   UNL     1       7.201   7.783  17.479  0.00  0.00    +0.000 C 
ATOM     11  C   UNL     1       8.273   8.170  18.189  0.00  0.00    +0.000 C 
BRANCH  11  12
ATOM     12  C   UNL     1       8.593   9.585  18.372  0.00  0.00    +0.000 A 
ATOM     13  C   UNL     1       9.390   9.980  19.454  0.00  0.00    +0.000 A 
ATOM     14  C   UNL     1       9.682  11.329  19.659  0.00  0.00    +0.000 A 
ATOM     15  C   UNL     1       9.183  12.293  18.781  0.00  0.00    +0.000 A 
ATOM     16  C   UNL     1       8.396  11.904  17.698  0.00  0.00    +0.000 A 
ATOM     17  C   UNL     1       8.100  10.554  17.493  0.00  0.00    +0.000 A 
ENDBRANCH  11  12
ENDBRANCH   6  10
TORSDOF 2
ENDMDL
MODEL 9
REMARK VINA RESULT:      -6.5      4.459      5.842
REMARK  Name = 
REMARK  2 active torsions:
REMARK  status: ('A' for Active; 'I' for Inactive)
REMARK    1  A    between atoms: C_6  and  C_8
REMARK    2  A    between atoms: C_9  and  C_10
REMARK                            x       y       z     vdW  Elec       q    Type
REMARK                         _______ _______ _______ _____ _____    ______ ____
ROOT
ATOM      1  O   UNL     1      -0.830  10.057  22.895  0.00  0.00    +0.000 OA
ATOM      2  C   UNL     1      -0.216   9.687  21.897  0.00  0.00    +0.000 C 
ATOM      3  C   UNL     1       0.025  10.634  20.793  0.00  0.00    +0.000 C 
ATOM      4  C   UNL     1       0.741  10.251  19.732  0.00  0.00    +0.000 C 
ATOM      5  N   UNL     1       1.379   9.017  19.617  0.00  0.00    +0.000 N 
ATOM      6  C   UNL     1       2.028   8.712  18.411  0.00  0.00    +0.000 C 
ATOM      7  O   UNL     1       2.028   9.467  17.437  0.00  0.00    +0.000 OA
ATOM      8  C   UNL     1       1.459   8.198  20.839  0.00  0.00    +0.000 C 
ATOM      9  C   UNL     1       0.209   8.261  21.698  0.00  0.00    +0.000 C 
ENDROOT
BRANCH   6  10
ATOM     10  C   UNL     1       2.697   7.386  18.301  0.00  0.00    +0.000 C 
ATOM     11  C   UNL     1       1.958   6.299  18.024  0.00  0.00    +0.000 C 
BRANCH  11  12
ATOM     12  C   UNL     1       2.554   4.964  17.987  0.00  0.00    +0.000 A 
ATOM     13  C   UNL     1       1.748   3.854  17.703  0.00  0.00    +0.000 A 
ATOM     14  C   UNL     1       2.295   2.570  17.690  0.00  0.00    +0.000 A 
ATOM     15  C   UNL     1       3.653   2.388  17.957  0.00  0.00    +0.000 A 
ATOM     16  C   UNL     1       4.461   3.490  18.232  0.00  0.00    +0.000 A 
ATOM     17  C   UNL     1       3.915   4.776  18.248  0.00  0.00    +0.000 A 
ENDBRANCH  11  12
ENDBRANCH   6  10
TORSDOF 2
ENDMDL
