MODEL 1
REMARK VINA RESULT:      -8.3      0.000      0.000
REMARK  Name = 
REMARK  8 active torsions:
REMARK  status: ('A' for Active; 'I' for Inactive)
REMARK    1  A    between atoms: C_6  and  N_7
REMARK    2  A    between atoms: N_7  and  C_8
REMARK    3  A    between atoms: C_24  and  O_25
REMARK    4  A    between atoms: O_25  and  C_26
REMARK    5  A    between atoms: C_26  and  C_27
REMARK    6  A    between atoms: C_27  and  O_28
REMARK    7  A    between atoms: C_27  and  C_29
REMARK    8  A    between atoms: C_29  and  O_30
REMARK                            x       y       z     vdW  Elec       q    Type
REMARK                         _______ _______ _______ _____ _____    ______ ____
ROOT
ATOM      1  O   UNL     1      -0.230  10.469  18.118  0.00  0.00    +0.000 OA
ATOM      2  C   UNL     1       0.315  10.152  19.174  0.00  0.00    +0.000 C 
ATOM      3  C   UNL     1       1.229   8.965  19.182  0.00  0.00    +0.000 A 
ATOM      4  C   UNL     1       1.837   8.654  17.956  0.00  0.00    +0.000 A 
ATOM      5  C   UNL     1       2.728   7.582  17.840  0.00  0.00    +0.000 A 
ATOM      6  C   UNL     1       3.061   6.800  18.948  0.00  0.00    +0.000 A 
ATOM      7  C   UNL     1       2.425   7.079  20.161  0.00  0.00    +0.000 A 
ATOM      8  C   UNL     1       1.510   8.145  20.282  0.00  0.00    +0.000 A 
ATOM      9  O   UNL     1       0.970   8.254  21.535  0.00  0.00    +0.000 OA
ATOM     10  C   UNL     1      -0.379   8.705  21.556  0.00  0.00    +0.000 C 
ATOM     11  C   UNL     1      -0.395  10.204  21.551  0.00  0.00    +0.000 A 
ATOM     12  C   UNL     1      -0.799  10.886  22.707  0.00  0.00    +0.000 A 
ATOM     13  C   UNL     1      -0.858  12.268  22.720  0.00  0.00    +0.000 A 
ATOM     14  C   UNL     1      -0.492  12.981  21.580  0.00  0.00    +0.000 A 
ATOM     15  C   UNL     1      -0.053  12.338  20.410  0.00  0.00    +0.000 A 
ATOM     16  C   UNL     1      -0.012  10.923  20.400  0.00  0.00    +0.000 A 
ENDROOT
BRANCH   6  17
ATOM     17  N   UNL     1       3.959   5.710  18.858  0.00  0.00    +0.000 N 
ATOM     18  H   UNL     1       3.514   4.841  19.165  0.00  0.00    +0.000 HD
BRANCH  17  19
ATOM     19  C   UNL     1       4.866   5.467  17.796  0.00  0.00    +0.000 A 
ATOM     20  C   UNL     1       6.115   6.106  17.752  0.00  0.00    +0.000 A 
ATOM     21  C   UNL     1       6.990   5.894  16.687  0.00  0.00    +0.000 A 
ATOM     22  C   UNL     1       6.634   5.011  15.674  0.00  0.00    +0.000 A 
ATOM     23  F   UNL     1       7.471   4.823  14.645  0.00  0.00    +0.000 F 
ATOM     24  C   UNL     1       5.430   4.323  15.714  0.00  0.00    +0.000 A 
ATOM     25  C   UNL     1       4.562   4.548  16.779  0.00  0.00    +0.000 A 
ATOM     26  F   UNL     1       3.392   3.890  16.810  0.00  0.00    +0.000 F 
ENDBRANCH  17  19
ENDBRANCH   6  17
BRANCH  15  27
ATOM     27  O   UNL     1       0.363  13.051  19.295  0.00  0.00    +0.000 OA
BRANCH  27  28
ATOM     28  C   UNL     1       1.583  13.787  19.475  0.00  0.00    +0.000 C 
BRANCH  28  29
ATOM     29  C   UNL     1       2.769  13.290  18.648  0.00  0.00    +0.000 C 
BRANCH  29  30
ATOM     30  O   UNL     1       2.258  12.801  17.392  0.00  0.00    +0.000 OA
ATOM     31  H   UNL     1       2.739  13.253  16.675  0.00  0.00    +0.000 HD
ENDBRANCH  29  30
BRANCH  29  32
ATOM     32  C   UNL     1       3.800  14.395  18.395  0.00  0.00    +0.000 C 
BRANCH  32  33
ATOM     33  O   UNL     1       3.673  14.932  17.079  0.00  0.00    +0.000 OA
ATOM     34  H   UNL     1       4.094  15.809  17.075  0.00  0.00    +0.000 HD
ENDBRANCH  32  33
ENDBRANCH  29  32
ENDBRANCH  28  29
ENDBRANCH  27  28
ENDBRANCH  15  27
TORSDOF 8
ENDMDL
MODEL 2
REMARK VINA RESULT:      -8.1      4.616      8.585
REMARK  Name = 
REMARK  8 active torsions:
REMARK  status: ('A' for Active; 'I' for Inactive)
REMARK    1  A    between atoms: C_6  and  N_7
REMARK    2  A    between atoms: N_7  and  C_8
REMARK    3  A    between atoms: C_24  and  O_25
REMARK    4  A    between atoms: O_25  and  C_26
REMARK    5  A    between atoms: C_26  and  C_27
REMARK    6  A    between atoms: C_27  and  O_28
REMARK    7  A    between atoms: C_27  and  C_29
REMARK    8  A    between atoms: C_29  and  O_30
REMARK                            x       y       z     vdW  Elec       q    Type
REMARK                         _______ _______ _______ _____ _____    ______ ____
ROOT
ATOM      1  O   UNL     1       4.929   6.629  17.596  0.00  0.00    +0.000 OA
ATOM      2  C   UNL     1       3.847   6.292  18.074  0.00  0.00    +0.000 C 
ATOM      3  C   UNL     1       2.849   7.357  18.413  0.00  0.00    +0.000 A 
ATOM      4  C   UNL     1       2.952   8.547  17.678  0.00  0.00    +0.000 A 
ATOM      5  C   UNL     1       2.064   9.608  17.887  0.00  0.00    +0.000 A 
ATOM      6  C   UNL     1       1.029   9.506  18.819  0.00  0.00    +0.000 A 
ATOM      7  C   UNL     1       0.949   8.340  19.584  0.00  0.00    +0.000 A 
ATOM      8  C   UNL     1       1.852   7.275  19.395  0.00  0.00    +0.000 A 
ATOM      9  O   UNL     1       1.637   6.225  20.247  0.00  0.00    +0.000 OA
ATOM     10  C   UNL     1       2.819   5.544  20.650  0.00  0.00    +0.000 C 
ATOM     11  C   UNL     1       3.150   4.492  19.634  0.00  0.00    +0.000 A 
ATOM     12  C   UNL     1       2.996   3.141  19.975  0.00  0.00    +0.000 A 
ATOM     13  C   UNL     1       3.327   2.149  19.069  0.00  0.00    +0.000 A 
ATOM     14  C   UNL     1       3.796   2.501  17.806  0.00  0.00    +0.000 A 
ATOM     15  C   UNL     1       3.937   3.843  17.413  0.00  0.00    +0.000 A 
ATOM     16  C   UNL     1       3.612   4.852  18.351  0.00  0.00    +0.000 A 
ENDROOT
BRANCH   6  17
ATOM     17  N   UNL     1       0.117  10.565  19.050  0.00  0.00    +0.000 N 
ATOM     18  H   UNL     1       0.597  11.468  19.055  0.00  0.00    +0.000 HD
BRANCH  17  19
ATOM     19  C   UNL     1      -1.179  10.681  18.487  0.00  0.00    +0.000 A 
ATOM     20  C   UNL     1      -1.550   9.921  17.367  0.00  0.00    +0.000 A 
ATOM     21  C   UNL     1      -2.813  10.065  16.792  0.00  0.00    +0.000 A 
ATOM     22  C   UNL     1      -3.727  10.947  17.358  0.00  0.00    +0.000 A 
ATOM     23  F   UNL     1      -4.933  11.093  16.793  0.00  0.00    +0.000 F 
ATOM     24  C   UNL     1      -3.410  11.673  18.497  0.00  0.00    +0.000 A 
ATOM     25  C   UNL     1      -2.144  11.527  19.057  0.00  0.00    +0.000 A 
ATOM     26  F   UNL     1      -1.834  12.240  20.152  0.00  0.00    +0.000 F 
ENDBRANCH  17  19
ENDBRANCH   6  17
BRANCH  15  27
ATOM     27  O   UNL     1       4.351   4.193  16.135  0.00  0.00    +0.000 OA
BRANCH  27  28
ATOM     28  C   UNL     1       5.570   3.567  15.708  0.00  0.00    +0.000 C 
BRANCH  28  29
ATOM     29  C   UNL     1       6.789   4.489  15.658  0.00  0.00    +0.000 C 
BRANCH  29  30
ATOM     30  O   UNL     1       6.337   5.799  15.259  0.00  0.00    +0.000 OA
ATOM     31  H   UNL     1       7.114   6.308  14.964  0.00  0.00    +0.000 HD
ENDBRANCH  29  30
BRANCH  29  32
ATOM     32  C   UNL     1       7.503   4.576  17.012  0.00  0.00    +0.000 C 
BRANCH  32  33
ATOM     33  O   UNL     1       7.710   5.932  17.403  0.00  0.00    +0.000 OA
ATOM     34  H   UNL     1       7.917   6.443  16.601  0.00  0.00    +0.000 HD
ENDBRANCH  32  33
ENDBRANCH  29  32
ENDBRANCH  28  29
ENDBRANCH  27  28
ENDBRANCH  15  27
TORSDOF 8
ENDMDL
MODEL 3
REMARK VINA RESULT:      -8.1      2.377      3.282
REMARK  Name = 
REMARK  8 active torsions:
REMARK  status: ('A' for Active; 'I' for Inactive)
REMARK    1  A    between atoms: C_6  and  N_7
REMARK    2  A    between atoms: N_7  and  C_8
REMARK    3  A    between atoms: C_24  and  O_25
REMARK    4  A    between atoms: O_25  and  C_26
REMARK    5  A    between atoms: C_26  and  C_27
REMARK    6  A    between atoms: C_27  and  O_28
REMARK    7  A    between atoms: C_27  and  C_29
REMARK    8  A    between atoms: C_29  and  O_30
REMARK                            x       y       z     vdW  Elec       q    Type
REMARK                         _______ _______ _______ _____ _____    ______ ____
ROOT
ATOM      1  O   UNL     1      -0.693  11.910  18.428  0.00  0.00    +0.000 OA
ATOM      2  C   UNL     1      -0.117  11.735  19.500  0.00  0.00    +0.000 C 
ATOM      3  C   UNL     1       0.559  10.421  19.746  0.00  0.00    +0.000 A 
ATOM      4  C   UNL     1       0.979   9.727  18.601  0.00  0.00    +0.000 A 
ATOM      5  C   UNL     1       1.641   8.498  18.700  0.00  0.00    +0.000 A 
ATOM      6  C   UNL     1       1.929   7.935  19.945  0.00  0.00    +0.000 A 
ATOM      7  C   UNL     1       1.474   8.601  21.087  0.00  0.00    +0.000 A 
ATOM      8  C   UNL     1       0.787   9.829  20.995  0.00  0.00    +0.000 A 
ATOM      9  O   UNL     1       0.399  10.323  22.211  0.00  0.00    +0.000 OA
ATOM     10  C   UNL     1      -0.836  11.030  22.190  0.00  0.00    +0.000 C 
ATOM     11  C   UNL     1      -0.576  12.462  21.829  0.00  0.00    +0.000 A 
ATOM     12  C   UNL     1      -0.735  13.452  22.807  0.00  0.00    +0.000 A 
ATOM     13  C   UNL     1      -0.535  14.785  22.492  0.00  0.00    +0.000 A 
ATOM     14  C   UNL     1      -0.156  15.136  21.199  0.00  0.00    +0.000 A 
ATOM     15  C   UNL     1       0.044  14.171  20.196  0.00  0.00    +0.000 A 
ATOM     16  C   UNL     1      -0.178  12.811  20.522  0.00  0.00    +0.000 A 
ENDROOT
BRANCH   6  17
ATOM     17  N   UNL     1       2.598   6.694  20.074  0.00  0.00    +0.000 N 
ATOM     18  H   UNL     1       3.088   6.633  20.970  0.00  0.00    +0.000 HD
BRANCH  17  19
ATOM     19  C   UNL     1       2.084   5.430  19.691  0.00  0.00    +0.000 A 
ATOM     20  C   UNL     1       1.329   4.656  20.585  0.00  0.00    +0.000 A 
ATOM     21  C   UNL     1       0.854   3.397  20.218  0.00  0.00    +0.000 A 
ATOM     22  C   UNL     1       1.104   2.918  18.937  0.00  0.00    +0.000 A 
ATOM     23  F   UNL     1       0.661   1.701  18.593  0.00  0.00    +0.000 F 
ATOM     24  C   UNL     1       1.802   3.681  18.011  0.00  0.00    +0.000 A 
ATOM     25  C   UNL     1       2.277   4.933  18.392  0.00  0.00    +0.000 A 
ATOM     26  F   UNL     1       2.962   5.665  17.498  0.00  0.00    +0.000 F 
ENDBRANCH  17  19
ENDBRANCH   6  17
BRANCH  15  27
ATOM     27  O   UNL     1       0.476  14.516  18.923  0.00  0.00    +0.000 OA
BRANCH  27  28
ATOM     28  C   UNL     1       1.632  15.367  18.893  0.00  0.00    +0.000 C 
BRANCH  28  29
ATOM     29  C   UNL     1       2.919  14.696  18.410  0.00  0.00    +0.000 C 
BRANCH  29  30
ATOM     30  O   UNL     1       2.551  13.512  17.675  0.00  0.00    +0.000 OA
ATOM     31  H   UNL     1       2.830  12.736  18.195  0.00  0.00    +0.000 HD
ENDBRANCH  29  30
BRANCH  29  32
ATOM     32  C   UNL     1       3.754  15.623  17.520  0.00  0.00    +0.000 C 
BRANCH  32  33
ATOM     33  O   UNL     1       3.555  16.993  17.868  0.00  0.00    +0.000 OA
ATOM     34  H   UNL     1       3.572  17.512  17.045  0.00  0.00    +0.000 HD
ENDBRANCH  32  33
ENDBRANCH  29  32
ENDBRANCH  28  29
ENDBRANCH  27  28
ENDBRANCH  15  27
TORSDOF 8
ENDMDL
MODEL 4
REMARK VINA RESULT:      -7.9      2.735      3.286
REMARK  Name = 
REMARK  8 active torsions:
REMARK  status: ('A' for Active; 'I' for Inactive)
REMARK    1  A    between atoms: C_6  and  N_7
REMARK    2  A    between atoms: N_7  and  C_8
REMARK    3  A    between atoms: C_24  and  O_25
REMARK    4  A    between atoms: O_25  and  C_26
REMARK    5  A    between atoms: C_26  and  C_27
REMARK    6  A    between atoms: C_27  and  O_28
REMARK    7  A    between atoms: C_27  and  C_29
REMARK    8  A    between atoms: C_29  and  O_30
REMARK                            x       y       z     vdW  Elec       q    Type
REMARK                         _______ _______ _______ _____ _____    ______ ____
ROOT
ATOM      1  O   UNL     1      -0.736  11.846  18.391  0.00  0.00    +0.000 OA
ATOM      2  C   UNL     1      -0.136  11.654  19.447  0.00  0.00    +0.000 C 
ATOM      3  C   UNL     1       0.584  10.353  19.636  0.00  0.00    +0.000 A 
ATOM      4  C   UNL     1       1.004   9.710  18.461  0.00  0.00    +0.000 A 
ATOM      5  C   UNL     1       1.705   8.500  18.507  0.00  0.00    +0.000 A 
ATOM      6  C   UNL     1       2.032   7.905  19.727  0.00  0.00    +0.000 A 
ATOM      7  C   UNL     1       1.579   8.519  20.898  0.00  0.00    +0.000 A 
ATOM      8  C   UNL     1       0.854   9.727  20.860  0.00  0.00    +0.000 A 
ATOM      9  O   UNL     1       0.473  10.168  22.099  0.00  0.00    +0.000 OA
ATOM     10  C   UNL     1      -0.782  10.837  22.123  0.00  0.00    +0.000 C 
ATOM     11  C   UNL     1      -0.572  12.287  21.806  0.00  0.00    +0.000 A 
ATOM     12  C   UNL     1      -0.743  13.239  22.820  0.00  0.00    +0.000 A 
ATOM     13  C   UNL     1      -0.590  14.588  22.547  0.00  0.00    +0.000 A 
ATOM     14  C   UNL     1      -0.244  14.992  21.260  0.00  0.00    +0.000 A 
ATOM     15  C   UNL     1      -0.035  14.068  20.221  0.00  0.00    +0.000 A 
ATOM     16  C   UNL     1      -0.210  12.692  20.505  0.00  0.00    +0.000 A 
ENDROOT
BRANCH   6  17
ATOM     17  N   UNL     1       2.741   6.681  19.802  0.00  0.00    +0.000 N 
ATOM     18  H   UNL     1       3.318   6.643  20.646  0.00  0.00    +0.000 HD
BRANCH  17  19
ATOM     19  C   UNL     1       2.221   5.401  19.485  0.00  0.00    +0.000 A 
ATOM     20  C   UNL     1       1.981   5.030  18.153  0.00  0.00    +0.000 A 
ATOM     21  C   UNL     1       1.435   3.783  17.846  0.00  0.00    +0.000 A 
ATOM     22  C   UNL     1       1.159   2.885  18.871  0.00  0.00    +0.000 A 
ATOM     23  F   UNL     1       0.620   1.695  18.573  0.00  0.00    +0.000 F 
ATOM     24  C   UNL     1       1.435   3.201  20.194  0.00  0.00    +0.000 A 
ATOM     25  C   UNL     1       1.973   4.451  20.489  0.00  0.00    +0.000 A 
ATOM     26  F   UNL     1       2.228   4.760  21.770  0.00  0.00    +0.000 F 
ENDBRANCH  17  19
ENDBRANCH   6  17
BRANCH  15  27
ATOM     27  O   UNL     1       0.363  14.469  18.953  0.00  0.00    +0.000 OA
BRANCH  27  28
ATOM     28  C   UNL     1       1.643  15.118  18.904  0.00  0.00    +0.000 C 
BRANCH  28  29
ATOM     29  C   UNL     1       2.817  14.209  18.534  0.00  0.00    +0.000 C 
BRANCH  29  30
ATOM     30  O   UNL     1       2.355  13.277  17.536  0.00  0.00    +0.000 OA
ATOM     31  H   UNL     1       1.813  12.602  17.983  0.00  0.00    +0.000 HD
ENDBRANCH  29  30
BRANCH  29  32
ATOM     32  C   UNL     1       4.011  15.002  17.992  0.00  0.00    +0.000 C 
BRANCH  32  33
ATOM     33  O   UNL     1       5.082  14.136  17.619  0.00  0.00    +0.000 OA
ATOM     34  H   UNL     1       4.995  13.317  18.138  0.00  0.00    +0.000 HD
ENDBRANCH  32  33
ENDBRANCH  29  32
ENDBRANCH  28  29
ENDBRANCH  27  28
ENDBRANCH  15  27
TORSDOF 8
ENDMDL
MODEL 5
REMARK VINA RESULT:      -7.9      0.896      1.203
REMARK  Name = 
REMARK  8 active torsions:
REMARK  status: ('A' for Active; 'I' for Inactive)
REMARK    1  A    between atoms: C_6  and  N_7
REMARK    2  A    between atoms: N_7  and  C_8
REMARK    3  A    between atoms: C_24  and  O_25
REMARK    4  A    between atoms: O_25  and  C_26
REMARK    5  A    between atoms: C_26  and  C_27
REMARK    6  A    between atoms: C_27  and  O_28
REMARK    7  A    between atoms: C_27  and  C_29
REMARK    8  A    between atoms: C_29  and  O_30
REMARK                            x       y       z     vdW  Elec       q    Type
REMARK                         _______ _______ _______ _____ _____    ______ ____
ROOT
ATOM      1  O   UNL     1      -0.212  10.390  18.118  0.00  0.00    +0.000 OA
ATOM      2  C   UNL     1       0.316  10.094  19.188  0.00  0.00    +0.000 C 
ATOM      3  C   UNL     1       1.203   8.887  19.240  0.00  0.00    +0.000 A 
ATOM      4  C   UNL     1       1.814   8.525  18.030  0.00  0.00    +0.000 A 
ATOM      5  C   UNL     1       2.681   7.429  17.955  0.00  0.00    +0.000 A 
ATOM      6  C   UNL     1       2.986   6.675  19.090  0.00  0.00    +0.000 A 
ATOM      7  C   UNL     1       2.347   7.005  20.287  0.00  0.00    +0.000 A 
ATOM      8  C   UNL     1       1.456   8.094  20.367  0.00  0.00    +0.000 A 
ATOM      9  O   UNL     1       0.907   8.254  21.612  0.00  0.00    +0.000 OA
ATOM     10  C   UNL     1      -0.431   8.735  21.605  0.00  0.00    +0.000 C 
ATOM     11  C   UNL     1      -0.413  10.234  21.556  0.00  0.00    +0.000 A 
ATOM     12  C   UNL     1      -0.812  10.959  22.687  0.00  0.00    +0.000 A 
ATOM     13  C   UNL     1      -0.838  12.343  22.657  0.00  0.00    +0.000 A 
ATOM     14  C   UNL     1      -0.447  13.012  21.500  0.00  0.00    +0.000 A 
ATOM     15  C   UNL     1      -0.012  12.324  20.354  0.00  0.00    +0.000 A 
ATOM     16  C   UNL     1      -0.004  10.908  20.387  0.00  0.00    +0.000 A 
ENDROOT
BRANCH   6  17
ATOM     17  N   UNL     1       3.861   5.562  19.041  0.00  0.00    +0.000 N 
ATOM     18  H   UNL     1       3.375   4.702  19.310  0.00  0.00    +0.000 HD
BRANCH  17  19
ATOM     19  C   UNL     1       4.824   5.306  18.033  0.00  0.00    +0.000 A 
ATOM     20  C   UNL     1       4.431   4.974  16.727  0.00  0.00    +0.000 A 
ATOM     21  C   UNL     1       5.380   4.687  15.746  0.00  0.00    +0.000 A 
ATOM     22  C   UNL     1       6.733   4.765  16.058  0.00  0.00    +0.000 A 
ATOM     23  F   UNL     1       7.641   4.473  15.117  0.00  0.00    +0.000 F 
ATOM     24  C   UNL     1       7.155   5.143  17.325  0.00  0.00    +0.000 A 
ATOM     25  C   UNL     1       6.198   5.419  18.298  0.00  0.00    +0.000 A 
ATOM     26  F   UNL     1       6.608   5.773  19.527  0.00  0.00    +0.000 F 
ENDBRANCH  17  19
ENDBRANCH   6  17
BRANCH  15  27
ATOM     27  O   UNL     1       0.430  12.993  19.221  0.00  0.00    +0.000 OA
BRANCH  27  28
ATOM     28  C   UNL     1       1.537  13.880  19.443  0.00  0.00    +0.000 C 
BRANCH  28  29
ATOM     29  C   UNL     1       2.827  13.503  18.712  0.00  0.00    +0.000 C 
BRANCH  29  30
ATOM     30  O   UNL     1       2.467  13.022  17.402  0.00  0.00    +0.000 OA
ATOM     31  H   UNL     1       1.501  13.114  17.303  0.00  0.00    +0.000 HD
ENDBRANCH  29  30
BRANCH  29  32
ATOM     32  C   UNL     1       3.786  14.691  18.585  0.00  0.00    +0.000 C 
BRANCH  32  33
ATOM     33  O   UNL     1       4.162  14.911  17.225  0.00  0.00    +0.000 OA
ATOM     34  H   UNL     1       4.608  14.106  16.908  0.00  0.00    +0.000 HD
ENDBRANCH  32  33
ENDBRANCH  29  32
ENDBRANCH  28  29
ENDBRANCH  27  28
ENDBRANCH  15  27
TORSDOF 8
ENDMDL
MODEL 6
REMARK VINA RESULT:      -7.8      1.058      1.380
REMARK  Name = 
REMARK  8 active torsions:
REMARK  status: ('A' for Active; 'I' for Inactive)
REMARK    1  A    between atoms: C_6  and  N_7
REMARK    2  A    between atoms: N_7  and  C_8
REMARK    3  A    between atoms: C_24  and  O_25
REMARK    4  A    between atoms: O_25  and  C_26
REMARK    5  A    between atoms: C_26  and  C_27
REMARK    6  A    between atoms: C_27  and  O_28
REMARK    7  A    between atoms: C_27  and  C_29
REMARK    8  A    between atoms: C_29  and  O_30
REMARK                            x       y       z     vdW  Elec       q    Type
REMARK                         _______ _______ _______ _____ _____    ______ ____
ROOT
ATOM      1  O   UNL     1      -0.042  10.508  18.120  0.00  0.00    +0.000 OA
ATOM      2  C   UNL     1       0.441  10.142  19.189  0.00  0.00    +0.000 C 
ATOM      3  C   UNL     1       1.309   8.920  19.205  0.00  0.00    +0.000 A 
ATOM      4  C   UNL     1       1.960   8.619  17.999  0.00  0.00    +0.000 A 
ATOM      5  C   UNL     1       2.815   7.516  17.892  0.00  0.00    +0.000 A 
ATOM      6  C   UNL     1       3.066   6.692  18.992  0.00  0.00    +0.000 A 
ATOM      7  C   UNL     1       2.386   6.963  20.182  0.00  0.00    +0.000 A 
ATOM      8  C   UNL     1       1.508   8.059  20.292  0.00  0.00    +0.000 A 
ATOM      9  O   UNL     1       0.915   8.156  21.522  0.00  0.00    +0.000 OA
ATOM     10  C   UNL     1      -0.416   8.658  21.495  0.00  0.00    +0.000 C 
ATOM     11  C   UNL     1      -0.376  10.157  21.533  0.00  0.00    +0.000 A 
ATOM     12  C   UNL     1      -0.806  10.822  22.689  0.00  0.00    +0.000 A 
ATOM     13  C   UNL     1      -0.813  12.205  22.738  0.00  0.00    +0.000 A 
ATOM     14  C   UNL     1      -0.369  12.934  21.638  0.00  0.00    +0.000 A 
ATOM     15  C   UNL     1       0.099  12.306  20.471  0.00  0.00    +0.000 A 
ATOM     16  C   UNL     1       0.087  10.891  20.422  0.00  0.00    +0.000 A 
ENDROOT
BRANCH   6  17
ATOM     17  N   UNL     1       3.926   5.570  18.911  0.00  0.00    +0.000 N 
ATOM     18  H   UNL     1       3.441   4.715  19.193  0.00  0.00    +0.000 HD
BRANCH  17  19
ATOM     19  C   UNL     1       4.853   5.308  17.871  0.00  0.00    +0.000 A 
ATOM     20  C   UNL     1       6.134   5.880  17.883  0.00  0.00    +0.000 A 
ATOM     21  C   UNL     1       7.030   5.650  16.839  0.00  0.00    +0.000 A 
ATOM     22  C   UNL     1       6.661   4.815  15.791  0.00  0.00    +0.000 A 
ATOM     23  F   UNL     1       7.519   4.609  14.783  0.00  0.00    +0.000 F 
ATOM     24  C   UNL     1       5.421   4.190  15.775  0.00  0.00    +0.000 A 
ATOM     25  C   UNL     1       4.532   4.434  16.819  0.00  0.00    +0.000 A 
ATOM     26  F   UNL     1       3.329   3.839  16.796  0.00  0.00    +0.000 F 
ENDBRANCH  17  19
ENDBRANCH   6  17
BRANCH  15  27
ATOM     27  O   UNL     1       0.594  13.032  19.396  0.00  0.00    +0.000 OA
BRANCH  27  28
ATOM     28  C   UNL     1      -0.397  13.770  18.665  0.00  0.00    +0.000 C 
BRANCH  28  29
ATOM     29  C   UNL     1      -0.261  15.292  18.743  0.00  0.00    +0.000 C 
BRANCH  29  30
ATOM     30  O   UNL     1      -1.304  15.783  19.609  0.00  0.00    +0.000 OA
ATOM     31  H   UNL     1      -1.558  15.062  20.213  0.00  0.00    +0.000 HD
ENDBRANCH  29  30
BRANCH  29  32
ATOM     32  C   UNL     1       1.108  15.721  19.281  0.00  0.00    +0.000 C 
BRANCH  32  33
ATOM     33  O   UNL     1       2.167  15.193  18.484  0.00  0.00    +0.000 OA
ATOM     34  H   UNL     1       1.972  14.254  18.318  0.00  0.00    +0.000 HD
ENDBRANCH  32  33
ENDBRANCH  29  32
ENDBRANCH  28  29
ENDBRANCH  27  28
ENDBRANCH  15  27
TORSDOF 8
ENDMDL
MODEL 7
REMARK VINA RESULT:      -7.8      0.925      1.433
REMARK  Name = 
REMARK  8 active torsions:
REMARK  status: ('A' for Active; 'I' for Inactive)
REMARK    1  A    between atoms: C_6  and  N_7
REMARK    2  A    between atoms: N_7  and  C_8
REMARK    3  A    between atoms: C_24  and  O_25
REMARK    4  A    between atoms: O_25  and  C_26
REMARK    5  A    between atoms: C_26  and  C_27
REMARK    6  A    between atoms: C_27  and  O_28
REMARK    7  A    between atoms: C_27  and  C_29
REMARK    8  A    between atoms: C_29  and  O_30
REMARK                            x       y       z     vdW  Elec       q    Type
REMARK                         _______ _______ _______ _____ _____    ______ ____
ROOT
ATOM      1  O   UNL     1      -0.013  10.548  18.271  0.00  0.00    +0.000 OA
ATOM      2  C   UNL     1       0.449  10.115  19.325  0.00  0.00    +0.000 C 
ATOM      3  C   UNL     1       1.337   8.909  19.278  0.00  0.00    +0.000 A 
ATOM      4  C   UNL     1       2.024   8.703  18.073  0.00  0.00    +0.000 A 
ATOM      5  C   UNL     1       2.900   7.623  17.912  0.00  0.00    +0.000 A 
ATOM      6  C   UNL     1       3.137   6.729  18.957  0.00  0.00    +0.000 A 
ATOM      7  C   UNL     1       2.422   6.904  20.145  0.00  0.00    +0.000 A 
ATOM      8  C   UNL     1       1.522   7.977  20.308  0.00  0.00    +0.000 A 
ATOM      9  O   UNL     1       0.896   7.977  21.525  0.00  0.00    +0.000 OA
ATOM     10  C   UNL     1      -0.442   8.460  21.497  0.00  0.00    +0.000 C 
ATOM     11  C   UNL     1      -0.428   9.953  21.641  0.00  0.00    +0.000 A 
ATOM     12  C   UNL     1      -0.900  10.528  22.829  0.00  0.00    +0.000 A 
ATOM     13  C   UNL     1      -0.932  11.904  22.975  0.00  0.00    +0.000 A 
ATOM     14  C   UNL     1      -0.472  12.715  21.940  0.00  0.00    +0.000 A 
ATOM     15  C   UNL     1       0.037  12.178  20.745  0.00  0.00    +0.000 A 
ATOM     16  C   UNL     1       0.050  10.770  20.597  0.00  0.00    +0.000 A 
ENDROOT
BRANCH   6  17
ATOM     17  N   UNL     1       4.018   5.628  18.822  0.00  0.00    +0.000 N 
ATOM     18  H   UNL     1       3.563   4.757  19.106  0.00  0.00    +0.000 HD
BRANCH  17  19
ATOM     19  C   UNL     1       4.908   5.406  17.741  0.00  0.00    +0.000 A 
ATOM     20  C   UNL     1       6.151   6.055  17.685  0.00  0.00    +0.000 A 
ATOM     21  C   UNL     1       7.010   5.863  16.602  0.00  0.00    +0.000 A 
ATOM     22  C   UNL     1       6.642   4.991  15.583  0.00  0.00    +0.000 A 
ATOM     23  F   UNL     1       7.463   4.822  14.538  0.00  0.00    +0.000 F 
ATOM     24  C   UNL     1       5.444   4.294  15.635  0.00  0.00    +0.000 A 
ATOM     25  C   UNL     1       4.592   4.499  16.717  0.00  0.00    +0.000 A 
ATOM     26  F   UNL     1       3.428   3.832  16.760  0.00  0.00    +0.000 F 
ENDBRANCH  17  19
ENDBRANCH   6  17
BRANCH  15  27
ATOM     27  O   UNL     1       0.547  12.985  19.738  0.00  0.00    +0.000 OA
BRANCH  27  28
ATOM     28  C   UNL     1       1.304  14.115  20.200  0.00  0.00    +0.000 C 
BRANCH  28  29
ATOM     29  C   UNL     1       1.216  15.360  19.315  0.00  0.00    +0.000 C 
BRANCH  29  30
ATOM     30  O   UNL     1       2.234  15.253  18.301  0.00  0.00    +0.000 OA
ATOM     31  H   UNL     1       2.559  16.151  18.106  0.00  0.00    +0.000 HD
ENDBRANCH  29  30
BRANCH  29  32
ATOM     32  C   UNL     1      -0.161  15.504  18.657  0.00  0.00    +0.000 C 
BRANCH  32  33
ATOM     33  O   UNL     1      -1.211  15.304  19.603  0.00  0.00    +0.000 OA
ATOM     34  H   UNL     1      -2.045  15.572  19.181  0.00  0.00    +0.000 HD
ENDBRANCH  32  33
ENDBRANCH  29  32
ENDBRANCH  28  29
ENDBRANCH  27  28
ENDBRANCH  15  27
TORSDOF 8
ENDMDL
MODEL 8
REMARK VINA RESULT:      -7.8      0.949      1.191
REMARK  Name = 
REMARK  8 active torsions:
REMARK  status: ('A' for Active; 'I' for Inactive)
REMARK    1  A    between atoms: C_6  and  N_7
REMARK    2  A    between atoms: N_7  and  C_8
REMARK    3  A    between atoms: C_24  and  O_25
REMARK    4  A    between atoms: O_25  and  C_26
REMARK    5  A    between atoms: C_26  and  C_27
REMARK    6  A    between atoms: C_27  and  O_28
REMARK    7  A    between atoms: C_27  and  C_29
REMARK    8  A    between atoms: C_29  and  O_30
REMARK                            x       y       z     vdW  Elec       q    Type
REMARK                         _______ _______ _______ _____ _____    ______ ____
ROOT
ATOM      1  O   UNL     1      -0.164  10.501  18.253  0.00  0.00    +0.000 OA
ATOM      2  C   UNL     1       0.342  10.132  19.312  0.00  0.00    +0.000 C 
ATOM      3  C   UNL     1       1.242   8.935  19.299  0.00  0.00    +0.000 A 
ATOM      4  C   UNL     1       1.888   8.669  18.081  0.00  0.00    +0.000 A 
ATOM      5  C   UNL     1       2.770   7.591  17.948  0.00  0.00    +0.000 A 
ATOM      6  C   UNL     1       3.057   6.759  19.032  0.00  0.00    +0.000 A 
ATOM      7  C   UNL     1       2.384   6.993  20.234  0.00  0.00    +0.000 A 
ATOM      8  C   UNL     1       1.477   8.064  20.371  0.00  0.00    +0.000 A 
ATOM      9  O   UNL     1       0.897   8.126  21.609  0.00  0.00    +0.000 OA
ATOM     10  C   UNL     1      -0.447   8.592  21.604  0.00  0.00    +0.000 C 
ATOM     11  C   UNL     1      -0.447  10.090  21.664  0.00  0.00    +0.000 A 
ATOM     12  C   UNL     1      -0.882  10.726  22.835  0.00  0.00    +0.000 A 
ATOM     13  C   UNL     1      -0.926  12.108  22.905  0.00  0.00    +0.000 A 
ATOM     14  C   UNL     1      -0.515  12.865  21.811  0.00  0.00    +0.000 A 
ATOM     15  C   UNL     1      -0.043  12.267  20.629  0.00  0.00    +0.000 A 
ATOM     16  C   UNL     1      -0.018  10.853  20.559  0.00  0.00    +0.000 A 
ENDROOT
BRANCH   6  17
ATOM     17  N   UNL     1       3.946   5.662  18.925  0.00  0.00    +0.000 N 
ATOM     18  H   UNL     1       3.488   4.790  19.202  0.00  0.00    +0.000 HD
BRANCH  17  19
ATOM     19  C   UNL     1       4.865   5.439  17.868  0.00  0.00    +0.000 A 
ATOM     20  C   UNL     1       6.124   6.059  17.863  0.00  0.00    +0.000 A 
ATOM     21  C   UNL     1       7.011   5.867  16.804  0.00  0.00    +0.000 A 
ATOM     22  C   UNL     1       6.656   5.022  15.758  0.00  0.00    +0.000 A 
ATOM     23  F   UNL     1       7.506   4.853  14.735  0.00  0.00    +0.000 F 
ATOM     24  C   UNL     1       5.442   4.352  15.759  0.00  0.00    +0.000 A 
ATOM     25  C   UNL     1       4.561   4.558  16.818  0.00  0.00    +0.000 A 
ATOM     26  F   UNL     1       3.381   3.918  16.812  0.00  0.00    +0.000 F 
ENDBRANCH  17  19
ENDBRANCH   6  17
BRANCH  15  27
ATOM     27  O   UNL     1       0.418  13.022  19.560  0.00  0.00    +0.000 OA
BRANCH  27  28
ATOM     28  C   UNL     1       1.285  14.108  19.923  0.00  0.00    +0.000 C 
BRANCH  28  29
ATOM     29  C   UNL     1       2.780  13.785  19.887  0.00  0.00    +0.000 C 
BRANCH  29  30
ATOM     30  O   UNL     1       3.346  14.444  18.737  0.00  0.00    +0.000 OA
ATOM     31  H   UNL     1       3.135  15.394  18.801  0.00  0.00    +0.000 HD
ENDBRANCH  29  30
BRANCH  29  32
ATOM     32  C   UNL     1       3.500  14.245  21.158  0.00  0.00    +0.000 C 
BRANCH  32  33
ATOM     33  O   UNL     1       2.575  14.498  22.215  0.00  0.00    +0.000 OA
ATOM     34  H   UNL     1       3.089  14.728  23.009  0.00  0.00    +0.000 HD
ENDBRANCH  32  33
ENDBRANCH  29  32
ENDBRANCH  28  29
ENDBRANCH  27  28
ENDBRANCH  15  27
TORSDOF 8
ENDMDL
MODEL 9
REMARK VINA RESULT:      -7.8      1.989      2.257
REMARK  Name = 
REMARK  8 active torsions:
REMARK  status: ('A' for Active; 'I' for Inactive)
REMARK    1  A    between atoms: C_6  and  N_7
REMARK    2  A    between atoms: N_7  and  C_8
REMARK    3  A    between atoms: C_24  and  O_25
REMARK    4  A    between atoms: O_25  and  C_26
REMARK    5  A    between atoms: C_26  and  C_27
REMARK    6  A    between atoms: C_27  and  O_28
REMARK    7  A    between atoms: C_27  and  C_29
REMARK    8  A    between atoms: C_29  and  O_30
REMARK                            x       y       z     vdW  Elec       q    Type
REMARK                         _______ _______ _______ _____ _____    ______ ____
ROOT
ATOM      1  O   UNL     1      -0.807  10.830  18.403  0.00  0.00    +0.000 OA
ATOM      2  C   UNL     1      -0.153  10.459  19.376  0.00  0.00    +0.000 C 
ATOM      3  C   UNL     1       0.850   9.362  19.191  0.00  0.00    +0.000 A 
ATOM      4  C   UNL     1       1.378   9.229  17.898  0.00  0.00    +0.000 A 
ATOM      5  C   UNL     1       2.339   8.256  17.603  0.00  0.00    +0.000 A 
ATOM      6  C   UNL     1       2.824   7.400  18.595  0.00  0.00    +0.000 A 
ATOM      7  C   UNL     1       2.269   7.500  19.874  0.00  0.00    +0.000 A 
ATOM      8  C   UNL     1       1.285   8.463  20.174  0.00  0.00    +0.000 A 
ATOM      9  O   UNL     1       0.843   8.399  21.468  0.00  0.00    +0.000 OA
ATOM     10  C   UNL     1      -0.532   8.726  21.635  0.00  0.00    +0.000 C 
ATOM     11  C   UNL     1      -0.668  10.211  21.791  0.00  0.00    +0.000 A 
ATOM     12  C   UNL     1      -1.029  10.736  23.040  0.00  0.00    +0.000 A 
ATOM     13  C   UNL     1      -1.196  12.100  23.203  0.00  0.00    +0.000 A 
ATOM     14  C   UNL     1      -0.983  12.952  22.123  0.00  0.00    +0.000 A 
ATOM     15  C   UNL     1      -0.592  12.470  20.862  0.00  0.00    +0.000 A 
ATOM     16  C   UNL     1      -0.439  11.072  20.698  0.00  0.00    +0.000 A 
ENDROOT
BRANCH   6  17
ATOM     17  N   UNL     1       3.796   6.407  18.324  0.00  0.00    +0.000 N 
ATOM     18  H   UNL     1       4.715   6.689  18.673  0.00  0.00    +0.000 HD
BRANCH  17  19
ATOM     19  C   UNL     1       3.611   5.008  18.456  0.00  0.00    +0.000 A 
ATOM     20  C   UNL     1       4.564   4.212  19.112  0.00  0.00    +0.000 A 
ATOM     21  C   UNL     1       4.397   2.830  19.208  0.00  0.00    +0.000 A 
ATOM     22  C   UNL     1       3.257   2.239  18.676  0.00  0.00    +0.000 A 
ATOM     23  F   UNL     1       3.109   0.910  18.757  0.00  0.00    +0.000 F 
ATOM     24  C   UNL     1       2.271   3.004  18.069  0.00  0.00    +0.000 A 
ATOM     25  C   UNL     1       2.451   4.381  17.973  0.00  0.00    +0.000 A 
ATOM     26  F   UNL     1       1.502   5.118  17.374  0.00  0.00    +0.000 F 
ENDBRANCH  17  19
ENDBRANCH   6  17
BRANCH  15  27
ATOM     27  O   UNL     1      -0.326  13.324  19.801  0.00  0.00    +0.000 OA
BRANCH  27  28
ATOM     28  C   UNL     1       0.955  13.969  19.857  0.00  0.00    +0.000 C 
BRANCH  28  29
ATOM     29  C   UNL     1       2.066  13.276  19.066  0.00  0.00    +0.000 C 
BRANCH  29  30
ATOM     30  O   UNL     1       1.522  12.888  17.789  0.00  0.00    +0.000 OA
ATOM     31  H   UNL     1       2.215  13.016  17.116  0.00  0.00    +0.000 HD
ENDBRANCH  29  30
BRANCH  29  32
ATOM     32  C   UNL     1       3.281  14.186  18.859  0.00  0.00    +0.000 C 
BRANCH  32  33
ATOM     33  O   UNL     1       3.342  15.204  19.858  0.00  0.00    +0.000 OA
ATOM     34  H   UNL     1       2.702  14.974  20.554  0.00  0.00    +0.000 HD
ENDBRANCH  32  33
ENDBRANCH  29  32
ENDBRANCH  28  29
ENDBRANCH  27  28
ENDBRANCH  15  27
TORSDOF 8
ENDMDL
