MODEL 1
REMARK VINA RESULT:      -7.4      0.000      0.000
REMARK  Name = 
REMARK  6 active torsions:
REMARK  status: ('A' for Active; 'I' for Inactive)
REMARK    1  A    between atoms: N_7  and  C_8
REMARK    2  A    between atoms: C_11  and  C_12
REMARK    3  A    between atoms: C_12  and  C_15
REMARK    4  A    between atoms: C_23  and  C_24
REMARK    5  A    between atoms: C_23  and  C_26
REMARK    6  A    between atoms: C_28  and  O_29
REMARK                            x       y       z     vdW  Elec       q    Type
REMARK                         _______ _______ _______ _____ _____    ______ ____
ROOT
ATOM      1  C   UNL     1       2.852   5.548  20.194  0.00  0.00    +0.000 C 
ATOM      2  C   UNL     1       4.006   4.779  19.578  0.00  0.00    +0.000 A 
ATOM      3  C   UNL     1       5.290   5.357  19.570  0.00  0.00    +0.000 A 
ATOM      4  C   UNL     1       6.233   4.956  18.612  0.00  0.00    +0.000 A 
ATOM      5  C   UNL     1       5.951   3.843  17.808  0.00  0.00    +0.000 A 
ATOM      6  C   UNL     1       4.748   3.148  17.956  0.00  0.00    +0.000 A 
ATOM      7  C   UNL     1       3.769   3.629  18.819  0.00  0.00    +0.000 A 
ATOM      8  O   UNL     1       2.583   2.943  18.833  0.00  0.00    +0.000 OA
ATOM      9  C   UNL     1       1.408   3.758  19.051  0.00  0.00    +0.000 C 
ATOM     10  C   UNL     1       1.609   4.634  20.300  0.00  0.00    +0.000 C 
ENDROOT
BRANCH   1  17
ATOM     11  O   UNL     1       1.581   8.012  21.379  0.00  0.00    +0.000 OA
ATOM     12  C   UNL     1       1.821   7.902  20.177  0.00  0.00    +0.000 A 
ATOM     13  C   UNL     1       1.200   8.891  19.273  0.00  0.00    +0.000 A 
ATOM     14  C   UNL     1       1.628   9.003  18.011  0.00  0.00    +0.000 A 
ATOM     15  C   UNL     1       2.686   8.156  17.539  0.00  0.00    +0.000 A 
ATOM     16  C   UNL     1       3.086   7.110  18.271  0.00  0.00    +0.000 A 
ATOM     17  N   UNL     1       2.600   6.895  19.563  0.00  0.00    +0.000 N 
ENDBRANCH   1  17
BRANCH   4  18
ATOM     18  C   UNL     1       7.440   5.841  18.338  0.00  0.00    +0.000 C 
ATOM     19  F   UNL     1       7.797   6.562  19.452  0.00  0.00    +0.000 F 
ATOM     20  F   UNL     1       8.553   5.066  18.091  0.00  0.00    +0.000 F 
BRANCH  18  21
ATOM     21  C   UNL     1       7.248   6.810  17.151  0.00  0.00    +0.000 C 
ATOM     22  F   UNL     1       6.004   7.345  17.087  0.00  0.00    +0.000 F 
ATOM     23  F   UNL     1       8.119   7.851  17.202  0.00  0.00    +0.000 F 
ATOM     24  F   UNL     1       7.461   6.191  15.959  0.00  0.00    +0.000 F 
ENDBRANCH  18  21
ENDBRANCH   4  18
BRANCH   9  25
ATOM     25  C   UNL     1       0.224   2.808  19.288  0.00  0.00    +0.000 C 
ATOM     26  F   UNL     1       0.324   1.740  18.446  0.00  0.00    +0.000 F 
ENDBRANCH   9  25
BRANCH   9  27
ATOM     27  C   UNL     1       1.091   4.561  17.783  0.00  0.00    +0.000 C 
ATOM     28  F   UNL     1       1.727   3.989  16.718  0.00  0.00    +0.000 F 
ENDBRANCH   9  27
BRANCH  10  29
ATOM     29  O   UNL     1       1.777   3.789  21.469  0.00  0.00    +0.000 OA
ATOM     30  H   UNL     1       2.370   4.261  22.090  0.00  0.00    +0.000 HD
ENDBRANCH  10  29
TORSDOF 6
ENDMDL
MODEL 2
REMARK VINA RESULT:      -7.2      3.538      6.061
REMARK  Name = 
REMARK  6 active torsions:
REMARK  status: ('A' for Active; 'I' for Inactive)
REMARK    1  A    between atoms: N_7  and  C_8
REMARK    2  A    between atoms: C_11  and  C_12
REMARK    3  A    between atoms: C_12  and  C_15
REMARK    4  A    between atoms: C_23  and  C_24
REMARK    5  A    between atoms: C_23  and  C_26
REMARK    6  A    between atoms: C_28  and  O_29
REMARK                            x       y       z     vdW  Elec       q    Type
REMARK                         _______ _______ _______ _____ _____    ______ ____
ROOT
ATOM      1  C   UNL     1       3.950   5.316  19.677  0.00  0.00    +0.000 C 
ATOM      2  C   UNL     1       3.365   6.673  19.327  0.00  0.00    +0.000 A 
ATOM      3  C   UNL     1       2.543   7.328  20.264  0.00  0.00    +0.000 A 
ATOM      4  C   UNL     1       1.606   8.278  19.830  0.00  0.00    +0.000 A 
ATOM      5  C   UNL     1       1.643   8.706  18.496  0.00  0.00    +0.000 A 
ATOM      6  C   UNL     1       2.595   8.192  17.613  0.00  0.00    +0.000 A 
ATOM      7  C   UNL     1       3.437   7.161  18.020  0.00  0.00    +0.000 A 
ATOM      8  O   UNL     1       4.275   6.650  17.064  0.00  0.00    +0.000 OA
ATOM      9  C   UNL     1       4.539   5.232  17.179  0.00  0.00    +0.000 C 
ATOM     10  C   UNL     1       4.993   4.904  18.612  0.00  0.00    +0.000 C 
ENDROOT
BRANCH   1  17
ATOM     11  O   UNL     1       4.333   2.408  20.372  0.00  0.00    +0.000 OA
ATOM     12  C   UNL     1       3.229   2.890  20.121  0.00  0.00    +0.000 A 
ATOM     13  C   UNL     1       2.121   1.945  19.878  0.00  0.00    +0.000 A 
ATOM     14  C   UNL     1       0.858   2.384  19.875  0.00  0.00    +0.000 A 
ATOM     15  C   UNL     1       0.585   3.775  20.102  0.00  0.00    +0.000 A 
ATOM     16  C   UNL     1       1.584   4.665  20.088  0.00  0.00    +0.000 A 
ATOM     17  N   UNL     1       2.919   4.264  20.000  0.00  0.00    +0.000 N 
ENDBRANCH   1  17
BRANCH   4  18
ATOM     18  C   UNL     1       0.463   8.673  20.753  0.00  0.00    +0.000 C 
ATOM     19  F   UNL     1      -0.597   9.190  20.047  0.00  0.00    +0.000 F 
ATOM     20  F   UNL     1      -0.073   7.554  21.354  0.00  0.00    +0.000 F 
BRANCH  18  21
ATOM     21  C   UNL     1       0.867   9.673  21.858  0.00  0.00    +0.000 C 
ATOM     22  F   UNL     1      -0.164  10.041  22.656  0.00  0.00    +0.000 F 
ATOM     23  F   UNL     1       1.829   9.166  22.672  0.00  0.00    +0.000 F 
ATOM     24  F   UNL     1       1.375  10.820  21.333  0.00  0.00    +0.000 F 
ENDBRANCH  18  21
ENDBRANCH   4  18
BRANCH   9  25
ATOM     25  C   UNL     1       5.675   4.894  16.201  0.00  0.00    +0.000 C 
ATOM     26  F   UNL     1       5.153   4.648  14.966  0.00  0.00    +0.000 F 
ENDBRANCH   9  25
BRANCH   9  27
ATOM     27  C   UNL     1       3.308   4.436  16.727  0.00  0.00    +0.000 C 
ATOM     28  F   UNL     1       3.511   3.110  16.987  0.00  0.00    +0.000 F 
ENDBRANCH   9  27
BRANCH  10  29
ATOM     29  O   UNL     1       6.231   5.604  18.907  0.00  0.00    +0.000 OA
ATOM     30  H   UNL     1       6.926   4.928  19.041  0.00  0.00    +0.000 HD
ENDBRANCH  10  29
TORSDOF 6
ENDMDL
MODEL 3
REMARK VINA RESULT:      -7.1      3.181      6.081
REMARK  Name = 
REMARK  6 active torsions:
REMARK  status: ('A' for Active; 'I' for Inactive)
REMARK    1  A    between atoms: N_7  and  C_8
REMARK    2  A    between atoms: C_11  and  C_12
REMARK    3  A    between atoms: C_12  and  C_15
REMARK    4  A    between atoms: C_23  and  C_24
REMARK    5  A    between atoms: C_23  and  C_26
REMARK    6  A    between atoms: C_28  and  O_29
REMARK                            x       y       z     vdW  Elec       q    Type
REMARK                         _______ _______ _______ _____ _____    ______ ____
ROOT
ATOM      1  C   UNL     1       5.053   6.269  16.876  0.00  0.00    +0.000 C 
ATOM      2  C   UNL     1       3.900   5.315  17.132  0.00  0.00    +0.000 A 
ATOM      3  C   UNL     1       3.093   5.504  18.270  0.00  0.00    +0.000 A 
ATOM      4  C   UNL     1       2.384   4.422  18.813  0.00  0.00    +0.000 A 
ATOM      5  C   UNL     1       2.329   3.219  18.096  0.00  0.00    +0.000 A 
ATOM      6  C   UNL     1       2.975   3.099  16.862  0.00  0.00    +0.000 A 
ATOM      7  C   UNL     1       3.778   4.135  16.394  0.00  0.00    +0.000 A 
ATOM      8  O   UNL     1       4.451   3.899  15.224  0.00  0.00    +0.000 OA
ATOM      9  C   UNL     1       5.755   4.518  15.134  0.00  0.00    +0.000 C 
ATOM     10  C   UNL     1       5.642   6.016  15.469  0.00  0.00    +0.000 C 
ENDROOT
BRANCH   1  17
ATOM     11  O   UNL     1       7.278   8.248  17.348  0.00  0.00    +0.000 OA
ATOM     12  C   UNL     1       7.177   7.200  17.984  0.00  0.00    +0.000 A 
ATOM     13  C   UNL     1       8.344   6.786  18.789  0.00  0.00    +0.000 A 
ATOM     14  C   UNL     1       8.212   5.823  19.709  0.00  0.00    +0.000 A 
ATOM     15  C   UNL     1       6.938   5.192  19.904  0.00  0.00    +0.000 A 
ATOM     16  C   UNL     1       5.948   5.394  19.027  0.00  0.00    +0.000 A 
ATOM     17  N   UNL     1       6.068   6.323  17.991  0.00  0.00    +0.000 N 
ENDBRANCH   1  17
BRANCH   4  18
ATOM     18  C   UNL     1       1.859   4.513  20.238  0.00  0.00    +0.000 C 
ATOM     19  F   UNL     1       2.219   5.701  20.830  0.00  0.00    +0.000 F 
ATOM     20  F   UNL     1       0.482   4.564  20.237  0.00  0.00    +0.000 F 
BRANCH  18  21
ATOM     21  C   UNL     1       2.303   3.345  21.145  0.00  0.00    +0.000 C 
ATOM     22  F   UNL     1       1.474   2.273  21.088  0.00  0.00    +0.000 F 
ATOM     23  F   UNL     1       3.543   2.896  20.822  0.00  0.00    +0.000 F 
ATOM     24  F   UNL     1       2.358   3.718  22.451  0.00  0.00    +0.000 F 
ENDBRANCH  18  21
ENDBRANCH   4  18
BRANCH   9  25
ATOM     25  C   UNL     1       6.240   4.362  13.684  0.00  0.00    +0.000 C 
ATOM     26  F   UNL     1       5.263   3.770  12.940  0.00  0.00    +0.000 F 
ENDBRANCH   9  25
BRANCH   9  27
ATOM     27  C   UNL     1       6.751   3.763  16.023  0.00  0.00    +0.000 C 
ATOM     28  F   UNL     1       7.868   4.531  16.199  0.00  0.00    +0.000 F 
ENDBRANCH   9  27
BRANCH  10  29
ATOM     29  O   UNL     1       4.779   6.671  14.501  0.00  0.00    +0.000 OA
ATOM     30  H   UNL     1       5.266   6.708  13.652  0.00  0.00    +0.000 HD
ENDBRANCH  10  29
TORSDOF 6
ENDMDL
MODEL 4
REMARK VINA RESULT:      -7.1      3.172      5.584
REMARK  Name = 
REMARK  6 active torsions:
REMARK  status: ('A' for Active; 'I' for Inactive)
REMARK    1  A    between atoms: N_7  and  C_8
REMARK    2  A    between atoms: C_11  and  C_12
REMARK    3  A    between atoms: C_12  and  C_15
REMARK    4  A    between atoms: C_23  and  C_24
REMARK    5  A    between atoms: C_23  and  C_26
REMARK    6  A    between atoms: C_28  and  O_29
REMARK                            x       y       z     vdW  Elec       q    Type
REMARK                         _______ _______ _______ _____ _____    ______ ____
ROOT
ATOM      1  C   UNL     1       3.282   5.000  17.246  0.00  0.00    +0.000 C 
ATOM      2  C   UNL     1       2.454   5.791  18.242  0.00  0.00    +0.000 A 
ATOM      3  C   UNL     1       2.011   7.081  17.895  0.00  0.00    +0.000 A 
ATOM      4  C   UNL     1       1.709   8.013  18.900  0.00  0.00    +0.000 A 
ATOM      5  C   UNL     1       1.658   7.580  20.232  0.00  0.00    +0.000 A 
ATOM      6  C   UNL     1       1.908   6.243  20.553  0.00  0.00    +0.000 A 
ATOM      7  C   UNL     1       2.329   5.358  19.565  0.00  0.00    +0.000 A 
ATOM      8  O   UNL     1       2.646   4.091  19.981  0.00  0.00    +0.000 OA
ATOM      9  C   UNL     1       3.726   3.462  19.253  0.00  0.00    +0.000 C 
ATOM     10  C   UNL     1       3.451   3.545  17.741  0.00  0.00    +0.000 C 
ENDROOT
BRANCH   1  17
ATOM     11  O   UNL     1       5.107   4.388  14.925  0.00  0.00    +0.000 OA
ATOM     12  C   UNL     1       5.416   5.169  15.825  0.00  0.00    +0.000 A 
ATOM     13  C   UNL     1       6.832   5.581  15.901  0.00  0.00    +0.000 A 
ATOM     14  C   UNL     1       7.184   6.622  16.663  0.00  0.00    +0.000 A 
ATOM     15  C   UNL     1       6.184   7.330  17.410  0.00  0.00    +0.000 A 
ATOM     16  C   UNL     1       4.951   6.823  17.530  0.00  0.00    +0.000 A 
ATOM     17  N   UNL     1       4.560   5.682  16.825  0.00  0.00    +0.000 N 
ENDBRANCH   1  17
BRANCH   4  18
ATOM     18  C   UNL     1       1.635   9.491  18.549  0.00  0.00    +0.000 C 
ATOM     19  F   UNL     1       2.312  10.259  19.465  0.00  0.00    +0.000 F 
ATOM     20  F   UNL     1       2.307   9.736  17.371  0.00  0.00    +0.000 F 
BRANCH  18  21
ATOM     21  C   UNL     1       0.194  10.030  18.409  0.00  0.00    +0.000 C 
ATOM     22  F   UNL     1      -0.470   9.522  17.341  0.00  0.00    +0.000 F 
ATOM     23  F   UNL     1      -0.559   9.753  19.504  0.00  0.00    +0.000 F 
ATOM     24  F   UNL     1       0.177  11.382  18.264  0.00  0.00    +0.000 F 
ENDBRANCH  18  21
ENDBRANCH   4  18
BRANCH   9  25
ATOM     25  C   UNL     1       3.768   1.985  19.676  0.00  0.00    +0.000 C 
ATOM     26  F   UNL     1       4.768   1.801  20.584  0.00  0.00    +0.000 F 
ENDBRANCH   9  25
BRANCH   9  27
ATOM     27  C   UNL     1       5.065   4.084  19.668  0.00  0.00    +0.000 C 
ATOM     28  F   UNL     1       6.002   3.816  18.711  0.00  0.00    +0.000 F 
ENDBRANCH   9  27
BRANCH  10  29
ATOM     29  O   UNL     1       2.231   2.823  17.425  0.00  0.00    +0.000 OA
ATOM     30  H   UNL     1       2.047   2.215  18.171  0.00  0.00    +0.000 HD
ENDBRANCH  10  29
TORSDOF 6
ENDMDL
MODEL 5
REMARK VINA RESULT:      -6.9      3.517      6.108
REMARK  Name = 
REMARK  6 active torsions:
REMARK  status: ('A' for Active; 'I' for Inactive)
REMARK    1  A    between atoms: N_7  and  C_8
REMARK    2  A    between atoms: C_11  and  C_12
REMARK    3  A    between atoms: C_12  and  C_15
REMARK    4  A    between atoms: C_23  and  C_24
REMARK    5  A    between atoms: C_23  and  C_26
REMARK    6  A    between atoms: C_28  and  O_29
REMARK                            x       y       z     vdW  Elec       q    Type
REMARK                         _______ _______ _______ _____ _____    ______ ____
ROOT
ATOM      1  C   UNL     1       4.095   5.215  19.583  0.00  0.00    +0.000 C 
ATOM      2  C   UNL     1       3.463   6.564  19.295  0.00  0.00    +0.000 A 
ATOM      3  C   UNL     1       2.731   7.210  20.309  0.00  0.00    +0.000 A 
ATOM      4  C   UNL     1       1.744   8.149  19.972  0.00  0.00    +0.000 A 
ATOM      5  C   UNL     1       1.643   8.578  18.642  0.00  0.00    +0.000 A 
ATOM      6  C   UNL     1       2.510   8.075  17.667  0.00  0.00    +0.000 A 
ATOM      7  C   UNL     1       3.399   7.054  17.988  0.00  0.00    +0.000 A 
ATOM      8  O   UNL     1       4.144   6.552  16.953  0.00  0.00    +0.000 OA
ATOM      9  C   UNL     1       4.434   5.138  17.039  0.00  0.00    +0.000 C 
ATOM     10  C   UNL     1       5.032   4.814  18.420  0.00  0.00    +0.000 C 
ENDROOT
BRANCH   1  17
ATOM     11  O   UNL     1       4.594   2.340  20.342  0.00  0.00    +0.000 OA
ATOM     12  C   UNL     1       3.464   2.789  20.149  0.00  0.00    +0.000 A 
ATOM     13  C   UNL     1       2.367   1.811  20.008  0.00  0.00    +0.000 A 
ATOM     14  C   UNL     1       1.095   2.222  20.075  0.00  0.00    +0.000 A 
ATOM     15  C   UNL     1       0.804   3.613  20.276  0.00  0.00    +0.000 A 
ATOM     16  C   UNL     1       1.778   4.524  20.169  0.00  0.00    +0.000 A 
ATOM     17  N   UNL     1       3.114   4.150  20.006  0.00  0.00    +0.000 N 
ENDBRANCH   1  17
BRANCH   4  18
ATOM     18  C   UNL     1       0.694   8.530  21.004  0.00  0.00    +0.000 C 
ATOM     19  F   UNL     1      -0.247   7.539  21.153  0.00  0.00    +0.000 F 
ATOM     20  F   UNL     1       1.264   8.617  22.256  0.00  0.00    +0.000 F 
BRANCH  18  21
ATOM     21  C   UNL     1      -0.025   9.864  20.703  0.00  0.00    +0.000 C 
ATOM     22  F   UNL     1      -0.851   9.801  19.630  0.00  0.00    +0.000 F 
ATOM     23  F   UNL     1      -0.779  10.281  21.753  0.00  0.00    +0.000 F 
ATOM     24  F   UNL     1       0.862  10.863  20.447  0.00  0.00    +0.000 F 
ENDBRANCH  18  21
ENDBRANCH   4  18
BRANCH   9  25
ATOM     25  C   UNL     1       5.472   4.813  15.954  0.00  0.00    +0.000 C 
ATOM     26  F   UNL     1       5.453   5.788  15.001  0.00  0.00    +0.000 F 
ENDBRANCH   9  25
BRANCH   9  27
ATOM     27  C   UNL     1       3.174   4.327  16.711  0.00  0.00    +0.000 C 
ATOM     28  F   UNL     1       3.402   3.009  16.990  0.00  0.00    +0.000 F 
ENDBRANCH   9  27
BRANCH  10  29
ATOM     29  O   UNL     1       6.285   5.529  18.592  0.00  0.00    +0.000 OA
ATOM     30  H   UNL     1       6.938   5.127  17.982  0.00  0.00    +0.000 HD
ENDBRANCH  10  29
TORSDOF 6
ENDMDL
MODEL 6
REMARK VINA RESULT:      -6.7      3.363      5.561
REMARK  Name = 
REMARK  6 active torsions:
REMARK  status: ('A' for Active; 'I' for Inactive)
REMARK    1  A    between atoms: N_7  and  C_8
REMARK    2  A    between atoms: C_11  and  C_12
REMARK    3  A    between atoms: C_12  and  C_15
REMARK    4  A    between atoms: C_23  and  C_24
REMARK    5  A    between atoms: C_23  and  C_26
REMARK    6  A    between atoms: C_28  and  O_29
REMARK                            x       y       z     vdW  Elec       q    Type
REMARK                         _______ _______ _______ _____ _____    ______ ____
ROOT
ATOM      1  C   UNL     1       3.540   5.051  17.586  0.00  0.00    +0.000 C 
ATOM      2  C   UNL     1       2.478   5.378  18.620  0.00  0.00    +0.000 A 
ATOM      3  C   UNL     1       2.151   6.725  18.866  0.00  0.00    +0.000 A 
ATOM      4  C   UNL     1       1.593   7.096  20.099  0.00  0.00    +0.000 A 
ATOM      5  C   UNL     1       1.183   6.093  20.988  0.00  0.00    +0.000 A 
ATOM      6  C   UNL     1       1.331   4.745  20.651  0.00  0.00    +0.000 A 
ATOM      7  C   UNL     1       1.999   4.389  19.483  0.00  0.00    +0.000 A 
ATOM      8  O   UNL     1       2.186   3.047  19.277  0.00  0.00    +0.000 OA
ATOM      9  C   UNL     1       3.420   2.698  18.607  0.00  0.00    +0.000 C 
ATOM     10  C   UNL     1       3.563   3.529  17.319  0.00  0.00    +0.000 C 
ENDROOT
BRANCH   1  17
ATOM     11  O   UNL     1       5.204   6.891  15.872  0.00  0.00    +0.000 OA
ATOM     12  C   UNL     1       5.640   6.362  16.894  0.00  0.00    +0.000 A 
ATOM     13  C   UNL     1       7.100   6.412  17.107  0.00  0.00    +0.000 A 
ATOM     14  C   UNL     1       7.610   6.109  18.307  0.00  0.00    +0.000 A 
ATOM     15  C   UNL     1       6.735   5.730  19.379  0.00  0.00    +0.000 A 
ATOM     16  C   UNL     1       5.448   5.457  19.131  0.00  0.00    +0.000 A 
ATOM     17  N   UNL     1       4.887   5.668  17.869  0.00  0.00    +0.000 N 
ENDBRANCH   1  17
BRANCH   4  18
ATOM     18  C   UNL     1       1.623   8.558  20.521  0.00  0.00    +0.000 C 
ATOM     19  F   UNL     1       2.376   8.736  21.657  0.00  0.00    +0.000 F 
ATOM     20  F   UNL     1       2.287   9.313  19.579  0.00  0.00    +0.000 F 
BRANCH  18  21
ATOM     21  C   UNL     1       0.224   9.174  20.742  0.00  0.00    +0.000 C 
ATOM     22  F   UNL     1       0.249  10.327  21.455  0.00  0.00    +0.000 F 
ATOM     23  F   UNL     1      -0.396   9.455  19.567  0.00  0.00    +0.000 F 
ATOM     24  F   UNL     1      -0.597   8.324  21.415  0.00  0.00    +0.000 F 
ENDBRANCH  18  21
ENDBRANCH   4  18
BRANCH   9  25
ATOM     25  C   UNL     1       3.339   1.209  18.238  0.00  0.00    +0.000 C 
ATOM     26  F   UNL     1       4.420   0.555  18.752  0.00  0.00    +0.000 F 
ENDBRANCH   9  25
BRANCH   9  27
ATOM     27  C   UNL     1       4.600   2.857  19.574  0.00  0.00    +0.000 C 
ATOM     28  F   UNL     1       4.225   2.426  20.815  0.00  0.00    +0.000 F 
ENDBRANCH   9  27
BRANCH  10  29
ATOM     29  O   UNL     1       2.470   3.220  16.413  0.00  0.00    +0.000 OA
ATOM     30  H   UNL     1       2.656   3.672  15.564  0.00  0.00    +0.000 HD
ENDBRANCH  10  29
TORSDOF 6
ENDMDL
MODEL 7
REMARK VINA RESULT:      -6.6      3.155      5.468
REMARK  Name = 
REMARK  6 active torsions:
REMARK  status: ('A' for Active; 'I' for Inactive)
REMARK    1  A    between atoms: N_7  and  C_8
REMARK    2  A    between atoms: C_11  and  C_12
REMARK    3  A    between atoms: C_12  and  C_15
REMARK    4  A    between atoms: C_23  and  C_24
REMARK    5  A    between atoms: C_23  and  C_26
REMARK    6  A    between atoms: C_28  and  O_29
REMARK                            x       y       z     vdW  Elec       q    Type
REMARK                         _______ _______ _______ _____ _____    ______ ____
ROOT
ATOM      1  C   UNL     1       3.188   4.841  17.124  0.00  0.00    +0.000 C 
ATOM      2  C   UNL     1       2.370   5.552  18.186  0.00  0.00    +0.000 A 
ATOM      3  C   UNL     1       2.042   6.910  18.004  0.00  0.00    +0.000 A 
ATOM      4  C   UNL     1       1.758   7.717  19.116  0.00  0.00    +0.000 A 
ATOM      5  C   UNL     1       1.606   7.112  20.371  0.00  0.00    +0.000 A 
ATOM      6  C   UNL     1       1.739   5.728  20.512  0.00  0.00    +0.000 A 
ATOM      7  C   UNL     1       2.145   4.955  19.428  0.00  0.00    +0.000 A 
ATOM      8  O   UNL     1       2.345   3.622  19.676  0.00  0.00    +0.000 OA
ATOM      9  C   UNL     1       3.412   3.012  18.913  0.00  0.00    +0.000 C 
ATOM     10  C   UNL     1       3.223   3.323  17.418  0.00  0.00    +0.000 C 
ENDROOT
BRANCH   1  17
ATOM     11  O   UNL     1       5.132   4.324  14.878  0.00  0.00    +0.000 OA
ATOM     12  C   UNL     1       5.426   4.994  15.869  0.00  0.00    +0.000 A 
ATOM     13  C   UNL     1       6.855   5.297  16.076  0.00  0.00    +0.000 A 
ATOM     14  C   UNL     1       7.216   6.236  16.959  0.00  0.00    +0.000 A 
ATOM     15  C   UNL     1       6.212   6.938  17.705  0.00  0.00    +0.000 A 
ATOM     16  C   UNL     1       4.945   6.508  17.694  0.00  0.00    +0.000 A 
ATOM     17  N   UNL     1       4.533   5.469  16.856  0.00  0.00    +0.000 N 
ENDBRANCH   1  17
BRANCH   4  18
ATOM     18  C   UNL     1       1.811   9.230  18.973  0.00  0.00    +0.000 C 
ATOM     19  F   UNL     1       2.253   9.828  20.129  0.00  0.00    +0.000 F 
ATOM     20  F   UNL     1       2.766   9.587  18.046  0.00  0.00    +0.000 F 
BRANCH  18  21
ATOM     21  C   UNL     1       0.467   9.867  18.558  0.00  0.00    +0.000 C 
ATOM     22  F   UNL     1       0.537  11.210  18.385  0.00  0.00    +0.000 F 
ATOM     23  F   UNL     1      -0.002   9.348  17.395  0.00  0.00    +0.000 F 
ATOM     24  F   UNL     1      -0.498   9.651  19.491  0.00  0.00    +0.000 F 
ENDBRANCH  18  21
ENDBRANCH   4  18
BRANCH   9  25
ATOM     25  C   UNL     1       3.323   1.493  19.127  0.00  0.00    +0.000 C 
ATOM     26  F   UNL     1       4.038   0.856  18.157  0.00  0.00    +0.000 F 
ENDBRANCH   9  25
BRANCH   9  27
ATOM     27  C   UNL     1       4.770   3.463  19.467  0.00  0.00    +0.000 C 
ATOM     28  F   UNL     1       5.201   2.556  20.393  0.00  0.00    +0.000 F 
ENDBRANCH   9  27
BRANCH  10  29
ATOM     29  O   UNL     1       1.972   2.751  16.953  0.00  0.00    +0.000 OA
ATOM     30  H   UNL     1       1.962   1.809  17.222  0.00  0.00    +0.000 HD
ENDBRANCH  10  29
TORSDOF 6
ENDMDL
MODEL 8
REMARK VINA RESULT:      -6.6      2.134      5.690
REMARK  Name = 
REMARK  6 active torsions:
REMARK  status: ('A' for Active; 'I' for Inactive)
REMARK    1  A    between atoms: N_7  and  C_8
REMARK    2  A    between atoms: C_11  and  C_12
REMARK    3  A    between atoms: C_12  and  C_15
REMARK    4  A    between atoms: C_23  and  C_24
REMARK    5  A    between atoms: C_23  and  C_26
REMARK    6  A    between atoms: C_28  and  O_29
REMARK                            x       y       z     vdW  Elec       q    Type
REMARK                         _______ _______ _______ _____ _____    ______ ____
ROOT
ATOM      1  C   UNL     1       3.719   6.212  17.021  0.00  0.00    +0.000 C 
ATOM      2  C   UNL     1       3.782   4.751  17.428  0.00  0.00    +0.000 A 
ATOM      3  C   UNL     1       2.595   4.088  17.790  0.00  0.00    +0.000 A 
ATOM      4  C   UNL     1       2.648   2.962  18.626  0.00  0.00    +0.000 A 
ATOM      5  C   UNL     1       3.895   2.396  18.923  0.00  0.00    +0.000 A 
ATOM      6  C   UNL     1       5.067   2.948  18.397  0.00  0.00    +0.000 A 
ATOM      7  C   UNL     1       5.012   4.135  17.673  0.00  0.00    +0.000 A 
ATOM      8  O   UNL     1       6.215   4.658  17.276  0.00  0.00    +0.000 OA
ATOM      9  C   UNL     1       6.274   6.104  17.252  0.00  0.00    +0.000 C 
ATOM     10  C   UNL     1       5.084   6.657  16.448  0.00  0.00    +0.000 C 
ENDROOT
BRANCH   1  17
ATOM     11  O   UNL     1       3.646   5.870  20.016  0.00  0.00    +0.000 OA
ATOM     12  C   UNL     1       3.009   6.748  19.432  0.00  0.00    +0.000 A 
ATOM     13  C   UNL     1       1.968   7.452  20.207  0.00  0.00    +0.000 A 
ATOM     14  C   UNL     1       1.436   8.584  19.734  0.00  0.00    +0.000 A 
ATOM     15  C   UNL     1       1.876   9.106  18.472  0.00  0.00    +0.000 A 
ATOM     16  C   UNL     1       2.637   8.358  17.665  0.00  0.00    +0.000 A 
ATOM     17  N   UNL     1       3.144   7.123  18.076  0.00  0.00    +0.000 N 
ENDBRANCH   1  17
BRANCH   4  18
ATOM     18  C   UNL     1       1.385   2.503  19.340  0.00  0.00    +0.000 C 
ATOM     19  F   UNL     1       0.283   2.604  18.525  0.00  0.00    +0.000 F 
ATOM     20  F   UNL     1       1.455   1.154  19.612  0.00  0.00    +0.000 F 
BRANCH  18  21
ATOM     21  C   UNL     1       1.105   3.253  20.660  0.00  0.00    +0.000 C 
ATOM     22  F   UNL     1       0.475   2.492  21.589  0.00  0.00    +0.000 F 
ATOM     23  F   UNL     1       2.247   3.706  21.237  0.00  0.00    +0.000 F 
ATOM     24  F   UNL     1       0.318   4.343  20.459  0.00  0.00    +0.000 F 
ENDBRANCH  18  21
ENDBRANCH   4  18
BRANCH   9  25
ATOM     25  C   UNL     1       7.583   6.500  16.551  0.00  0.00    +0.000 C 
ATOM     26  F   UNL     1       8.037   7.677  17.069  0.00  0.00    +0.000 F 
ENDBRANCH   9  25
BRANCH   9  27
ATOM     27  C   UNL     1       6.352   6.645  18.684  0.00  0.00    +0.000 C 
ATOM     28  F   UNL     1       7.197   5.860  19.416  0.00  0.00    +0.000 F 
ENDBRANCH   9  27
BRANCH  10  29
ATOM     29  O   UNL     1       5.163   6.193  15.074  0.00  0.00    +0.000 OA
ATOM     30  H   UNL     1       5.091   5.217  15.089  0.00  0.00    +0.000 HD
ENDBRANCH  10  29
TORSDOF 6
ENDMDL
MODEL 9
REMARK VINA RESULT:      -6.6      3.519      5.947
REMARK  Name = 
REMARK  6 active torsions:
REMARK  status: ('A' for Active; 'I' for Inactive)
REMARK    1  A    between atoms: N_7  and  C_8
REMARK    2  A    between atoms: C_11  and  C_12
REMARK    3  A    between atoms: C_12  and  C_15
REMARK    4  A    between atoms: C_23  and  C_24
REMARK    5  A    between atoms: C_23  and  C_26
REMARK    6  A    between atoms: C_28  and  O_29
REMARK                            x       y       z     vdW  Elec       q    Type
REMARK                         _______ _______ _______ _____ _____    ______ ____
ROOT
ATOM      1  C   UNL     1       4.060   5.221  19.649  0.00  0.00    +0.000 C 
ATOM      2  C   UNL     1       3.470   6.564  19.258  0.00  0.00    +0.000 A 
ATOM      3  C   UNL     1       2.658   7.251  20.180  0.00  0.00    +0.000 A 
ATOM      4  C   UNL     1       1.715   8.185  19.724  0.00  0.00    +0.000 A 
ATOM      5  C   UNL     1       1.738   8.567  18.376  0.00  0.00    +0.000 A 
ATOM      6  C   UNL     1       2.681   8.023  17.500  0.00  0.00    +0.000 A 
ATOM      7  C   UNL     1       3.527   7.007  17.934  0.00  0.00    +0.000 A 
ATOM      8  O   UNL     1       4.356   6.463  16.988  0.00  0.00    +0.000 OA
ATOM      9  C   UNL     1       4.622   5.050  17.149  0.00  0.00    +0.000 C 
ATOM     10  C   UNL     1       5.092   4.772  18.588  0.00  0.00    +0.000 C 
ENDROOT
BRANCH   1  17
ATOM     11  O   UNL     1       1.290   4.782  18.543  0.00  0.00    +0.000 OA
ATOM     12  C   UNL     1       1.700   4.209  19.552  0.00  0.00    +0.000 A 
ATOM     13  C   UNL     1       0.697   3.517  20.387  0.00  0.00    +0.000 A 
ATOM     14  C   UNL     1       1.095   2.655  21.329  0.00  0.00    +0.000 A 
ATOM     15  C   UNL     1       2.495   2.411  21.528  0.00  0.00    +0.000 A 
ATOM     16  C   UNL     1       3.404   3.200  20.943  0.00  0.00    +0.000 A 
ATOM     17  N   UNL     1       3.033   4.180  20.019  0.00  0.00    +0.000 N 
ENDBRANCH   1  17
BRANCH   4  18
ATOM     18  C   UNL     1       0.582   8.612  20.645  0.00  0.00    +0.000 C 
ATOM     19  F   UNL     1      -0.477   9.123  19.933  0.00  0.00    +0.000 F 
ATOM     20  F   UNL     1       0.040   7.512  21.274  0.00  0.00    +0.000 F 
BRANCH  18  21
ATOM     21  C   UNL     1       1.003   9.633  21.724  0.00  0.00    +0.000 C 
ATOM     22  F   UNL     1       1.990   9.183  22.537  0.00  0.00    +0.000 F 
ATOM     23  F   UNL     1       1.447  10.793  21.177  0.00  0.00    +0.000 F 
ATOM     24  F   UNL     1      -0.039   9.964  22.533  0.00  0.00    +0.000 F 
ENDBRANCH  18  21
ENDBRANCH   4  18
BRANCH   9  25
ATOM     25  C   UNL     1       5.748   4.679  16.172  0.00  0.00    +0.000 C 
ATOM     26  F   UNL     1       5.226   4.498  14.925  0.00  0.00    +0.000 F 
ENDBRANCH   9  25
BRANCH   9  27
ATOM     27  C   UNL     1       3.387   4.238  16.739  0.00  0.00    +0.000 C 
ATOM     28  F   UNL     1       3.560   2.936  17.114  0.00  0.00    +0.000 F 
ENDBRANCH   9  27
BRANCH  10  29
ATOM     29  O   UNL     1       6.332   5.483  18.845  0.00  0.00    +0.000 OA
ATOM     30  H   UNL     1       7.060   4.830  18.795  0.00  0.00    +0.000 HD
ENDBRANCH  10  29
TORSDOF 6
ENDMDL
