MODEL 1
REMARK VINA RESULT:      -8.1      0.000      0.000
REMARK  Name = 
REMARK  7 active torsions:
REMARK  status: ('A' for Active; 'I' for Inactive)
REMARK    1  A    between atoms: C_1  and  C_2
REMARK    2  A    between atoms: C_2  and  C_3
REMARK    3  A    between atoms: C_2  and  C_4
REMARK    4  A    between atoms: C_2  and  C_5
REMARK    5  A    between atoms: C_5  and  N_6
REMARK    6  A    between atoms: N_6  and  C_7
REMARK    7  A    between atoms: C_17  and  C_18
REMARK                            x       y       z     vdW  Elec       q    Type
REMARK                         _______ _______ _______ _____ _____    ______ ____
ROOT
ATOM      1  C   UNL     1       2.905   5.527  17.646  0.00  0.00    +0.000 A 
ATOM      2  N   UNL     1       3.791   4.691  17.049  0.00  0.00    +0.000 NA
ATOM      3  C   UNL     1       5.034   5.145  16.800  0.00  0.00    +0.000 A 
ATOM      4  C   UNL     1       5.968   4.185  16.219  0.00  0.00    +0.000 A 
ATOM      5  C   UNL     1       7.225   4.569  15.975  0.00  0.00    +0.000 A 
ATOM      6  N   UNL     1       7.640   5.844  16.257  0.00  0.00    +0.000 N 
ATOM      7  C   UNL     1       6.837   6.823  16.804  0.00  0.00    +0.000 A 
ATOM      8  O   UNL     1       7.253   7.948  17.052  0.00  0.00    +0.000 OA
ATOM      9  C   UNL     1       5.441   6.434  17.092  0.00  0.00    +0.000 A 
ATOM     10  C   UNL     1       4.530   7.307  17.674  0.00  0.00    +0.000 A 
ATOM     11  C   UNL     1       3.225   6.874  17.987  0.00  0.00    +0.000 A 
ATOM     12  H   UNL     1       8.599   6.118  16.068  0.00  0.00    +0.000 HD
ENDROOT
BRANCH  11  13
ATOM     13  C   UNL     1       2.287   7.802  18.685  0.00  0.00    +0.000 A 
ATOM     14  C   UNL     1       1.980   7.670  20.054  0.00  0.00    +0.000 A 
ATOM     15  C   UNL     1       1.188   8.609  20.723  0.00  0.00    +0.000 A 
ATOM     16  C   UNL     1       0.643   9.671  20.018  0.00  0.00    +0.000 A 
ATOM     17  F   UNL     1      -0.104  10.578  20.659  0.00  0.00    +0.000 F 
ATOM     18  C   UNL     1       0.867   9.802  18.656  0.00  0.00    +0.000 A 
ATOM     19  C   UNL     1       1.687   8.880  17.999  0.00  0.00    +0.000 A 
ENDBRANCH  11  13
BRANCH   1  20
ATOM     20  N   UNL     1       1.627   5.013  17.929  0.00  0.00    +0.000 N 
ATOM     21  H   UNL     1       1.281   5.479  18.764  0.00  0.00    +0.000 HD
BRANCH  20  22
ATOM     22  C   UNL     1       1.525   3.556  18.015  0.00  0.00    +0.000 C 
BRANCH  22  24
ATOM     23  C   UNL     1       0.996   4.129  20.436  0.00  0.00    +0.000 C 
ATOM     24  C   UNL     1       1.571   3.066  19.485  0.00  0.00    +0.000 C 
ATOM     25  C   UNL     1       3.009   2.721  19.915  0.00  0.00    +0.000 C 
ATOM     26  C   UNL     1       0.711   1.792  19.593  0.00  0.00    +0.000 C 
ENDBRANCH  22  24
ENDBRANCH  20  22
ENDBRANCH   1  20
TORSDOF 4
ENDMDL
MODEL 2
REMARK VINA RESULT:      -8.0      0.503      1.380
REMARK  Name = 
REMARK  7 active torsions:
REMARK  status: ('A' for Active; 'I' for Inactive)
REMARK    1  A    between atoms: C_1  and  C_2
REMARK    2  A    between atoms: C_2  and  C_3
REMARK    3  A    between atoms: C_2  and  C_4
REMARK    4  A    between atoms: C_2  and  C_5
REMARK    5  A    between atoms: C_5  and  N_6
REMARK    6  A    between atoms: N_6  and  C_7
REMARK    7  A    between atoms: C_17  and  C_18
REMARK                            x       y       z     vdW  Elec       q    Type
REMARK                         _______ _______ _______ _____ _____    ______ ____
ROOT
ATOM      1  C   UNL     1       2.909   5.471  17.921  0.00  0.00    +0.000 A 
ATOM      2  N   UNL     1       3.778   4.584  17.374  0.00  0.00    +0.000 NA
ATOM      3  C   UNL     1       4.994   5.026  17.000  0.00  0.00    +0.000 A 
ATOM      4  C   UNL     1       5.915   4.020  16.480  0.00  0.00    +0.000 A 
ATOM      5  C   UNL     1       7.147   4.393  16.118  0.00  0.00    +0.000 A 
ATOM      6  N   UNL     1       7.548   5.699  16.224  0.00  0.00    +0.000 N 
ATOM      7  C   UNL     1       6.754   6.722  16.700  0.00  0.00    +0.000 A 
ATOM      8  O   UNL     1       7.157   7.876  16.788  0.00  0.00    +0.000 OA
ATOM      9  C   UNL     1       5.387   6.347  17.114  0.00  0.00    +0.000 A 
ATOM     10  C   UNL     1       4.490   7.268  17.643  0.00  0.00    +0.000 A 
ATOM     11  C   UNL     1       3.217   6.853  18.083  0.00  0.00    +0.000 A 
ATOM     12  H   UNL     1       8.488   5.965  15.947  0.00  0.00    +0.000 HD
ENDROOT
BRANCH  11  13
ATOM     13  C   UNL     1       2.298   7.842  18.722  0.00  0.00    +0.000 A 
ATOM     14  C   UNL     1       1.651   8.852  17.982  0.00  0.00    +0.000 A 
ATOM     15  C   UNL     1       0.708   9.703  18.569  0.00  0.00    +0.000 A 
ATOM     16  C   UNL     1       0.436   9.592  19.923  0.00  0.00    +0.000 A 
ATOM     17  F   UNL     1      -0.475  10.395  20.484  0.00  0.00    +0.000 F 
ATOM     18  C   UNL     1       1.098   8.655  20.701  0.00  0.00    +0.000 A 
ATOM     19  C   UNL     1       2.015   7.784  20.103  0.00  0.00    +0.000 A 
ENDBRANCH  11  13
BRANCH   1  20
ATOM     20  N   UNL     1       1.662   4.972  18.339  0.00  0.00    +0.000 N 
ATOM     21  H   UNL     1       0.951   5.650  18.077  0.00  0.00    +0.000 HD
BRANCH  20  22
ATOM     22  C   UNL     1       1.567   4.572  19.742  0.00  0.00    +0.000 C 
BRANCH  22  24
ATOM     23  C   UNL     1       3.129   2.566  19.804  0.00  0.00    +0.000 C 
ATOM     24  C   UNL     1       1.668   3.034  19.907  0.00  0.00    +0.000 C 
ATOM     25  C   UNL     1       0.822   2.302  18.849  0.00  0.00    +0.000 C 
ATOM     26  C   UNL     1       1.130   2.665  21.303  0.00  0.00    +0.000 C 
ENDBRANCH  22  24
ENDBRANCH  20  22
ENDBRANCH   1  20
TORSDOF 4
ENDMDL
MODEL 3
REMARK VINA RESULT:      -7.9      0.526      1.342
REMARK  Name = 
REMARK  7 active torsions:
REMARK  status: ('A' for Active; 'I' for Inactive)
REMARK    1  A    between atoms: C_1  and  C_2
REMARK    2  A    between atoms: C_2  and  C_3
REMARK    3  A    between atoms: C_2  and  C_4
REMARK    4  A    between atoms: C_2  and  C_5
REMARK    5  A    between atoms: C_5  and  N_6
REMARK    6  A    between atoms: N_6  and  C_7
REMARK    7  A    between atoms: C_17  and  C_18
REMARK                            x       y       z     vdW  Elec       q    Type
REMARK                         _______ _______ _______ _____ _____    ______ ____
ROOT
ATOM      1  C   UNL     1       2.877   5.515  17.850  0.00  0.00    +0.000 A 
ATOM      2  N   UNL     1       3.739   4.618  17.311  0.00  0.00    +0.000 NA
ATOM      3  C   UNL     1       4.968   5.041  16.956  0.00  0.00    +0.000 A 
ATOM      4  C   UNL     1       5.879   4.023  16.444  0.00  0.00    +0.000 A 
ATOM      5  C   UNL     1       7.122   4.377  16.102  0.00  0.00    +0.000 A 
ATOM      6  N   UNL     1       7.543   5.676  16.221  0.00  0.00    +0.000 N 
ATOM      7  C   UNL     1       6.760   6.709  16.691  0.00  0.00    +0.000 A 
ATOM      8  O   UNL     1       7.181   7.855  16.792  0.00  0.00    +0.000 OA
ATOM      9  C   UNL     1       5.380   6.354  17.084  0.00  0.00    +0.000 A 
ATOM     10  C   UNL     1       4.492   7.287  17.605  0.00  0.00    +0.000 A 
ATOM     11  C   UNL     1       3.205   6.891  18.024  0.00  0.00    +0.000 A 
ATOM     12  H   UNL     1       8.491   5.927  15.959  0.00  0.00    +0.000 HD
ENDROOT
BRANCH  11  13
ATOM     13  C   UNL     1       2.294   7.892  18.655  0.00  0.00    +0.000 A 
ATOM     14  C   UNL     1       1.659   8.904  17.909  0.00  0.00    +0.000 A 
ATOM     15  C   UNL     1       0.723   9.767  18.489  0.00  0.00    +0.000 A 
ATOM     16  C   UNL     1       0.445   9.665  19.842  0.00  0.00    +0.000 A 
ATOM     17  F   UNL     1      -0.460  10.480  20.397  0.00  0.00    +0.000 F 
ATOM     18  C   UNL     1       1.096   8.725  20.627  0.00  0.00    +0.000 A 
ATOM     19  C   UNL     1       2.006   7.843  20.036  0.00  0.00    +0.000 A 
ENDBRANCH  11  13
BRANCH   1  20
ATOM     20  N   UNL     1       1.616   5.035  18.247  0.00  0.00    +0.000 N 
ATOM     21  H   UNL     1       1.247   5.672  18.948  0.00  0.00    +0.000 HD
BRANCH  20  22
ATOM     22  C   UNL     1       1.566   3.638  18.674  0.00  0.00    +0.000 C 
BRANCH  22  24
ATOM     23  C   UNL     1       1.042   2.531  20.903  0.00  0.00    +0.000 C 
ATOM     24  C   UNL     1       1.996   3.477  20.155  0.00  0.00    +0.000 C 
ATOM     25  C   UNL     1       2.037   4.836  20.876  0.00  0.00    +0.000 C 
ATOM     26  C   UNL     1       3.411   2.868  20.180  0.00  0.00    +0.000 C 
ENDBRANCH  22  24
ENDBRANCH  20  22
ENDBRANCH   1  20
TORSDOF 4
ENDMDL
MODEL 4
REMARK VINA RESULT:      -7.8      3.234      5.818
REMARK  Name = 
REMARK  7 active torsions:
REMARK  status: ('A' for Active; 'I' for Inactive)
REMARK    1  A    between atoms: C_1  and  C_2
REMARK    2  A    between atoms: C_2  and  C_3
REMARK    3  A    between atoms: C_2  and  C_4
REMARK    4  A    between atoms: C_2  and  C_5
REMARK    5  A    between atoms: C_5  and  N_6
REMARK    6  A    between atoms: N_6  and  C_7
REMARK    7  A    between atoms: C_17  and  C_18
REMARK                            x       y       z     vdW  Elec       q    Type
REMARK                         _______ _______ _______ _____ _____    ______ ____
ROOT
ATOM      1  C   UNL     1       2.152   6.625  20.208  0.00  0.00    +0.000 A 
ATOM      2  N   UNL     1       1.394   7.551  20.846  0.00  0.00    +0.000 NA
ATOM      3  C   UNL     1       1.193   8.739  20.245  0.00  0.00    +0.000 A 
ATOM      4  C   UNL     1       0.315   9.675  20.941  0.00  0.00    +0.000 A 
ATOM      5  C   UNL     1       0.055  10.861  20.381  0.00  0.00    +0.000 A 
ATOM      6  N   UNL     1       0.605  11.206  19.174  0.00  0.00    +0.000 N 
ATOM      7  C   UNL     1       1.445  10.395  18.439  0.00  0.00    +0.000 A 
ATOM      8  O   UNL     1       1.905  10.739  17.357  0.00  0.00    +0.000 OA
ATOM      9  C   UNL     1       1.752   9.074  19.025  0.00  0.00    +0.000 A 
ATOM     10  C   UNL     1       2.557   8.142  18.380  0.00  0.00    +0.000 A 
ATOM     11  C   UNL     1       2.772   6.870  18.948  0.00  0.00    +0.000 A 
ATOM     12  H   UNL     1       0.395  12.109  18.761  0.00  0.00    +0.000 HD
ENDROOT
BRANCH  11  13
ATOM     13  C   UNL     1       3.574   5.856  18.202  0.00  0.00    +0.000 A 
ATOM     14  C   UNL     1       2.973   4.792  17.501  0.00  0.00    +0.000 A 
ATOM     15  C   UNL     1       3.725   3.912  16.715  0.00  0.00    +0.000 A 
ATOM     16  C   UNL     1       5.102   4.050  16.660  0.00  0.00    +0.000 A 
ATOM     17  F   UNL     1       5.823   3.218  15.898  0.00  0.00    +0.000 F 
ATOM     18  C   UNL     1       5.741   5.044  17.387  0.00  0.00    +0.000 A 
ATOM     19  C   UNL     1       4.982   5.942  18.144  0.00  0.00    +0.000 A 
ENDBRANCH  11  13
BRANCH   1  20
ATOM     20  N   UNL     1       2.311   5.379  20.841  0.00  0.00    +0.000 N 
ATOM     21  H   UNL     1       3.232   5.022  20.600  0.00  0.00    +0.000 HD
BRANCH  20  22
ATOM     22  C   UNL     1       1.250   4.400  20.609  0.00  0.00    +0.000 C 
BRANCH  22  24
ATOM     23  C   UNL     1       3.334   2.950  20.462  0.00  0.00    +0.000 C 
ATOM     24  C   UNL     1       1.802   2.951  20.589  0.00  0.00    +0.000 C 
ATOM     25  C   UNL     1       1.193   2.136  19.434  0.00  0.00    +0.000 C 
ATOM     26  C   UNL     1       1.419   2.274  21.920  0.00  0.00    +0.000 C 
ENDBRANCH  22  24
ENDBRANCH  20  22
ENDBRANCH   1  20
TORSDOF 4
ENDMDL
MODEL 5
REMARK VINA RESULT:      -7.7      3.536      6.237
REMARK  Name = 
REMARK  7 active torsions:
REMARK  status: ('A' for Active; 'I' for Inactive)
REMARK    1  A    between atoms: C_1  and  C_2
REMARK    2  A    between atoms: C_2  and  C_3
REMARK    3  A    between atoms: C_2  and  C_4
REMARK    4  A    between atoms: C_2  and  C_5
REMARK    5  A    between atoms: C_5  and  N_6
REMARK    6  A    between atoms: N_6  and  C_7
REMARK    7  A    between atoms: C_17  and  C_18
REMARK                            x       y       z     vdW  Elec       q    Type
REMARK                         _______ _______ _______ _____ _____    ______ ____
ROOT
ATOM      1  C   UNL     1       4.781   3.763  17.596  0.00  0.00    +0.000 A 
ATOM      2  N   UNL     1       3.757   2.885  17.733  0.00  0.00    +0.000 NA
ATOM      3  C   UNL     1       2.757   3.193  18.581  0.00  0.00    +0.000 A 
ATOM      4  C   UNL     1       1.647   2.248  18.642  0.00  0.00    +0.000 A 
ATOM      5  C   UNL     1       0.611   2.514  19.444  0.00  0.00    +0.000 A 
ATOM      6  N   UNL     1       0.584   3.651  20.208  0.00  0.00    +0.000 N 
ATOM      7  C   UNL     1       1.581   4.604  20.222  0.00  0.00    +0.000 A 
ATOM      8  O   UNL     1       1.511   5.614  20.912  0.00  0.00    +0.000 OA
ATOM      9  C   UNL     1       2.741   4.347  19.343  0.00  0.00    +0.000 A 
ATOM     10  C   UNL     1       3.802   5.237  19.233  0.00  0.00    +0.000 A 
ATOM     11  C   UNL     1       4.859   4.979  18.335  0.00  0.00    +0.000 A 
ATOM     12  H   UNL     1      -0.212   3.839  20.809  0.00  0.00    +0.000 HD
ENDROOT
BRANCH  11  13
ATOM     13  C   UNL     1       5.950   5.986  18.172  0.00  0.00    +0.000 A 
ATOM     14  C   UNL     1       5.806   7.121  17.350  0.00  0.00    +0.000 A 
ATOM     15  C   UNL     1       6.790   8.114  17.290  0.00  0.00    +0.000 A 
ATOM     16  C   UNL     1       7.962   7.960  18.013  0.00  0.00    +0.000 A 
ATOM     17  F   UNL     1       8.899   8.915  17.968  0.00  0.00    +0.000 F 
ATOM     18  C   UNL     1       8.171   6.827  18.784  0.00  0.00    +0.000 A 
ATOM     19  C   UNL     1       7.171   5.853  18.867  0.00  0.00    +0.000 A 
ENDBRANCH  11  13
BRANCH   1  20
ATOM     20  N   UNL     1       5.791   3.433  16.674  0.00  0.00    +0.000 N 
ATOM     21  H   UNL     1       6.569   4.069  16.823  0.00  0.00    +0.000 HD
BRANCH  20  22
ATOM     22  C   UNL     1       5.382   3.361  15.272  0.00  0.00    +0.000 C 
BRANCH  22  24
ATOM     23  C   UNL     1       6.371   3.875  12.986  0.00  0.00    +0.000 C 
ATOM     24  C   UNL     1       6.126   4.411  14.406  0.00  0.00    +0.000 C 
ATOM     25  C   UNL     1       7.471   4.809  15.041  0.00  0.00    +0.000 C 
ATOM     26  C   UNL     1       5.240   5.668  14.310  0.00  0.00    +0.000 C 
ENDBRANCH  22  24
ENDBRANCH  20  22
ENDBRANCH   1  20
TORSDOF 4
ENDMDL
MODEL 6
REMARK VINA RESULT:      -7.7      3.171      5.850
REMARK  Name = 
REMARK  7 active torsions:
REMARK  status: ('A' for Active; 'I' for Inactive)
REMARK    1  A    between atoms: C_1  and  C_2
REMARK    2  A    between atoms: C_2  and  C_3
REMARK    3  A    between atoms: C_2  and  C_4
REMARK    4  A    between atoms: C_2  and  C_5
REMARK    5  A    between atoms: C_5  and  N_6
REMARK    6  A    between atoms: N_6  and  C_7
REMARK    7  A    between atoms: C_17  and  C_18
REMARK                            x       y       z     vdW  Elec       q    Type
REMARK                         _______ _______ _______ _____ _____    ______ ____
ROOT
ATOM      1  C   UNL     1       2.684   6.480  19.734  0.00  0.00    +0.000 A 
ATOM      2  N   UNL     1       1.916   7.245  20.549  0.00  0.00    +0.000 NA
ATOM      3  C   UNL     1       1.495   8.441  20.097  0.00  0.00    +0.000 A 
ATOM      4  C   UNL     1       0.616   9.195  20.986  0.00  0.00    +0.000 A 
ATOM      5  C   UNL     1       0.143  10.378  20.581  0.00  0.00    +0.000 A 
ATOM      6  N   UNL     1       0.477  10.889  19.354  0.00  0.00    +0.000 N 
ATOM      7  C   UNL     1       1.299  10.257  18.444  0.00  0.00    +0.000 A 
ATOM      8  O   UNL     1       1.562  10.744  17.352  0.00  0.00    +0.000 OA
ATOM      9  C   UNL     1       1.837   8.944  18.855  0.00  0.00    +0.000 A 
ATOM     10  C   UNL     1       2.651   8.180  18.026  0.00  0.00    +0.000 A 
ATOM     11  C   UNL     1       3.091   6.906  18.435  0.00  0.00    +0.000 A 
ATOM     12  H   UNL     1       0.107  11.787  19.061  0.00  0.00    +0.000 HD
ENDROOT
BRANCH  11  13
ATOM     13  C   UNL     1       3.898   6.068  17.499  0.00  0.00    +0.000 A 
ATOM     14  C   UNL     1       4.953   6.602  16.734  0.00  0.00    +0.000 A 
ATOM     15  C   UNL     1       5.773   5.789  15.944  0.00  0.00    +0.000 A 
ATOM     16  C   UNL     1       5.516   4.430  15.865  0.00  0.00    +0.000 A 
ATOM     17  F   UNL     1       6.307   3.647  15.121  0.00  0.00    +0.000 F 
ATOM     18  C   UNL     1       4.448   3.873  16.551  0.00  0.00    +0.000 A 
ATOM     19  C   UNL     1       3.651   4.685  17.366  0.00  0.00    +0.000 A 
ENDBRANCH  11  13
BRANCH   1  20
ATOM     20  N   UNL     1       3.075   5.218  20.217  0.00  0.00    +0.000 N 
ATOM     21  H   UNL     1       3.295   4.632  19.416  0.00  0.00    +0.000 HD
BRANCH  20  22
ATOM     22  C   UNL     1       2.151   4.573  21.150  0.00  0.00    +0.000 C 
BRANCH  22  24
ATOM     23  C   UNL     1       0.862   2.994  19.629  0.00  0.00    +0.000 C 
ATOM     24  C   UNL     1       1.892   3.094  20.767  0.00  0.00    +0.000 C 
ATOM     25  C   UNL     1       1.396   2.281  21.977  0.00  0.00    +0.000 C 
ATOM     26  C   UNL     1       3.221   2.484  20.281  0.00  0.00    +0.000 C 
ENDBRANCH  22  24
ENDBRANCH  20  22
ENDBRANCH   1  20
TORSDOF 4
ENDMDL
MODEL 7
REMARK VINA RESULT:      -7.5      3.081      5.780
REMARK  Name = 
REMARK  7 active torsions:
REMARK  status: ('A' for Active; 'I' for Inactive)
REMARK    1  A    between atoms: C_1  and  C_2
REMARK    2  A    between atoms: C_2  and  C_3
REMARK    3  A    between atoms: C_2  and  C_4
REMARK    4  A    between atoms: C_2  and  C_5
REMARK    5  A    between atoms: C_5  and  N_6
REMARK    6  A    between atoms: N_6  and  C_7
REMARK    7  A    between atoms: C_17  and  C_18
REMARK                            x       y       z     vdW  Elec       q    Type
REMARK                         _______ _______ _______ _____ _____    ______ ____
ROOT
ATOM      1  C   UNL     1       3.330   5.897  19.340  0.00  0.00    +0.000 A 
ATOM      2  N   UNL     1       2.410   6.475  20.152  0.00  0.00    +0.000 NA
ATOM      3  C   UNL     1       1.918   7.680  19.809  0.00  0.00    +0.000 A 
ATOM      4  C   UNL     1       0.883   8.227  20.680  0.00  0.00    +0.000 A 
ATOM      5  C   UNL     1       0.335   9.408  20.375  0.00  0.00    +0.000 A 
ATOM      6  N   UNL     1       0.736  10.106  19.266  0.00  0.00    +0.000 N 
ATOM      7  C   UNL     1       1.705   9.677  18.383  0.00  0.00    +0.000 A 
ATOM      8  O   UNL     1       2.025  10.328  17.396  0.00  0.00    +0.000 OA
ATOM      9  C   UNL     1       2.330   8.373  18.685  0.00  0.00    +0.000 A 
ATOM     10  C   UNL     1       3.295   7.802  17.864  0.00  0.00    +0.000 A 
ATOM     11  C   UNL     1       3.820   6.528  18.159  0.00  0.00    +0.000 A 
ATOM     12  H   UNL     1       0.308  11.000  19.048  0.00  0.00    +0.000 HD
ENDROOT
BRANCH  11  13
ATOM     13  C   UNL     1       4.797   5.897  17.222  0.00  0.00    +0.000 A 
ATOM     14  C   UNL     1       4.420   4.894  16.308  0.00  0.00    +0.000 A 
ATOM     15  C   UNL     1       5.316   4.389  15.360  0.00  0.00    +0.000 A 
ATOM     16  C   UNL     1       6.625   4.843  15.347  0.00  0.00    +0.000 A 
ATOM     17  F   UNL     1       7.482   4.372  14.432  0.00  0.00    +0.000 F 
ATOM     18  C   UNL     1       7.055   5.782  16.271  0.00  0.00    +0.000 A 
ATOM     19  C   UNL     1       6.147   6.309  17.195  0.00  0.00    +0.000 A 
ENDBRANCH  11  13
BRANCH   1  20
ATOM     20  N   UNL     1       3.796   4.621  19.704  0.00  0.00    +0.000 N 
ATOM     21  H   UNL     1       4.358   4.263  18.935  0.00  0.00    +0.000 HD
BRANCH  20  22
ATOM     22  C   UNL     1       2.780   3.668  20.149  0.00  0.00    +0.000 C 
BRANCH  22  24
ATOM     23  C   UNL     1       3.315   2.089  18.228  0.00  0.00    +0.000 C 
ATOM     24  C   UNL     1       2.201   2.854  18.963  0.00  0.00    +0.000 C 
ATOM     25  C   UNL     1       1.464   3.766  17.965  0.00  0.00    +0.000 C 
ATOM     26  C   UNL     1       1.194   1.833  19.528  0.00  0.00    +0.000 C 
ENDBRANCH  22  24
ENDBRANCH  20  22
ENDBRANCH   1  20
TORSDOF 4
ENDMDL
MODEL 8
REMARK VINA RESULT:      -7.4      1.381      1.696
REMARK  Name = 
REMARK  7 active torsions:
REMARK  status: ('A' for Active; 'I' for Inactive)
REMARK    1  A    between atoms: C_1  and  C_2
REMARK    2  A    between atoms: C_2  and  C_3
REMARK    3  A    between atoms: C_2  and  C_4
REMARK    4  A    between atoms: C_2  and  C_5
REMARK    5  A    between atoms: C_5  and  N_6
REMARK    6  A    between atoms: N_6  and  C_7
REMARK    7  A    between atoms: C_17  and  C_18
REMARK                            x       y       z     vdW  Elec       q    Type
REMARK                         _______ _______ _______ _____ _____    ______ ____
ROOT
ATOM      1  C   UNL     1       3.645   5.572  19.162  0.00  0.00    +0.000 A 
ATOM      2  N   UNL     1       4.561   4.706  18.661  0.00  0.00    +0.000 NA
ATOM      3  C   UNL     1       5.093   4.965  17.451  0.00  0.00    +0.000 A 
ATOM      4  C   UNL     1       6.122   4.040  16.987  0.00  0.00    +0.000 A 
ATOM      5  C   UNL     1       6.707   4.260  15.805  0.00  0.00    +0.000 A 
ATOM      6  N   UNL     1       6.350   5.332  15.030  0.00  0.00    +0.000 N 
ATOM      7  C   UNL     1       5.390   6.260  15.377  0.00  0.00    +0.000 A 
ATOM      8  O   UNL     1       5.109   7.212  14.658  0.00  0.00    +0.000 OA
ATOM      9  C   UNL     1       4.724   6.052  16.680  0.00  0.00    +0.000 A 
ATOM     10  C   UNL     1       3.763   6.926  17.172  0.00  0.00    +0.000 A 
ATOM     11  C   UNL     1       3.198   6.722  18.447  0.00  0.00    +0.000 A 
ATOM     12  H   UNL     1       6.806   5.486  14.136  0.00  0.00    +0.000 HD
ENDROOT
BRANCH  11  13
ATOM     13  C   UNL     1       2.226   7.716  18.992  0.00  0.00    +0.000 A 
ATOM     14  C   UNL     1       1.804   7.694  20.336  0.00  0.00    +0.000 A 
ATOM     15  C   UNL     1       0.981   8.694  20.865  0.00  0.00    +0.000 A 
ATOM     16  C   UNL     1       0.520   9.707  20.039  0.00  0.00    +0.000 A 
ATOM     17  F   UNL     1      -0.257  10.673  20.545  0.00  0.00    +0.000 F 
ATOM     18  C   UNL     1       0.858   9.730  18.695  0.00  0.00    +0.000 A 
ATOM     19  C   UNL     1       1.709   8.747  18.179  0.00  0.00    +0.000 A 
ENDBRANCH  11  13
BRANCH   1  20
ATOM     20  N   UNL     1       3.137   5.298  20.445  0.00  0.00    +0.000 N 
ATOM     21  H   UNL     1       3.603   5.915  21.104  0.00  0.00    +0.000 HD
BRANCH  20  22
ATOM     22  C   UNL     1       3.174   3.897  20.864  0.00  0.00    +0.000 C 
BRANCH  22  24
ATOM     23  C   UNL     1       1.956   2.178  19.439  0.00  0.00    +0.000 C 
ATOM     24  C   UNL     1       1.823   3.184  20.594  0.00  0.00    +0.000 C 
ATOM     25  C   UNL     1       0.712   4.197  20.264  0.00  0.00    +0.000 C 
ATOM     26  C   UNL     1       1.423   2.418  21.870  0.00  0.00    +0.000 C 
ENDBRANCH  22  24
ENDBRANCH  20  22
ENDBRANCH   1  20
TORSDOF 4
ENDMDL
MODEL 9
REMARK VINA RESULT:      -7.1      3.125      5.811
REMARK  Name = 
REMARK  7 active torsions:
REMARK  status: ('A' for Active; 'I' for Inactive)
REMARK    1  A    between atoms: C_1  and  C_2
REMARK    2  A    between atoms: C_2  and  C_3
REMARK    3  A    between atoms: C_2  and  C_4
REMARK    4  A    between atoms: C_2  and  C_5
REMARK    5  A    between atoms: C_5  and  N_6
REMARK    6  A    between atoms: N_6  and  C_7
REMARK    7  A    between atoms: C_17  and  C_18
REMARK                            x       y       z     vdW  Elec       q    Type
REMARK                         _______ _______ _______ _____ _____    ______ ____
ROOT
ATOM      1  C   UNL     1       2.710   6.428  19.723  0.00  0.00    +0.000 A 
ATOM      2  N   UNL     1       1.739   7.144  20.342  0.00  0.00    +0.000 NA
ATOM      3  C   UNL     1       1.433   8.363  19.859  0.00  0.00    +0.000 A 
ATOM      4  C   UNL     1       0.335   9.063  20.518  0.00  0.00    +0.000 A 
ATOM      5  C   UNL     1      -0.033  10.266  20.065  0.00  0.00    +0.000 A 
ATOM      6  N   UNL     1       0.607  10.845  19.001  0.00  0.00    +0.000 N 
ATOM      7  C   UNL     1       1.653  10.267  18.312  0.00  0.00    +0.000 A 
ATOM      8  O   UNL     1       2.189  10.815  17.357  0.00  0.00    +0.000 OA
ATOM      9  C   UNL     1       2.085   8.934  18.782  0.00  0.00    +0.000 A 
ATOM     10  C   UNL     1       3.104   8.221  18.161  0.00  0.00    +0.000 A 
ATOM     11  C   UNL     1       3.442   6.927  18.605  0.00  0.00    +0.000 A 
ATOM     12  H   UNL     1       0.312  11.757  18.668  0.00  0.00    +0.000 HD
ENDROOT
BRANCH  11  13
ATOM     13  C   UNL     1       4.484   6.145  17.876  0.00  0.00    +0.000 A 
ATOM     14  C   UNL     1       4.408   5.904  16.490  0.00  0.00    +0.000 A 
ATOM     15  C   UNL     1       5.443   5.267  15.797  0.00  0.00    +0.000 A 
ATOM     16  C   UNL     1       6.552   4.811  16.492  0.00  0.00    +0.000 A 
ATOM     17  F   UNL     1       7.550   4.213  15.829  0.00  0.00    +0.000 F 
ATOM     18  C   UNL     1       6.637   4.969  17.866  0.00  0.00    +0.000 A 
ATOM     19  C   UNL     1       5.615   5.637  18.550  0.00  0.00    +0.000 A 
ENDBRANCH  11  13
BRANCH   1  20
ATOM     20  N   UNL     1       2.980   5.143  20.226  0.00  0.00    +0.000 N 
ATOM     21  H   UNL     1       3.798   4.783  19.740  0.00  0.00    +0.000 HD
BRANCH  20  22
ATOM     22  C   UNL     1       1.861   4.201  20.216  0.00  0.00    +0.000 C 
BRANCH  22  24
ATOM     23  C   UNL     1       1.459   4.079  17.707  0.00  0.00    +0.000 C 
ATOM     24  C   UNL     1       1.888   3.294  18.958  0.00  0.00    +0.000 C 
ATOM     25  C   UNL     1       0.971   2.070  19.132  0.00  0.00    +0.000 C 
ATOM     26  C   UNL     1       3.333   2.798  18.756  0.00  0.00    +0.000 C 
ENDBRANCH  22  24
ENDBRANCH  20  22
ENDBRANCH   1  20
TORSDOF 4
ENDMDL
