MODEL 1
REMARK VINA RESULT:      -7.4      0.000      0.000
REMARK  Name = 
REMARK  2 active torsions:
REMARK  status: ('A' for Active; 'I' for Inactive)
REMARK    1  A    between atoms: C_1  and  C_2
REMARK    2  A    between atoms: C_4  and  C_5
REMARK                            x       y       z     vdW  Elec       q    Type
REMARK                         _______ _______ _______ _____ _____    ______ ____
ROOT
ATOM      1  C   UNL     1       7.756   5.707  18.955  0.00  0.00    +0.000 C 
ATOM      2  C   UNL     1       6.523   5.073  18.373  0.00  0.00    +0.000 A 
ATOM      3  C   UNL     1       5.480   4.717  19.234  0.00  0.00    +0.000 A 
ATOM      4  C   UNL     1       4.327   4.131  18.724  0.00  0.00    +0.000 A 
ATOM      5  N   UNL     1       4.186   3.878  17.401  0.00  0.00    +0.000 NA
ATOM      6  C   UNL     1       5.180   4.215  16.559  0.00  0.00    +0.000 A 
ATOM      7  C   UNL     1       5.017   3.961  15.202  0.00  0.00    +0.000 A 
ATOM      8  C   UNL     1       6.003   4.279  14.263  0.00  0.00    +0.000 A 
ATOM      9  C   UNL     1       7.188   4.865  14.684  0.00  0.00    +0.000 A 
ATOM     10  C   UNL     1       7.377   5.134  16.037  0.00  0.00    +0.000 A 
ATOM     11  C   UNL     1       6.382   4.819  16.992  0.00  0.00    +0.000 A 
ENDROOT
BRANCH   4  12
ATOM     12  C   UNL     1       3.199   3.729  19.591  0.00  0.00    +0.000 A 
ATOM     13  C   UNL     1       1.923   4.295  19.457  0.00  0.00    +0.000 A 
ATOM     14  C   UNL     1       0.912   3.913  20.326  0.00  0.00    +0.000 A 
ATOM     15  N   UNL     1       1.073   3.009  21.311  0.00  0.00    +0.000 NA
ATOM     16  C   UNL     1       2.296   2.452  21.420  0.00  0.00    +0.000 A 
ATOM     17  C   UNL     1       3.367   2.770  20.598  0.00  0.00    +0.000 A 
ENDBRANCH   4  12
TORSDOF 1
ENDMDL
MODEL 2
REMARK VINA RESULT:      -7.4      0.132      1.143
REMARK  Name = 
REMARK  2 active torsions:
REMARK  status: ('A' for Active; 'I' for Inactive)
REMARK    1  A    between atoms: C_1  and  C_2
REMARK    2  A    between atoms: C_4  and  C_5
REMARK                            x       y       z     vdW  Elec       q    Type
REMARK                         _______ _______ _______ _____ _____    ______ ____
ROOT
ATOM      1  C   UNL     1       7.741   5.957  18.881  0.00  0.00    +0.000 C 
ATOM      2  C   UNL     1       6.526   5.253  18.343  0.00  0.00    +0.000 A 
ATOM      3  C   UNL     1       5.503   4.902  19.230  0.00  0.00    +0.000 A 
ATOM      4  C   UNL     1       4.367   4.253  18.760  0.00  0.00    +0.000 A 
ATOM      5  N   UNL     1       4.224   3.933  17.452  0.00  0.00    +0.000 NA
ATOM      6  C   UNL     1       5.197   4.266  16.585  0.00  0.00    +0.000 A 
ATOM      7  C   UNL     1       5.032   3.943  15.243  0.00  0.00    +0.000 A 
ATOM      8  C   UNL     1       5.997   4.250  14.280  0.00  0.00    +0.000 A 
ATOM      9  C   UNL     1       7.164   4.896  14.660  0.00  0.00    +0.000 A 
ATOM     10  C   UNL     1       7.356   5.235  15.998  0.00  0.00    +0.000 A 
ATOM     11  C   UNL     1       6.381   4.930  16.977  0.00  0.00    +0.000 A 
ENDROOT
BRANCH   4  12
ATOM     12  C   UNL     1       3.262   3.853  19.656  0.00  0.00    +0.000 A 
ATOM     13  C   UNL     1       3.417   2.850  20.624  0.00  0.00    +0.000 A 
ATOM     14  C   UNL     1       2.334   2.484  21.409  0.00  0.00    +0.000 A 
ATOM     15  N   UNL     1       1.113   3.044  21.308  0.00  0.00    +0.000 NA
ATOM     16  C   UNL     1       0.976   4.024  20.391  0.00  0.00    +0.000 A 
ATOM     17  C   UNL     1       2.001   4.457  19.562  0.00  0.00    +0.000 A 
ENDBRANCH   4  12
TORSDOF 1
ENDMDL
MODEL 3
REMARK VINA RESULT:      -7.2      3.406      4.412
REMARK  Name = 
REMARK  2 active torsions:
REMARK  status: ('A' for Active; 'I' for Inactive)
REMARK    1  A    between atoms: C_1  and  C_2
REMARK    2  A    between atoms: C_4  and  C_5
REMARK                            x       y       z     vdW  Elec       q    Type
REMARK                         _______ _______ _______ _____ _____    ______ ____
ROOT
ATOM      1  C   UNL     1       2.491   2.986  17.537  0.00  0.00    +0.000 C 
ATOM      2  C   UNL     1       3.076   4.371  17.535  0.00  0.00    +0.000 A 
ATOM      3  C   UNL     1       2.353   5.408  18.133  0.00  0.00    +0.000 A 
ATOM      4  C   UNL     1       2.871   6.698  18.147  0.00  0.00    +0.000 A 
ATOM      5  N   UNL     1       4.066   6.989  17.581  0.00  0.00    +0.000 NA
ATOM      6  C   UNL     1       4.776   6.003  17.003  0.00  0.00    +0.000 A 
ATOM      7  C   UNL     1       6.006   6.312  16.436  0.00  0.00    +0.000 A 
ATOM      8  C   UNL     1       6.802   5.346  15.814  0.00  0.00    +0.000 A 
ATOM      9  C   UNL     1       6.364   4.032  15.751  0.00  0.00    +0.000 A 
ATOM     10  C   UNL     1       5.135   3.692  16.314  0.00  0.00    +0.000 A 
ATOM     11  C   UNL     1       4.326   4.664  16.948  0.00  0.00    +0.000 A 
ENDROOT
BRANCH   4  12
ATOM     12  C   UNL     1       2.144   7.830  18.759  0.00  0.00    +0.000 A 
ATOM     13  C   UNL     1       1.818   7.853  20.123  0.00  0.00    +0.000 A 
ATOM     14  C   UNL     1       1.096   8.920  20.636  0.00  0.00    +0.000 A 
ATOM     15  N   UNL     1       0.680   9.967  19.896  0.00  0.00    +0.000 NA
ATOM     16  C   UNL     1       1.016   9.950  18.591  0.00  0.00    +0.000 A 
ATOM     17  C   UNL     1       1.735   8.927  17.989  0.00  0.00    +0.000 A 
ENDBRANCH   4  12
TORSDOF 1
ENDMDL
MODEL 4
REMARK VINA RESULT:      -7.2      3.387      4.286
REMARK  Name = 
REMARK  2 active torsions:
REMARK  status: ('A' for Active; 'I' for Inactive)
REMARK    1  A    between atoms: C_1  and  C_2
REMARK    2  A    between atoms: C_4  and  C_5
REMARK                            x       y       z     vdW  Elec       q    Type
REMARK                         _______ _______ _______ _____ _____    ______ ____
ROOT
ATOM      1  C   UNL     1       2.505   2.940  17.557  0.00  0.00    +0.000 C 
ATOM      2  C   UNL     1       3.078   4.330  17.542  0.00  0.00    +0.000 A 
ATOM      3  C   UNL     1       2.351   5.364  18.140  0.00  0.00    +0.000 A 
ATOM      4  C   UNL     1       2.857   6.659  18.143  0.00  0.00    +0.000 A 
ATOM      5  N   UNL     1       4.044   6.958  17.565  0.00  0.00    +0.000 NA
ATOM      6  C   UNL     1       4.758   5.974  16.986  0.00  0.00    +0.000 A 
ATOM      7  C   UNL     1       5.981   6.292  16.407  0.00  0.00    +0.000 A 
ATOM      8  C   UNL     1       6.780   5.329  15.783  0.00  0.00    +0.000 A 
ATOM      9  C   UNL     1       6.352   4.011  15.731  0.00  0.00    +0.000 A 
ATOM     10  C   UNL     1       5.132   3.663  16.307  0.00  0.00    +0.000 A 
ATOM     11  C   UNL     1       4.320   4.631  16.943  0.00  0.00    +0.000 A 
ENDROOT
BRANCH   4  12
ATOM     12  C   UNL     1       2.126   7.788  18.755  0.00  0.00    +0.000 A 
ATOM     13  C   UNL     1       1.725   8.906  18.008  0.00  0.00    +0.000 A 
ATOM     14  C   UNL     1       1.080   9.957  18.642  0.00  0.00    +0.000 A 
ATOM     15  N   UNL     1       0.799   9.977  19.959  0.00  0.00    +0.000 NA
ATOM     16  C   UNL     1       1.166   8.890  20.668  0.00  0.00    +0.000 A 
ATOM     17  C   UNL     1       1.814   7.793  20.121  0.00  0.00    +0.000 A 
ENDBRANCH   4  12
TORSDOF 1
ENDMDL
MODEL 5
REMARK VINA RESULT:      -7.1      1.750      6.016
REMARK  Name = 
REMARK  2 active torsions:
REMARK  status: ('A' for Active; 'I' for Inactive)
REMARK    1  A    between atoms: C_1  and  C_2
REMARK    2  A    between atoms: C_4  and  C_5
REMARK                            x       y       z     vdW  Elec       q    Type
REMARK                         _______ _______ _______ _____ _____    ______ ____
ROOT
ATOM      1  C   UNL     1       2.262   7.260  19.630  0.00  0.00    +0.000 C 
ATOM      2  C   UNL     1       2.794   6.007  18.991  0.00  0.00    +0.000 A 
ATOM      3  C   UNL     1       3.799   6.119  18.025  0.00  0.00    +0.000 A 
ATOM      4  C   UNL     1       4.311   4.978  17.418  0.00  0.00    +0.000 A 
ATOM      5  N   UNL     1       3.851   3.743  17.730  0.00  0.00    +0.000 NA
ATOM      6  C   UNL     1       2.886   3.617  18.659  0.00  0.00    +0.000 A 
ATOM      7  C   UNL     1       2.432   2.343  18.979  0.00  0.00    +0.000 A 
ATOM      8  C   UNL     1       1.431   2.127  19.930  0.00  0.00    +0.000 A 
ATOM      9  C   UNL     1       0.861   3.210  20.584  0.00  0.00    +0.000 A 
ATOM     10  C   UNL     1       1.299   4.499  20.286  0.00  0.00    +0.000 A 
ATOM     11  C   UNL     1       2.314   4.723  19.327  0.00  0.00    +0.000 A 
ENDROOT
BRANCH   4  12
ATOM     12  C   UNL     1       5.367   5.042  16.386  0.00  0.00    +0.000 A 
ATOM     13  C   UNL     1       5.276   4.322  15.186  0.00  0.00    +0.000 A 
ATOM     14  C   UNL     1       6.317   4.384  14.271  0.00  0.00    +0.000 A 
ATOM     15  N   UNL     1       7.435   5.111  14.458  0.00  0.00    +0.000 NA
ATOM     16  C   UNL     1       7.506   5.819  15.603  0.00  0.00    +0.000 A 
ATOM     17  C   UNL     1       6.517   5.819  16.576  0.00  0.00    +0.000 A 
ENDBRANCH   4  12
TORSDOF 1
ENDMDL
MODEL 6
REMARK VINA RESULT:      -7.1      1.712      6.050
REMARK  Name = 
REMARK  2 active torsions:
REMARK  status: ('A' for Active; 'I' for Inactive)
REMARK    1  A    between atoms: C_1  and  C_2
REMARK    2  A    between atoms: C_4  and  C_5
REMARK                            x       y       z     vdW  Elec       q    Type
REMARK                         _______ _______ _______ _____ _____    ______ ____
ROOT
ATOM      1  C   UNL     1       2.213   7.378  19.647  0.00  0.00    +0.000 C 
ATOM      2  C   UNL     1       2.795   6.103  19.103  0.00  0.00    +0.000 A 
ATOM      3  C   UNL     1       3.791   6.181  18.125  0.00  0.00    +0.000 A 
ATOM      4  C   UNL     1       4.349   5.019  17.606  0.00  0.00    +0.000 A 
ATOM      5  N   UNL     1       3.944   3.794  18.015  0.00  0.00    +0.000 NA
ATOM      6  C   UNL     1       2.987   3.700  18.957  0.00  0.00    +0.000 A 
ATOM      7  C   UNL     1       2.589   2.436  19.376  0.00  0.00    +0.000 A 
ATOM      8  C   UNL     1       1.600   2.253  20.348  0.00  0.00    +0.000 A 
ATOM      9  C   UNL     1       0.987   3.358  20.920  0.00  0.00    +0.000 A 
ATOM     10  C   UNL     1       1.369   4.637  20.520  0.00  0.00    +0.000 A 
ATOM     11  C   UNL     1       2.371   4.829  19.541  0.00  0.00    +0.000 A 
ENDROOT
BRANCH   4  12
ATOM     12  C   UNL     1       5.399   5.047  16.565  0.00  0.00    +0.000 A 
ATOM     13  C   UNL     1       6.599   5.752  16.740  0.00  0.00    +0.000 A 
ATOM     14  C   UNL     1       7.530   5.781  15.713  0.00  0.00    +0.000 A 
ATOM     15  N   UNL     1       7.361   5.158  14.531  0.00  0.00    +0.000 NA
ATOM     16  C   UNL     1       6.216   4.463  14.377  0.00  0.00    +0.000 A 
ATOM     17  C   UNL     1       5.227   4.377  15.347  0.00  0.00    +0.000 A 
ENDBRANCH   4  12
TORSDOF 1
ENDMDL
MODEL 7
REMARK VINA RESULT:      -6.9      3.733      5.041
REMARK  Name = 
REMARK  2 active torsions:
REMARK  status: ('A' for Active; 'I' for Inactive)
REMARK    1  A    between atoms: C_1  and  C_2
REMARK    2  A    between atoms: C_4  and  C_5
REMARK                            x       y       z     vdW  Elec       q    Type
REMARK                         _______ _______ _______ _____ _____    ______ ____
ROOT
ATOM      1  C   UNL     1       5.500   5.395  16.435  0.00  0.00    +0.000 C 
ATOM      2  C   UNL     1       4.266   5.475  17.291  0.00  0.00    +0.000 A 
ATOM      3  C   UNL     1       3.756   6.735  17.620  0.00  0.00    +0.000 A 
ATOM      4  C   UNL     1       2.615   6.839  18.408  0.00  0.00    +0.000 A 
ATOM      5  N   UNL     1       1.981   5.742  18.885  0.00  0.00    +0.000 NA
ATOM      6  C   UNL     1       2.458   4.522  18.577  0.00  0.00    +0.000 A 
ATOM      7  C   UNL     1       1.790   3.404  19.063  0.00  0.00    +0.000 A 
ATOM      8  C   UNL     1       2.223   2.103  18.790  0.00  0.00    +0.000 A 
ATOM      9  C   UNL     1       3.354   1.905  18.013  0.00  0.00    +0.000 A 
ATOM     10  C   UNL     1       4.042   3.007  17.510  0.00  0.00    +0.000 A 
ATOM     11  C   UNL     1       3.607   4.326  17.778  0.00  0.00    +0.000 A 
ENDROOT
BRANCH   4  12
ATOM     12  C   UNL     1       2.040   8.145  18.790  0.00  0.00    +0.000 A 
ATOM     13  C   UNL     1       2.025   9.236  17.909  0.00  0.00    +0.000 A 
ATOM     14  C   UNL     1       1.513  10.453  18.335  0.00  0.00    +0.000 A 
ATOM     15  N   UNL     1       1.009  10.662  19.567  0.00  0.00    +0.000 NA
ATOM     16  C   UNL     1       1.005   9.604  20.402  0.00  0.00    +0.000 A 
ATOM     17  C   UNL     1       1.495   8.350  20.065  0.00  0.00    +0.000 A 
ENDBRANCH   4  12
TORSDOF 1
ENDMDL
MODEL 8
REMARK VINA RESULT:      -6.8      3.711      5.068
REMARK  Name = 
REMARK  2 active torsions:
REMARK  status: ('A' for Active; 'I' for Inactive)
REMARK    1  A    between atoms: C_1  and  C_2
REMARK    2  A    between atoms: C_4  and  C_5
REMARK                            x       y       z     vdW  Elec       q    Type
REMARK                         _______ _______ _______ _____ _____    ______ ____
ROOT
ATOM      1  C   UNL     1       5.324   5.622  16.297  0.00  0.00    +0.000 C 
ATOM      2  C   UNL     1       4.178   5.623  17.271  0.00  0.00    +0.000 A 
ATOM      3  C   UNL     1       3.642   6.849  17.677  0.00  0.00    +0.000 A 
ATOM      4  C   UNL     1       2.581   6.881  18.575  0.00  0.00    +0.000 A 
ATOM      5  N   UNL     1       2.050   5.745  19.085  0.00  0.00    +0.000 NA
ATOM      6  C   UNL     1       2.553   4.556  18.703  0.00  0.00    +0.000 A 
ATOM      7  C   UNL     1       1.991   3.397  19.225  0.00  0.00    +0.000 A 
ATOM      8  C   UNL     1       2.457   2.125  18.881  0.00  0.00    +0.000 A 
ATOM      9  C   UNL     1       3.515   1.999  17.993  0.00  0.00    +0.000 A 
ATOM     10  C   UNL     1       4.096   3.144  17.451  0.00  0.00    +0.000 A 
ATOM     11  C   UNL     1       3.626   4.434  17.792  0.00  0.00    +0.000 A 
ENDROOT
BRANCH   4  12
ATOM     12  C   UNL     1       1.984   8.150  19.042  0.00  0.00    +0.000 A 
ATOM     13  C   UNL     1       1.559   8.326  20.367  0.00  0.00    +0.000 A 
ATOM     14  C   UNL     1       0.964   9.522  20.741  0.00  0.00    +0.000 A 
ATOM     15  N   UNL     1       0.767  10.555  19.899  0.00  0.00    +0.000 NA
ATOM     16  C   UNL     1       1.199  10.388  18.633  0.00  0.00    +0.000 A 
ATOM     17  C   UNL     1       1.804   9.229  18.168  0.00  0.00    +0.000 A 
ENDBRANCH   4  12
TORSDOF 1
ENDMDL
MODEL 9
REMARK VINA RESULT:      -6.7      3.729      5.294
REMARK  Name = 
REMARK  2 active torsions:
REMARK  status: ('A' for Active; 'I' for Inactive)
REMARK    1  A    between atoms: C_1  and  C_2
REMARK    2  A    between atoms: C_4  and  C_5
REMARK                            x       y       z     vdW  Elec       q    Type
REMARK                         _______ _______ _______ _____ _____    ______ ____
ROOT
ATOM      1  C   UNL     1       1.476   3.222  21.137  0.00  0.00    +0.000 C 
ATOM      2  C   UNL     1       1.924   4.400  20.317  0.00  0.00    +0.000 A 
ATOM      3  C   UNL     1       1.517   5.682  20.701  0.00  0.00    +0.000 A 
ATOM      4  C   UNL     1       1.918   6.789  19.964  0.00  0.00    +0.000 A 
ATOM      5  N   UNL     1       2.693   6.664  18.860  0.00  0.00    +0.000 NA
ATOM      6  C   UNL     1       3.096   5.438  18.478  0.00  0.00    +0.000 A 
ATOM      7  C   UNL     1       3.901   5.324  17.351  0.00  0.00    +0.000 A 
ATOM      8  C   UNL     1       4.359   4.087  16.886  0.00  0.00    +0.000 A 
ATOM      9  C   UNL     1       4.005   2.928  17.560  0.00  0.00    +0.000 A 
ATOM     10  C   UNL     1       3.201   3.012  18.695  0.00  0.00    +0.000 A 
ATOM     11  C   UNL     1       2.738   4.261  19.172  0.00  0.00    +0.000 A 
ENDROOT
BRANCH   4  12
ATOM     12  C   UNL     1       1.509   8.164  20.322  0.00  0.00    +0.000 A 
ATOM     13  C   UNL     1       1.209   8.528  21.643  0.00  0.00    +0.000 A 
ATOM     14  C   UNL     1       0.787   9.820  21.917  0.00  0.00    +0.000 A 
ATOM     15  N   UNL     1       0.648  10.777  20.979  0.00  0.00    +0.000 NA
ATOM     16  C   UNL     1       0.960  10.427  19.715  0.00  0.00    +0.000 A 
ATOM     17  C   UNL     1       1.390   9.161  19.346  0.00  0.00    +0.000 A 
ENDBRANCH   4  12
TORSDOF 1
ENDMDL
