MODEL 1
REMARK VINA RESULT:      -5.9      0.000      0.000
REMARK  Name = 
REMARK  6 active torsions:
REMARK  status: ('A' for Active; 'I' for Inactive)
REMARK    1  A    between atoms: C_1  and  N_2
REMARK    2  A    between atoms: N_2  and  C_3
REMARK    3  A    between atoms: N_2  and  N_6
REMARK    4  A    between atoms: C_3  and  C_4
REMARK    5  A    between atoms: N_7  and  C_8
REMARK    6  A    between atoms: C_11  and  C_12
REMARK                            x       y       z     vdW  Elec       q    Type
REMARK                         _______ _______ _______ _____ _____    ______ ____
ROOT
ATOM      1  C   UNL     1       4.351   5.418  17.956  0.00  0.00    +0.000 A 
ATOM      2  C   UNL     1       4.609   4.113  17.523  0.00  0.00    +0.000 A 
ATOM      3  C   UNL     1       5.403   3.864  16.394  0.00  0.00    +0.000 A 
ATOM      4  C   UNL     1       5.949   4.929  15.667  0.00  0.00    +0.000 A 
ATOM      5  C   UNL     1       5.678   6.238  16.084  0.00  0.00    +0.000 A 
ATOM      6  C   UNL     1       4.884   6.479  17.212  0.00  0.00    +0.000 A 
ENDROOT
BRANCH   4   7
ATOM      7  C   UNL     1       6.807   4.750  14.461  0.00  0.00    +0.000 C 
ATOM      8  N   UNL     1       6.485   3.773  13.562  0.00  0.00    +0.000 N 
ATOM      9  O   UNL     1       7.788   5.459  14.263  0.00  0.00    +0.000 OA
ATOM     10  H   UNL     1       5.705   3.142  13.635  0.00  0.00    +0.000 HD
ATOM     11  H   UNL     1       7.092   3.682  12.757  0.00  0.00    +0.000 HD
ENDBRANCH   4   7
BRANCH   1  13
ATOM     12  N   UNL     1       2.493   4.908  19.032  0.00  0.00    +0.000 NA
ATOM     13  N   UNL     1       3.535   5.591  19.096  0.00  0.00    +0.000 NA
BRANCH  12  15
ATOM     14  C   UNL     1       1.591   6.388  20.660  0.00  0.00    +0.000 C 
ATOM     15  N   UNL     1       1.675   5.044  20.117  0.00  0.00    +0.000 N 
BRANCH  15  16
ATOM     16  C   UNL     1       1.222   3.901  20.916  0.00  0.00    +0.000 C 
BRANCH  16  17
ATOM     17  C   UNL     1       2.295   2.980  21.336  0.00  0.00    +0.000 C 
ATOM     18  N   UNL     1       3.174   2.307  21.680  0.00  0.00    +0.000 NA
ENDBRANCH  16  17
ENDBRANCH  15  16
ENDBRANCH  12  15
ENDBRANCH   1  13
TORSDOF 5
ENDMDL
MODEL 2
REMARK VINA RESULT:      -5.8      1.089      1.182
REMARK  Name = 
REMARK  6 active torsions:
REMARK  status: ('A' for Active; 'I' for Inactive)
REMARK    1  A    between atoms: C_1  and  N_2
REMARK    2  A    between atoms: N_2  and  C_3
REMARK    3  A    between atoms: N_2  and  N_6
REMARK    4  A    between atoms: C_3  and  C_4
REMARK    5  A    between atoms: N_7  and  C_8
REMARK    6  A    between atoms: C_11  and  C_12
REMARK                            x       y       z     vdW  Elec       q    Type
REMARK                         _______ _______ _______ _____ _____    ______ ____
ROOT
ATOM      1  C   UNL     1       4.437   5.293  17.758  0.00  0.00    +0.000 A 
ATOM      2  C   UNL     1       4.715   3.996  17.311  0.00  0.00    +0.000 A 
ATOM      3  C   UNL     1       5.474   3.772  16.153  0.00  0.00    +0.000 A 
ATOM      4  C   UNL     1       5.964   4.853  15.411  0.00  0.00    +0.000 A 
ATOM      5  C   UNL     1       5.673   6.153  15.842  0.00  0.00    +0.000 A 
ATOM      6  C   UNL     1       4.913   6.370  16.999  0.00  0.00    +0.000 A 
ENDROOT
BRANCH   4   7
ATOM      7  C   UNL     1       6.783   4.701  14.174  0.00  0.00    +0.000 C 
ATOM      8  N   UNL     1       6.479   3.692  13.303  0.00  0.00    +0.000 N 
ATOM      9  O   UNL     1       7.714   5.459  13.926  0.00  0.00    +0.000 OA
ATOM     10  H   UNL     1       5.738   3.021  13.417  0.00  0.00    +0.000 HD
ATOM     11  H   UNL     1       7.058   3.621  12.476  0.00  0.00    +0.000 HD
ENDBRANCH   4   7
BRANCH   1  13
ATOM     12  N   UNL     1       2.474   5.094  18.746  0.00  0.00    +0.000 NA
ATOM     13  N   UNL     1       3.658   5.440  18.926  0.00  0.00    +0.000 NA
BRANCH  12  15
ATOM     14  C   UNL     1       1.866   6.449  20.602  0.00  0.00    +0.000 C 
ATOM     15  N   UNL     1       1.685   5.219  19.854  0.00  0.00    +0.000 N 
BRANCH  15  16
ATOM     16  C   UNL     1       1.001   4.078  20.471  0.00  0.00    +0.000 C 
BRANCH  16  17
ATOM     17  C   UNL     1       0.722   2.957  19.555  0.00  0.00    +0.000 C 
ATOM     18  N   UNL     1       0.451   2.063  18.868  0.00  0.00    +0.000 NA
ENDBRANCH  16  17
ENDBRANCH  15  16
ENDBRANCH  12  15
ENDBRANCH   1  13
TORSDOF 5
ENDMDL
MODEL 3
REMARK VINA RESULT:      -5.8      1.674      2.036
REMARK  Name = 
REMARK  6 active torsions:
REMARK  status: ('A' for Active; 'I' for Inactive)
REMARK    1  A    between atoms: C_1  and  N_2
REMARK    2  A    between atoms: N_2  and  C_3
REMARK    3  A    between atoms: N_2  and  N_6
REMARK    4  A    between atoms: C_3  and  C_4
REMARK    5  A    between atoms: N_7  and  C_8
REMARK    6  A    between atoms: C_11  and  C_12
REMARK                            x       y       z     vdW  Elec       q    Type
REMARK                         _______ _______ _______ _____ _____    ______ ____
ROOT
ATOM      1  C   UNL     1       5.526   4.317  17.110  0.00  0.00    +0.000 A 
ATOM      2  C   UNL     1       6.877   4.679  17.077  0.00  0.00    +0.000 A 
ATOM      3  C   UNL     1       7.545   4.890  15.862  0.00  0.00    +0.000 A 
ATOM      4  C   UNL     1       6.866   4.732  14.648  0.00  0.00    +0.000 A 
ATOM      5  C   UNL     1       5.518   4.351  14.674  0.00  0.00    +0.000 A 
ATOM      6  C   UNL     1       4.859   4.141  15.891  0.00  0.00    +0.000 A 
ENDROOT
BRANCH   4   7
ATOM      7  C   UNL     1       7.500   4.943  13.314  0.00  0.00    +0.000 C 
ATOM      8  N   UNL     1       8.526   5.839  13.208  0.00  0.00    +0.000 N 
ATOM      9  O   UNL     1       7.120   4.332  12.322  0.00  0.00    +0.000 OA
ATOM     10  H   UNL     1       8.907   6.387  13.960  0.00  0.00    +0.000 HD
ATOM     11  H   UNL     1       8.929   5.956  12.286  0.00  0.00    +0.000 HD
ENDBRANCH   4   7
BRANCH   1  13
ATOM     12  N   UNL     1       3.703   4.360  18.353  0.00  0.00    +0.000 NA
ATOM     13  N   UNL     1       4.924   4.111  18.371  0.00  0.00    +0.000 NA
BRANCH  12  15
ATOM     14  C   UNL     1       2.471   5.360  20.124  0.00  0.00    +0.000 C 
ATOM     15  N   UNL     1       3.081   4.172  19.554  0.00  0.00    +0.000 N 
BRANCH  15  16
ATOM     16  C   UNL     1       3.323   2.996  20.396  0.00  0.00    +0.000 C 
BRANCH  16  17
ATOM     17  C   UNL     1       2.296   2.754  21.425  0.00  0.00    +0.000 C 
ATOM     18  N   UNL     1       1.474   2.508  22.206  0.00  0.00    +0.000 NA
ENDBRANCH  16  17
ENDBRANCH  15  16
ENDBRANCH  12  15
ENDBRANCH   1  13
TORSDOF 5
ENDMDL
MODEL 4
REMARK VINA RESULT:      -5.8      1.716      2.134
REMARK  Name = 
REMARK  6 active torsions:
REMARK  status: ('A' for Active; 'I' for Inactive)
REMARK    1  A    between atoms: C_1  and  N_2
REMARK    2  A    between atoms: N_2  and  C_3
REMARK    3  A    between atoms: N_2  and  N_6
REMARK    4  A    between atoms: C_3  and  C_4
REMARK    5  A    between atoms: N_7  and  C_8
REMARK    6  A    between atoms: C_11  and  C_12
REMARK                            x       y       z     vdW  Elec       q    Type
REMARK                         _______ _______ _______ _____ _____    ______ ____
ROOT
ATOM      1  C   UNL     1       5.397   4.235  16.889  0.00  0.00    +0.000 A 
ATOM      2  C   UNL     1       4.791   4.125  15.632  0.00  0.00    +0.000 A 
ATOM      3  C   UNL     1       5.504   4.391  14.454  0.00  0.00    +0.000 A 
ATOM      4  C   UNL     1       6.845   4.787  14.516  0.00  0.00    +0.000 A 
ATOM      5  C   UNL     1       7.452   4.918  15.771  0.00  0.00    +0.000 A 
ATOM      6  C   UNL     1       6.734   4.651  16.943  0.00  0.00    +0.000 A 
ENDROOT
BRANCH   4   7
ATOM      7  C   UNL     1       7.675   5.082  13.312  0.00  0.00    +0.000 C 
ATOM      8  N   UNL     1       7.355   4.480  12.128  0.00  0.00    +0.000 N 
ATOM      9  O   UNL     1       8.628   5.851  13.366  0.00  0.00    +0.000 OA
ATOM     10  H   UNL     1       6.595   3.836  11.983  0.00  0.00    +0.000 HD
ATOM     11  H   UNL     1       7.942   4.705  11.334  0.00  0.00    +0.000 HD
ENDBRANCH   4   7
BRANCH   1  13
ATOM     12  N   UNL     1       3.476   3.547  17.729  0.00  0.00    +0.000 NA
ATOM     13  N   UNL     1       4.613   3.960  18.031  0.00  0.00    +0.000 NA
BRANCH  12  15
ATOM     14  C   UNL     1       1.468   2.536  18.501  0.00  0.00    +0.000 C 
ATOM     15  N   UNL     1       2.685   3.267  18.806  0.00  0.00    +0.000 N 
BRANCH  15  16
ATOM     16  C   UNL     1       2.823   3.958  20.092  0.00  0.00    +0.000 C 
BRANCH  16  17
ATOM     17  C   UNL     1       2.274   3.224  21.247  0.00  0.00    +0.000 C 
ATOM     18  N   UNL     1       1.829   2.703  22.183  0.00  0.00    +0.000 NA
ENDBRANCH  16  17
ENDBRANCH  15  16
ENDBRANCH  12  15
ENDBRANCH   1  13
TORSDOF 5
ENDMDL
MODEL 5
REMARK VINA RESULT:      -5.8      0.696      1.382
REMARK  Name = 
REMARK  6 active torsions:
REMARK  status: ('A' for Active; 'I' for Inactive)
REMARK    1  A    between atoms: C_1  and  N_2
REMARK    2  A    between atoms: N_2  and  C_3
REMARK    3  A    between atoms: N_2  and  N_6
REMARK    4  A    between atoms: C_3  and  C_4
REMARK    5  A    between atoms: N_7  and  C_8
REMARK    6  A    between atoms: C_11  and  C_12
REMARK                            x       y       z     vdW  Elec       q    Type
REMARK                         _______ _______ _______ _____ _____    ______ ____
ROOT
ATOM      1  C   UNL     1       4.345   4.590  17.551  0.00  0.00    +0.000 A 
ATOM      2  C   UNL     1       4.617   5.836  16.976  0.00  0.00    +0.000 A 
ATOM      3  C   UNL     1       5.423   5.951  15.834  0.00  0.00    +0.000 A 
ATOM      4  C   UNL     1       5.983   4.809  15.249  0.00  0.00    +0.000 A 
ATOM      5  C   UNL     1       5.731   3.560  15.832  0.00  0.00    +0.000 A 
ATOM      6  C   UNL     1       4.925   3.454  16.973  0.00  0.00    +0.000 A 
ENDROOT
BRANCH   4   7
ATOM      7  C   UNL     1       6.845   4.843  14.032  0.00  0.00    +0.000 C 
ATOM      8  N   UNL     1       6.549   4.008  12.992  0.00  0.00    +0.000 N 
ATOM      9  O   UNL     1       7.805   5.601  13.950  0.00  0.00    +0.000 OA
ATOM     10  H   UNL     1       5.786   3.352  12.964  0.00  0.00    +0.000 HD
ATOM     11  H   UNL     1       7.158   4.060  12.184  0.00  0.00    +0.000 HD
ENDBRANCH   4   7
BRANCH   1  13
ATOM     12  N   UNL     1       2.534   5.293  18.598  0.00  0.00    +0.000 NA
ATOM     13  N   UNL     1       3.533   4.555  18.706  0.00  0.00    +0.000 NA
BRANCH  12  15
ATOM     14  C   UNL     1       1.848   6.443  20.563  0.00  0.00    +0.000 C 
ATOM     15  N   UNL     1       1.719   5.287  19.694  0.00  0.00    +0.000 N 
BRANCH  15  16
ATOM     16  C   UNL     1       1.057   4.073  20.182  0.00  0.00    +0.000 C 
BRANCH  16  17
ATOM     17  C   UNL     1       1.739   3.411  21.309  0.00  0.00    +0.000 C 
ATOM     18  N   UNL     1       2.292   2.947  22.216  0.00  0.00    +0.000 NA
ENDBRANCH  16  17
ENDBRANCH  15  16
ENDBRANCH  12  15
ENDBRANCH   1  13
TORSDOF 5
ENDMDL
MODEL 6
REMARK VINA RESULT:      -5.7      1.554      2.453
REMARK  Name = 
REMARK  6 active torsions:
REMARK  status: ('A' for Active; 'I' for Inactive)
REMARK    1  A    between atoms: C_1  and  N_2
REMARK    2  A    between atoms: N_2  and  C_3
REMARK    3  A    between atoms: N_2  and  N_6
REMARK    4  A    between atoms: C_3  and  C_4
REMARK    5  A    between atoms: N_7  and  C_8
REMARK    6  A    between atoms: C_11  and  C_12
REMARK                            x       y       z     vdW  Elec       q    Type
REMARK                         _______ _______ _______ _____ _____    ______ ____
ROOT
ATOM      1  C   UNL     1       5.364   4.357  17.942  0.00  0.00    +0.000 A 
ATOM      2  C   UNL     1       4.544   4.222  16.815  0.00  0.00    +0.000 A 
ATOM      3  C   UNL     1       5.065   4.330  15.518  0.00  0.00    +0.000 A 
ATOM      4  C   UNL     1       6.428   4.587  15.325  0.00  0.00    +0.000 A 
ATOM      5  C   UNL     1       7.250   4.743  16.448  0.00  0.00    +0.000 A 
ATOM      6  C   UNL     1       6.722   4.635  17.741  0.00  0.00    +0.000 A 
ENDROOT
BRANCH   4   7
ATOM      7  C   UNL     1       7.062   4.711  13.980  0.00  0.00    +0.000 C 
ATOM      8  N   UNL     1       8.100   5.583  13.819  0.00  0.00    +0.000 N 
ATOM      9  O   UNL     1       6.671   4.047  13.027  0.00  0.00    +0.000 OA
ATOM     10  H   UNL     1       8.491   6.170  14.537  0.00  0.00    +0.000 HD
ATOM     11  H   UNL     1       8.503   5.640  12.892  0.00  0.00    +0.000 HD
ENDBRANCH   4   7
BRANCH   1  13
ATOM     12  N   UNL     1       3.524   4.158  19.144  0.00  0.00    +0.000 NA
ATOM     13  N   UNL     1       4.766   4.246  19.216  0.00  0.00    +0.000 NA
BRANCH  12  15
ATOM     14  C   UNL     1       2.823   2.696  20.882  0.00  0.00    +0.000 C 
ATOM     15  N   UNL     1       2.905   4.047  20.356  0.00  0.00    +0.000 N 
BRANCH  15  16
ATOM     16  C   UNL     1       2.053   5.103  20.911  0.00  0.00    +0.000 C 
BRANCH  16  17
ATOM     17  C   UNL     1       2.130   6.393  20.199  0.00  0.00    +0.000 C 
ATOM     18  N   UNL     1       2.135   7.423  19.667  0.00  0.00    +0.000 NA
ENDBRANCH  16  17
ENDBRANCH  15  16
ENDBRANCH  12  15
ENDBRANCH   1  13
TORSDOF 5
ENDMDL
MODEL 7
REMARK VINA RESULT:      -5.7      1.388      1.916
REMARK  Name = 
REMARK  6 active torsions:
REMARK  status: ('A' for Active; 'I' for Inactive)
REMARK    1  A    between atoms: C_1  and  N_2
REMARK    2  A    between atoms: N_2  and  C_3
REMARK    3  A    between atoms: N_2  and  N_6
REMARK    4  A    between atoms: C_3  and  C_4
REMARK    5  A    between atoms: N_7  and  C_8
REMARK    6  A    between atoms: C_11  and  C_12
REMARK                            x       y       z     vdW  Elec       q    Type
REMARK                         _______ _______ _______ _____ _____    ______ ____
ROOT
ATOM      1  C   UNL     1       4.291   5.454  17.387  0.00  0.00    +0.000 A 
ATOM      2  C   UNL     1       4.698   6.530  16.590  0.00  0.00    +0.000 A 
ATOM      3  C   UNL     1       5.512   6.336  15.465  0.00  0.00    +0.000 A 
ATOM      4  C   UNL     1       5.945   5.050  15.122  0.00  0.00    +0.000 A 
ATOM      5  C   UNL     1       5.558   3.971  15.926  0.00  0.00    +0.000 A 
ATOM      6  C   UNL     1       4.744   4.172  17.049  0.00  0.00    +0.000 A 
ENDROOT
BRANCH   4   7
ATOM      7  C   UNL     1       6.807   4.757  13.940  0.00  0.00    +0.000 C 
ATOM      8  N   UNL     1       7.926   5.514  13.738  0.00  0.00    +0.000 N 
ATOM      9  O   UNL     1       6.531   3.857  13.155  0.00  0.00    +0.000 OA
ATOM     10  H   UNL     1       8.236   6.272  14.322  0.00  0.00    +0.000 HD
ATOM     11  H   UNL     1       8.484   5.286  12.924  0.00  0.00    +0.000 HD
ENDBRANCH   4   7
BRANCH   1  13
ATOM     12  N   UNL     1       2.605   4.855  18.679  0.00  0.00    +0.000 NA
ATOM     13  N   UNL     1       3.479   5.728  18.509  0.00  0.00    +0.000 NA
BRANCH  12  15
ATOM     14  C   UNL     1       2.040   6.331  20.455  0.00  0.00    +0.000 C 
ATOM     15  N   UNL     1       1.798   5.082  19.757  0.00  0.00    +0.000 N 
BRANCH  15  16
ATOM     16  C   UNL     1       1.025   4.017  20.405  0.00  0.00    +0.000 C 
BRANCH  16  17
ATOM     17  C   UNL     1       0.649   2.901  19.517  0.00  0.00    +0.000 C 
ATOM     18  N   UNL     1       0.402   1.989  18.844  0.00  0.00    +0.000 NA
ENDBRANCH  16  17
ENDBRANCH  15  16
ENDBRANCH  12  15
ENDBRANCH   1  13
TORSDOF 5
ENDMDL
MODEL 8
REMARK VINA RESULT:      -5.7      1.706      1.940
REMARK  Name = 
REMARK  6 active torsions:
REMARK  status: ('A' for Active; 'I' for Inactive)
REMARK    1  A    between atoms: C_1  and  N_2
REMARK    2  A    between atoms: N_2  and  C_3
REMARK    3  A    between atoms: N_2  and  N_6
REMARK    4  A    between atoms: C_3  and  C_4
REMARK    5  A    between atoms: N_7  and  C_8
REMARK    6  A    between atoms: C_11  and  C_12
REMARK                            x       y       z     vdW  Elec       q    Type
REMARK                         _______ _______ _______ _____ _____    ______ ____
ROOT
ATOM      1  C   UNL     1       5.658   4.640  17.152  0.00  0.00    +0.000 A 
ATOM      2  C   UNL     1       4.965   4.135  16.046  0.00  0.00    +0.000 A 
ATOM      3  C   UNL     1       5.509   4.195  14.755  0.00  0.00    +0.000 A 
ATOM      4  C   UNL     1       6.765   4.777  14.546  0.00  0.00    +0.000 A 
ATOM      5  C   UNL     1       7.456   5.302  15.646  0.00  0.00    +0.000 A 
ATOM      6  C   UNL     1       6.906   5.239  16.932  0.00  0.00    +0.000 A 
ENDROOT
BRANCH   4   7
ATOM      7  C   UNL     1       7.417   4.875  13.208  0.00  0.00    +0.000 C 
ATOM      8  N   UNL     1       8.423   5.781  13.031  0.00  0.00    +0.000 N 
ATOM      9  O   UNL     1       7.068   4.161  12.274  0.00  0.00    +0.000 OA
ATOM     10  H   UNL     1       8.779   6.409  13.732  0.00  0.00    +0.000 HD
ATOM     11  H   UNL     1       8.840   5.819  12.108  0.00  0.00    +0.000 HD
ENDBRANCH   4   7
BRANCH   1  13
ATOM     12  N   UNL     1       3.901   4.055  18.351  0.00  0.00    +0.000 NA
ATOM     13  N   UNL     1       5.042   4.553  18.419  0.00  0.00    +0.000 NA
BRANCH  12  15
ATOM     14  C   UNL     1       2.893   5.214  20.166  0.00  0.00    +0.000 C 
ATOM     15  N   UNL     1       3.269   3.951  19.557  0.00  0.00    +0.000 N 
BRANCH  15  16
ATOM     16  C   UNL     1       3.303   2.728  20.366  0.00  0.00    +0.000 C 
BRANCH  16  17
ATOM     17  C   UNL     1       2.228   2.624  21.370  0.00  0.00    +0.000 C 
ATOM     18  N   UNL     1       1.340   2.540  22.111  0.00  0.00    +0.000 NA
ENDBRANCH  16  17
ENDBRANCH  15  16
ENDBRANCH  12  15
ENDBRANCH   1  13
TORSDOF 5
ENDMDL
MODEL 9
REMARK VINA RESULT:      -5.7      1.941      2.441
REMARK  Name = 
REMARK  6 active torsions:
REMARK  status: ('A' for Active; 'I' for Inactive)
REMARK    1  A    between atoms: C_1  and  N_2
REMARK    2  A    between atoms: N_2  and  C_3
REMARK    3  A    between atoms: N_2  and  N_6
REMARK    4  A    between atoms: C_3  and  C_4
REMARK    5  A    between atoms: N_7  and  C_8
REMARK    6  A    between atoms: C_11  and  C_12
REMARK                            x       y       z     vdW  Elec       q    Type
REMARK                         _______ _______ _______ _____ _____    ______ ____
ROOT
ATOM      1  C   UNL     1       5.666   4.240  16.949  0.00  0.00    +0.000 A 
ATOM      2  C   UNL     1       6.966   4.754  16.872  0.00  0.00    +0.000 A 
ATOM      3  C   UNL     1       7.576   5.010  15.636  0.00  0.00    +0.000 A 
ATOM      4  C   UNL     1       6.892   4.743  14.444  0.00  0.00    +0.000 A 
ATOM      5  C   UNL     1       5.598   4.211  14.514  0.00  0.00    +0.000 A 
ATOM      6  C   UNL     1       4.996   3.957  15.752  0.00  0.00    +0.000 A 
ENDROOT
BRANCH   4   7
ATOM      7  C   UNL     1       7.466   4.992  13.090  0.00  0.00    +0.000 C 
ATOM      8  N   UNL     1       7.041   4.224  12.043  0.00  0.00    +0.000 N 
ATOM      9  O   UNL     1       8.304   5.867  12.902  0.00  0.00    +0.000 OA
ATOM     10  H   UNL     1       6.362   3.484  12.096  0.00  0.00    +0.000 HD
ATOM     11  H   UNL     1       7.455   4.422  11.140  0.00  0.00    +0.000 HD
ENDBRANCH   4   7
BRANCH   1  13
ATOM     12  N   UNL     1       4.151   3.218  18.186  0.00  0.00    +0.000 NA
ATOM     13  N   UNL     1       5.122   3.999  18.230  0.00  0.00    +0.000 NA
BRANCH  12  15
ATOM     14  C   UNL     1       4.433   2.192  20.312  0.00  0.00    +0.000 C 
ATOM     15  N   UNL     1       3.595   2.956  19.405  0.00  0.00    +0.000 N 
BRANCH  15  16
ATOM     16  C   UNL     1       2.157   3.078  19.663  0.00  0.00    +0.000 C 
BRANCH  16  17
ATOM     17  C   UNL     1       1.748   2.752  21.042  0.00  0.00    +0.000 C 
ATOM     18  N   UNL     1       1.460   2.545  22.146  0.00  0.00    +0.000 NA
ENDBRANCH  16  17
ENDBRANCH  15  16
ENDBRANCH  12  15
ENDBRANCH   1  13
TORSDOF 5
ENDMDL
