MODEL 1
REMARK VINA RESULT:      -9.0      0.000      0.000
REMARK  Name = 
REMARK  4 active torsions:
REMARK  status: ('A' for Active; 'I' for Inactive)
REMARK    1  A    between atoms: C_6  and  C_7
REMARK    2  A    between atoms: C_16  and  C_17
REMARK    3  A    between atoms: C_20  and  O_21
REMARK    4  A    between atoms: C_22  and  N_23
REMARK                            x       y       z     vdW  Elec       q    Type
REMARK                         _______ _______ _______ _____ _____    ______ ____
ROOT
ATOM      1  O   UNL     1       1.005   3.984  20.949  0.00  0.00    +0.000 OA
ATOM      2  C   UNL     1       2.106   3.773  20.471  0.00  0.00    +0.000 C 
ATOM      3  N   UNL     1       2.803   2.622  20.532  0.00  0.00    +0.000 N 
ATOM      4  C   UNL     1       4.009   2.761  19.941  0.00  0.00    +0.000 C 
ATOM      5  O   UNL     1       4.868   1.902  19.855  0.00  0.00    +0.000 OA
ATOM      6  C   UNL     1       4.086   4.149  19.430  0.00  0.00    +0.000 C 
ATOM      7  C   UNL     1       2.928   4.752  19.734  0.00  0.00    +0.000 C 
ATOM      8  H   UNL     1       2.490   1.783  20.990  0.00  0.00    +0.000 HD
ENDROOT
BRANCH   6   9
ATOM      9  C   UNL     1       5.217   4.677  18.767  0.00  0.00    +0.000 A 
ATOM     10  C   UNL     1       6.227   5.373  19.394  0.00  0.00    +0.000 A 
ATOM     11  N   UNL     1       7.163   5.690  18.444  0.00  0.00    +0.000 N 
ATOM     12  C   UNL     1       6.754   5.245  17.206  0.00  0.00    +0.000 A 
ATOM     13  C   UNL     1       7.379   5.357  15.958  0.00  0.00    +0.000 A 
ATOM     14  C   UNL     1       6.719   4.813  14.852  0.00  0.00    +0.000 A 
ATOM     15  C   UNL     1       5.488   4.175  14.992  0.00  0.00    +0.000 A 
ATOM     16  C   UNL     1       4.882   4.061  16.248  0.00  0.00    +0.000 A 
ATOM     17  C   UNL     1       5.524   4.607  17.379  0.00  0.00    +0.000 A 
ATOM     18  H   UNL     1       8.028   6.182  18.620  0.00  0.00    +0.000 HD
ENDBRANCH   6   9
BRANCH   7  19
ATOM     19  C   UNL     1       2.524   6.122  19.442  0.00  0.00    +0.000 A 
ATOM     20  C   UNL     1       2.689   6.648  18.152  0.00  0.00    +0.000 A 
ATOM     21  C   UNL     1       2.290   7.958  17.856  0.00  0.00    +0.000 A 
ATOM     22  C   UNL     1       1.727   8.757  18.850  0.00  0.00    +0.000 A 
ATOM     23  C   UNL     1       1.565   8.229  20.132  0.00  0.00    +0.000 A 
ATOM     24  C   UNL     1       1.965   6.923  20.444  0.00  0.00    +0.000 A 
BRANCH  23  25
ATOM     25  N   UNL     1       0.967   9.026  21.185  0.00  0.00    +0.000 N 
ATOM     26  O   UNL     1       1.611   9.173  22.233  0.00  0.00    +0.000 OA
ATOM     27  O   UNL     1      -0.118   9.569  20.926  0.00  0.00    +0.000 OA
ENDBRANCH  23  25
BRANCH  22  28
ATOM     28  O   UNL     1       1.367  10.039  18.562  0.00  0.00    +0.000 OA
ATOM     29  H   UNL     1       1.182  10.524  19.386  0.00  0.00    +0.000 HD
ENDBRANCH  22  28
ENDBRANCH   7  19
TORSDOF 4
ENDMDL
MODEL 2
REMARK VINA RESULT:      -8.8      2.684      5.350
REMARK  Name = 
REMARK  4 active torsions:
REMARK  status: ('A' for Active; 'I' for Inactive)
REMARK    1  A    between atoms: C_6  and  C_7
REMARK    2  A    between atoms: C_16  and  C_17
REMARK    3  A    between atoms: C_20  and  O_21
REMARK    4  A    between atoms: C_22  and  N_23
REMARK                            x       y       z     vdW  Elec       q    Type
REMARK                         _______ _______ _______ _____ _____    ______ ____
ROOT
ATOM      1  O   UNL     1       3.855   1.364  17.512  0.00  0.00    +0.000 OA
ATOM      2  C   UNL     1       3.186   2.084  18.231  0.00  0.00    +0.000 C 
ATOM      3  N   UNL     1       2.081   1.733  18.918  0.00  0.00    +0.000 N 
ATOM      4  C   UNL     1       1.565   2.797  19.570  0.00  0.00    +0.000 C 
ATOM      5  O   UNL     1       0.559   2.797  20.256  0.00  0.00    +0.000 OA
ATOM      6  C   UNL     1       2.446   3.953  19.283  0.00  0.00    +0.000 C 
ATOM      7  C   UNL     1       3.435   3.515  18.491  0.00  0.00    +0.000 C 
ATOM      8  H   UNL     1       1.669   0.815  18.915  0.00  0.00    +0.000 HD
ENDROOT
BRANCH   6   9
ATOM      9  C   UNL     1       2.210   5.256  19.776  0.00  0.00    +0.000 A 
ATOM     10  C   UNL     1       1.944   5.549  21.094  0.00  0.00    +0.000 A 
ATOM     11  N   UNL     1       1.810   6.909  21.197  0.00  0.00    +0.000 N 
ATOM     12  C   UNL     1       1.945   7.497  19.958  0.00  0.00    +0.000 A 
ATOM     13  C   UNL     1       1.870   8.844  19.588  0.00  0.00    +0.000 A 
ATOM     14  C   UNL     1       2.039   9.155  18.235  0.00  0.00    +0.000 A 
ATOM     15  C   UNL     1       2.281   8.157  17.294  0.00  0.00    +0.000 A 
ATOM     16  C   UNL     1       2.365   6.815  17.681  0.00  0.00    +0.000 A 
ATOM     17  C   UNL     1       2.192   6.474  19.039  0.00  0.00    +0.000 A 
ATOM     18  H   UNL     1       1.634   7.414  22.055  0.00  0.00    +0.000 HD
ENDBRANCH   6   9
BRANCH   7  19
ATOM     19  C   UNL     1       4.548   4.277  17.938  0.00  0.00    +0.000 A 
ATOM     20  C   UNL     1       4.598   4.562  16.566  0.00  0.00    +0.000 A 
ATOM     21  C   UNL     1       5.653   5.307  16.026  0.00  0.00    +0.000 A 
ATOM     22  C   UNL     1       6.673   5.772  16.855  0.00  0.00    +0.000 A 
ATOM     23  C   UNL     1       6.620   5.488  18.220  0.00  0.00    +0.000 A 
ATOM     24  C   UNL     1       5.572   4.737  18.772  0.00  0.00    +0.000 A 
BRANCH  23  25
ATOM     25  N   UNL     1       7.654   5.970  19.114  0.00  0.00    +0.000 N 
ATOM     26  O   UNL     1       8.233   7.022  18.808  0.00  0.00    +0.000 OA
ATOM     27  O   UNL     1       7.827   5.332  20.163  0.00  0.00    +0.000 OA
ENDBRANCH  23  25
BRANCH  22  28
ATOM     28  O   UNL     1       7.711   6.473  16.319  0.00  0.00    +0.000 OA
ATOM     29  H   UNL     1       7.679   6.421  15.347  0.00  0.00    +0.000 HD
ENDBRANCH  22  28
ENDBRANCH   7  19
TORSDOF 4
ENDMDL
MODEL 3
REMARK VINA RESULT:      -8.8      1.527      2.171
REMARK  Name = 
REMARK  4 active torsions:
REMARK  status: ('A' for Active; 'I' for Inactive)
REMARK    1  A    between atoms: C_6  and  C_7
REMARK    2  A    between atoms: C_16  and  C_17
REMARK    3  A    between atoms: C_20  and  O_21
REMARK    4  A    between atoms: C_22  and  N_23
REMARK                            x       y       z     vdW  Elec       q    Type
REMARK                         _______ _______ _______ _____ _____    ______ ____
ROOT
ATOM      1  O   UNL     1       0.253   2.854  19.642  0.00  0.00    +0.000 OA
ATOM      2  C   UNL     1       1.378   2.725  19.192  0.00  0.00    +0.000 C 
ATOM      3  N   UNL     1       1.950   1.581  18.769  0.00  0.00    +0.000 N 
ATOM      4  C   UNL     1       3.225   1.798  18.382  0.00  0.00    +0.000 C 
ATOM      5  O   UNL     1       4.002   0.955  17.972  0.00  0.00    +0.000 OA
ATOM      6  C   UNL     1       3.494   3.244  18.560  0.00  0.00    +0.000 C 
ATOM      7  C   UNL     1       2.371   3.804  19.030  0.00  0.00    +0.000 C 
ATOM      8  H   UNL     1       1.506   0.678  18.778  0.00  0.00    +0.000 HD
ENDROOT
BRANCH   6   9
ATOM      9  C   UNL     1       4.741   3.847  18.280  0.00  0.00    +0.000 A 
ATOM     10  C   UNL     1       5.623   4.284  19.243  0.00  0.00    +0.000 A 
ATOM     11  N   UNL     1       6.730   4.773  18.600  0.00  0.00    +0.000 N 
ATOM     12  C   UNL     1       6.560   4.696  17.235  0.00  0.00    +0.000 A 
ATOM     13  C   UNL     1       7.415   5.087  16.198  0.00  0.00    +0.000 A 
ATOM     14  C   UNL     1       6.972   4.897  14.885  0.00  0.00    +0.000 A 
ATOM     15  C   UNL     1       5.726   4.331  14.624  0.00  0.00    +0.000 A 
ATOM     16  C   UNL     1       4.887   3.935  15.670  0.00  0.00    +0.000 A 
ATOM     17  C   UNL     1       5.308   4.121  17.004  0.00  0.00    +0.000 A 
ATOM     18  H   UNL     1       7.554   5.141  19.055  0.00  0.00    +0.000 HD
ENDBRANCH   6   9
BRANCH   7  19
ATOM     19  C   UNL     1       2.137   5.204  19.364  0.00  0.00    +0.000 A 
ATOM     20  C   UNL     1       1.758   5.566  20.665  0.00  0.00    +0.000 A 
ATOM     21  C   UNL     1       1.546   6.909  21.003  0.00  0.00    +0.000 A 
ATOM     22  C   UNL     1       1.708   7.903  20.039  0.00  0.00    +0.000 A 
ATOM     23  C   UNL     1       2.086   7.539  18.746  0.00  0.00    +0.000 A 
ATOM     24  C   UNL     1       2.295   6.199  18.393  0.00  0.00    +0.000 A 
BRANCH  23  25
ATOM     25  N   UNL     1       2.280   8.548  17.724  0.00  0.00    +0.000 N 
ATOM     26  O   UNL     1       3.236   8.407  16.950  0.00  0.00    +0.000 OA
ATOM     27  O   UNL     1       1.423   9.442  17.653  0.00  0.00    +0.000 OA
ENDBRANCH  23  25
BRANCH  22  28
ATOM     28  O   UNL     1       1.474   9.205  20.368  0.00  0.00    +0.000 OA
ATOM     29  H   UNL     1       2.210   9.762  20.058  0.00  0.00    +0.000 HD
ENDBRANCH  22  28
ENDBRANCH   7  19
TORSDOF 4
ENDMDL
MODEL 4
REMARK VINA RESULT:      -8.3      2.760      5.759
REMARK  Name = 
REMARK  4 active torsions:
REMARK  status: ('A' for Active; 'I' for Inactive)
REMARK    1  A    between atoms: C_6  and  C_7
REMARK    2  A    between atoms: C_16  and  C_17
REMARK    3  A    between atoms: C_20  and  O_21
REMARK    4  A    between atoms: C_22  and  N_23
REMARK                            x       y       z     vdW  Elec       q    Type
REMARK                         _______ _______ _______ _____ _____    ______ ____
ROOT
ATOM      1  O   UNL     1       4.031   1.413  17.592  0.00  0.00    +0.000 OA
ATOM      2  C   UNL     1       3.262   2.100  18.241  0.00  0.00    +0.000 C 
ATOM      3  N   UNL     1       2.058   1.729  18.718  0.00  0.00    +0.000 N 
ATOM      4  C   UNL     1       1.454   2.760  19.347  0.00  0.00    +0.000 C 
ATOM      5  O   UNL     1       0.351   2.738  19.862  0.00  0.00    +0.000 OA
ATOM      6  C   UNL     1       2.382   3.913  19.280  0.00  0.00    +0.000 C 
ATOM      7  C   UNL     1       3.481   3.506  18.630  0.00  0.00    +0.000 C 
ATOM      8  H   UNL     1       1.642   0.822  18.590  0.00  0.00    +0.000 HD
ENDROOT
BRANCH   6   9
ATOM      9  C   UNL     1       2.083   5.188  19.813  0.00  0.00    +0.000 A 
ATOM     10  C   UNL     1       1.717   5.414  21.121  0.00  0.00    +0.000 A 
ATOM     11  N   UNL     1       1.546   6.766  21.275  0.00  0.00    +0.000 N 
ATOM     12  C   UNL     1       1.756   7.412  20.077  0.00  0.00    +0.000 A 
ATOM     13  C   UNL     1       1.678   8.774  19.763  0.00  0.00    +0.000 A 
ATOM     14  C   UNL     1       1.936   9.151  18.441  0.00  0.00    +0.000 A 
ATOM     15  C   UNL     1       2.267   8.202  17.476  0.00  0.00    +0.000 A 
ATOM     16  C   UNL     1       2.352   6.846  17.807  0.00  0.00    +0.000 A 
ATOM     17  C   UNL     1       2.090   6.439  19.133  0.00  0.00    +0.000 A 
ATOM     18  H   UNL     1       1.298   7.227  22.140  0.00  0.00    +0.000 HD
ENDBRANCH   6   9
BRANCH   7  19
ATOM     19  C   UNL     1       4.676   4.279  18.313  0.00  0.00    +0.000 A 
ATOM     20  C   UNL     1       5.494   4.769  19.342  0.00  0.00    +0.000 A 
ATOM     21  C   UNL     1       6.653   5.499  19.050  0.00  0.00    +0.000 A 
ATOM     22  C   UNL     1       7.002   5.750  17.724  0.00  0.00    +0.000 A 
ATOM     23  C   UNL     1       6.186   5.260  16.703  0.00  0.00    +0.000 A 
ATOM     24  C   UNL     1       5.020   4.534  16.982  0.00  0.00    +0.000 A 
BRANCH  23  25
ATOM     25  N   UNL     1       6.529   5.488  15.313  0.00  0.00    +0.000 N 
ATOM     26  O   UNL     1       5.664   5.987  14.581  0.00  0.00    +0.000 OA
ATOM     27  O   UNL     1       7.697   5.236  14.979  0.00  0.00    +0.000 OA
ENDBRANCH  23  25
BRANCH  22  28
ATOM     28  O   UNL     1       8.117   6.484  17.448  0.00  0.00    +0.000 OA
ATOM     29  H   UNL     1       8.540   6.768  18.277  0.00  0.00    +0.000 HD
ENDBRANCH  22  28
ENDBRANCH   7  19
TORSDOF 4
ENDMDL
MODEL 5
REMARK VINA RESULT:      -8.3      2.527      5.967
REMARK  Name = 
REMARK  4 active torsions:
REMARK  status: ('A' for Active; 'I' for Inactive)
REMARK    1  A    between atoms: C_6  and  C_7
REMARK    2  A    between atoms: C_16  and  C_17
REMARK    3  A    between atoms: C_20  and  O_21
REMARK    4  A    between atoms: C_22  and  N_23
REMARK                            x       y       z     vdW  Elec       q    Type
REMARK                         _______ _______ _______ _____ _____    ______ ____
ROOT
ATOM      1  O   UNL     1       4.027   2.054  19.023  0.00  0.00    +0.000 OA
ATOM      2  C   UNL     1       3.331   3.029  19.244  0.00  0.00    +0.000 C 
ATOM      3  N   UNL     1       2.235   3.076  20.026  0.00  0.00    +0.000 N 
ATOM      4  C   UNL     1       1.682   4.308  20.001  0.00  0.00    +0.000 C 
ATOM      5  O   UNL     1       0.673   4.652  20.590  0.00  0.00    +0.000 OA
ATOM      6  C   UNL     1       2.527   5.146  19.120  0.00  0.00    +0.000 C 
ATOM      7  C   UNL     1       3.533   4.378  18.681  0.00  0.00    +0.000 C 
ATOM      8  H   UNL     1       1.852   2.293  20.528  0.00  0.00    +0.000 HD
ENDROOT
BRANCH   6   9
ATOM      9  C   UNL     1       2.248   6.501  18.828  0.00  0.00    +0.000 A 
ATOM     10  C   UNL     1       2.372   7.065  17.578  0.00  0.00    +0.000 A 
ATOM     11  N   UNL     1       1.981   8.375  17.675  0.00  0.00    +0.000 N 
ATOM     12  C   UNL     1       1.644   8.677  18.976  0.00  0.00    +0.000 A 
ATOM     13  C   UNL     1       1.206   9.883  19.536  0.00  0.00    +0.000 A 
ATOM     14  C   UNL     1       0.944   9.903  20.909  0.00  0.00    +0.000 A 
ATOM     15  C   UNL     1       1.106   8.758  21.687  0.00  0.00    +0.000 A 
ATOM     16  C   UNL     1       1.533   7.557  21.111  0.00  0.00    +0.000 A 
ATOM     17  C   UNL     1       1.810   7.513  19.729  0.00  0.00    +0.000 A 
ATOM     18  H   UNL     1       1.945   9.031  16.906  0.00  0.00    +0.000 HD
ENDBRANCH   6   9
BRANCH   7  19
ATOM     19  C   UNL     1       4.624   4.749  17.788  0.00  0.00    +0.000 A 
ATOM     20  C   UNL     1       4.680   4.230  16.486  0.00  0.00    +0.000 A 
ATOM     21  C   UNL     1       5.714   4.592  15.613  0.00  0.00    +0.000 A 
ATOM     22  C   UNL     1       6.706   5.475  16.037  0.00  0.00    +0.000 A 
ATOM     23  C   UNL     1       6.647   5.990  17.333  0.00  0.00    +0.000 A 
ATOM     24  C   UNL     1       5.621   5.631  18.219  0.00  0.00    +0.000 A 
BRANCH  23  25
ATOM     25  N   UNL     1       7.652   6.924  17.801  0.00  0.00    +0.000 N 
ATOM     26  O   UNL     1       7.834   7.954  17.137  0.00  0.00    +0.000 OA
ATOM     27  O   UNL     1       8.202   6.657  18.880  0.00  0.00    +0.000 OA
ENDBRANCH  23  25
BRANCH  22  28
ATOM     28  O   UNL     1       7.724   5.802  15.192  0.00  0.00    +0.000 OA
ATOM     29  H   UNL     1       8.409   5.110  15.217  0.00  0.00    +0.000 HD
ENDBRANCH  22  28
ENDBRANCH   7  19
TORSDOF 4
ENDMDL
MODEL 6
REMARK VINA RESULT:      -8.1      1.227      1.974
REMARK  Name = 
REMARK  4 active torsions:
REMARK  status: ('A' for Active; 'I' for Inactive)
REMARK    1  A    between atoms: C_6  and  C_7
REMARK    2  A    between atoms: C_16  and  C_17
REMARK    3  A    between atoms: C_20  and  O_21
REMARK    4  A    between atoms: C_22  and  N_23
REMARK                            x       y       z     vdW  Elec       q    Type
REMARK                         _______ _______ _______ _____ _____    ______ ____
ROOT
ATOM      1  O   UNL     1       0.518   3.659  20.506  0.00  0.00    +0.000 OA
ATOM      2  C   UNL     1       1.460   3.396  19.779  0.00  0.00    +0.000 C 
ATOM      3  N   UNL     1       1.929   2.168  19.482  0.00  0.00    +0.000 N 
ATOM      4  C   UNL     1       3.018   2.251  18.688  0.00  0.00    +0.000 C 
ATOM      5  O   UNL     1       3.673   1.314  18.270  0.00  0.00    +0.000 OA
ATOM      6  C   UNL     1       3.261   3.690  18.433  0.00  0.00    +0.000 C 
ATOM      7  C   UNL     1       2.307   4.378  19.076  0.00  0.00    +0.000 C 
ATOM      8  H   UNL     1       1.550   1.306  19.836  0.00  0.00    +0.000 HD
ENDROOT
BRANCH   6   9
ATOM      9  C   UNL     1       4.338   4.175  17.656  0.00  0.00    +0.000 A 
ATOM     10  C   UNL     1       4.414   4.067  16.285  0.00  0.00    +0.000 A 
ATOM     11  N   UNL     1       5.574   4.679  15.886  0.00  0.00    +0.000 N 
ATOM     12  C   UNL     1       6.268   5.145  16.980  0.00  0.00    +0.000 A 
ATOM     13  C   UNL     1       7.495   5.815  17.050  0.00  0.00    +0.000 A 
ATOM     14  C   UNL     1       7.972   6.165  18.317  0.00  0.00    +0.000 A 
ATOM     15  C   UNL     1       7.245   5.863  19.466  0.00  0.00    +0.000 A 
ATOM     16  C   UNL     1       6.015   5.203  19.380  0.00  0.00    +0.000 A 
ATOM     17  C   UNL     1       5.514   4.834  18.114  0.00  0.00    +0.000 A 
ATOM     18  H   UNL     1       5.882   4.775  14.928  0.00  0.00    +0.000 HD
ENDBRANCH   6   9
BRANCH   7  19
ATOM     19  C   UNL     1       2.122   5.823  19.129  0.00  0.00    +0.000 A 
ATOM     20  C   UNL     1       2.410   6.614  18.007  0.00  0.00    +0.000 A 
ATOM     21  C   UNL     1       2.220   8.001  18.040  0.00  0.00    +0.000 A 
ATOM     22  C   UNL     1       1.745   8.612  19.200  0.00  0.00    +0.000 A 
ATOM     23  C   UNL     1       1.460   7.821  20.315  0.00  0.00    +0.000 A 
ATOM     24  C   UNL     1       1.651   6.433  20.296  0.00  0.00    +0.000 A 
BRANCH  23  25
ATOM     25  N   UNL     1       0.949   8.421  21.531  0.00  0.00    +0.000 N 
ATOM     26  O   UNL     1       1.726   9.111  22.204  0.00  0.00    +0.000 OA
ATOM     27  O   UNL     1      -0.259   8.261  21.766  0.00  0.00    +0.000 OA
ENDBRANCH  23  25
BRANCH  22  28
ATOM     28  O   UNL     1       1.590   9.965  19.235  0.00  0.00    +0.000 OA
ATOM     29  H   UNL     1       0.661  10.187  19.427  0.00  0.00    +0.000 HD
ENDBRANCH  22  28
ENDBRANCH   7  19
TORSDOF 4
ENDMDL
MODEL 7
REMARK VINA RESULT:      -8.0      1.628      2.767
REMARK  Name = 
REMARK  4 active torsions:
REMARK  status: ('A' for Active; 'I' for Inactive)
REMARK    1  A    between atoms: C_6  and  C_7
REMARK    2  A    between atoms: C_16  and  C_17
REMARK    3  A    between atoms: C_20  and  O_21
REMARK    4  A    between atoms: C_22  and  N_23
REMARK                            x       y       z     vdW  Elec       q    Type
REMARK                         _______ _______ _______ _____ _____    ______ ____
ROOT
ATOM      1  O   UNL     1       0.780   2.807  20.501  0.00  0.00    +0.000 OA
ATOM      2  C   UNL     1       1.680   2.750  19.682  0.00  0.00    +0.000 C 
ATOM      3  N   UNL     1       2.207   1.634  19.140  0.00  0.00    +0.000 N 
ATOM      4  C   UNL     1       3.225   1.941  18.308  0.00  0.00    +0.000 C 
ATOM      5  O   UNL     1       3.908   1.145  17.689  0.00  0.00    +0.000 OA
ATOM      6  C   UNL     1       3.353   3.417  18.302  0.00  0.00    +0.000 C 
ATOM      7  C   UNL     1       2.406   3.903  19.117  0.00  0.00    +0.000 C 
ATOM      8  H   UNL     1       1.914   0.696  19.355  0.00  0.00    +0.000 HD
ENDROOT
BRANCH   6   9
ATOM      9  C   UNL     1       4.334   4.113  17.561  0.00  0.00    +0.000 A 
ATOM     10  C   UNL     1       4.335   4.221  16.188  0.00  0.00    +0.000 A 
ATOM     11  N   UNL     1       5.411   4.994  15.835  0.00  0.00    +0.000 N 
ATOM     12  C   UNL     1       6.128   5.353  16.955  0.00  0.00    +0.000 A 
ATOM     13  C   UNL     1       7.295   6.118  17.070  0.00  0.00    +0.000 A 
ATOM     14  C   UNL     1       7.816   6.316  18.352  0.00  0.00    +0.000 A 
ATOM     15  C   UNL     1       7.189   5.776  19.473  0.00  0.00    +0.000 A 
ATOM     16  C   UNL     1       6.018   5.023  19.344  0.00  0.00    +0.000 A 
ATOM     17  C   UNL     1       5.474   4.804  18.060  0.00  0.00    +0.000 A 
ATOM     18  H   UNL     1       5.651   5.263  14.890  0.00  0.00    +0.000 HD
ENDBRANCH   6   9
BRANCH   7  19
ATOM     19  C   UNL     1       2.130   5.298  19.440  0.00  0.00    +0.000 A 
ATOM     20  C   UNL     1       1.777   5.663  20.748  0.00  0.00    +0.000 A 
ATOM     21  C   UNL     1       1.525   7.002  21.075  0.00  0.00    +0.000 A 
ATOM     22  C   UNL     1       1.619   7.988  20.094  0.00  0.00    +0.000 A 
ATOM     23  C   UNL     1       1.971   7.620  18.794  0.00  0.00    +0.000 A 
ATOM     24  C   UNL     1       2.219   6.284  18.452  0.00  0.00    +0.000 A 
BRANCH  23  25
ATOM     25  N   UNL     1       2.095   8.622  17.754  0.00  0.00    +0.000 N 
ATOM     26  O   UNL     1       1.249   9.526  17.722  0.00  0.00    +0.000 OA
ATOM     27  O   UNL     1       3.090   8.542  17.018  0.00  0.00    +0.000 OA
ENDBRANCH  23  25
BRANCH  22  28
ATOM     28  O   UNL     1       1.346   9.284  20.413  0.00  0.00    +0.000 OA
ATOM     29  H   UNL     1       1.421   9.411  21.375  0.00  0.00    +0.000 HD
ENDBRANCH  22  28
ENDBRANCH   7  19
TORSDOF 4
ENDMDL
MODEL 8
REMARK VINA RESULT:      -7.9      1.623      2.246
REMARK  Name = 
REMARK  4 active torsions:
REMARK  status: ('A' for Active; 'I' for Inactive)
REMARK    1  A    between atoms: C_6  and  C_7
REMARK    2  A    between atoms: C_16  and  C_17
REMARK    3  A    between atoms: C_20  and  O_21
REMARK    4  A    between atoms: C_22  and  N_23
REMARK                            x       y       z     vdW  Elec       q    Type
REMARK                         _______ _______ _______ _____ _____    ______ ____
ROOT
ATOM      1  O   UNL     1       0.542   4.159  19.879  0.00  0.00    +0.000 OA
ATOM      2  C   UNL     1       1.564   4.124  19.218  0.00  0.00    +0.000 C 
ATOM      3  N   UNL     1       2.189   3.022  18.759  0.00  0.00    +0.000 N 
ATOM      4  C   UNL     1       3.325   3.352  18.108  0.00  0.00    +0.000 C 
ATOM      5  O   UNL     1       4.112   2.574  17.601  0.00  0.00    +0.000 OA
ATOM      6  C   UNL     1       3.429   4.830  18.137  0.00  0.00    +0.000 C 
ATOM      7  C   UNL     1       2.355   5.294  18.790  0.00  0.00    +0.000 C 
ATOM      8  H   UNL     1       1.879   2.077  18.915  0.00  0.00    +0.000 HD
ENDROOT
BRANCH   6   9
ATOM      9  C   UNL     1       4.507   5.548  17.572  0.00  0.00    +0.000 A 
ATOM     10  C   UNL     1       4.487   6.116  16.318  0.00  0.00    +0.000 A 
ATOM     11  N   UNL     1       5.686   6.755  16.134  0.00  0.00    +0.000 N 
ATOM     12  C   UNL     1       6.496   6.575  17.233  0.00  0.00    +0.000 A 
ATOM     13  C   UNL     1       7.797   7.031  17.478  0.00  0.00    +0.000 A 
ATOM     14  C   UNL     1       8.388   6.681  18.696  0.00  0.00    +0.000 A 
ATOM     15  C   UNL     1       7.700   5.914  19.633  0.00  0.00    +0.000 A 
ATOM     16  C   UNL     1       6.396   5.475  19.380  0.00  0.00    +0.000 A 
ATOM     17  C   UNL     1       5.779   5.809  18.156  0.00  0.00    +0.000 A 
ATOM     18  H   UNL     1       5.945   7.283  15.311  0.00  0.00    +0.000 HD
ENDBRANCH   6   9
BRANCH   7  19
ATOM     19  C   UNL     1       2.008   6.680  19.078  0.00  0.00    +0.000 A 
ATOM     20  C   UNL     1       2.019   7.639  18.054  0.00  0.00    +0.000 A 
ATOM     21  C   UNL     1       1.672   8.970  18.314  0.00  0.00    +0.000 A 
ATOM     22  C   UNL     1       1.315   9.357  19.605  0.00  0.00    +0.000 A 
ATOM     23  C   UNL     1       1.305   8.401  20.621  0.00  0.00    +0.000 A 
ATOM     24  C   UNL     1       1.656   7.066  20.375  0.00  0.00    +0.000 A 
BRANCH  23  25
ATOM     25  N   UNL     1       0.921   8.764  21.971  0.00  0.00    +0.000 N 
ATOM     26  O   UNL     1       1.748   9.379  22.658  0.00  0.00    +0.000 OA
ATOM     27  O   UNL     1      -0.243   8.501  22.310  0.00  0.00    +0.000 OA
ENDBRANCH  23  25
BRANCH  22  28
ATOM     28  O   UNL     1       1.005  10.660  19.857  0.00  0.00    +0.000 OA
ATOM     29  H   UNL     1       1.694  11.241  19.490  0.00  0.00    +0.000 HD
ENDBRANCH  22  28
ENDBRANCH   7  19
TORSDOF 4
ENDMDL
MODEL 9
REMARK VINA RESULT:      -7.8      1.828      2.821
REMARK  Name = 
REMARK  4 active torsions:
REMARK  status: ('A' for Active; 'I' for Inactive)
REMARK    1  A    between atoms: C_6  and  C_7
REMARK    2  A    between atoms: C_16  and  C_17
REMARK    3  A    between atoms: C_20  and  O_21
REMARK    4  A    between atoms: C_22  and  N_23
REMARK                            x       y       z     vdW  Elec       q    Type
REMARK                         _______ _______ _______ _____ _____    ______ ____
ROOT
ATOM      1  O   UNL     1       0.759   3.424  19.514  0.00  0.00    +0.000 OA
ATOM      2  C   UNL     1       1.754   3.578  18.828  0.00  0.00    +0.000 C 
ATOM      3  N   UNL     1       2.403   2.629  18.126  0.00  0.00    +0.000 N 
ATOM      4  C   UNL     1       3.497   3.142  17.525  0.00  0.00    +0.000 C 
ATOM      5  O   UNL     1       4.293   2.526  16.839  0.00  0.00    +0.000 OA
ATOM      6  C   UNL     1       3.544   4.583  17.865  0.00  0.00    +0.000 C 
ATOM      7  C   UNL     1       2.480   4.848  18.635  0.00  0.00    +0.000 C 
ATOM      8  H   UNL     1       2.137   1.659  18.087  0.00  0.00    +0.000 HD
ENDROOT
BRANCH   6   9
ATOM      9  C   UNL     1       4.570   5.455  17.432  0.00  0.00    +0.000 A 
ATOM     10  C   UNL     1       4.534   6.169  16.256  0.00  0.00    +0.000 A 
ATOM     11  N   UNL     1       5.676   6.926  16.196  0.00  0.00    +0.000 N 
ATOM     12  C   UNL     1       6.468   6.681  17.297  0.00  0.00    +0.000 A 
ATOM     13  C   UNL     1       7.715   7.212  17.645  0.00  0.00    +0.000 A 
ATOM     14  C   UNL     1       8.300   6.768  18.834  0.00  0.00    +0.000 A 
ATOM     15  C   UNL     1       7.658   5.835  19.645  0.00  0.00    +0.000 A 
ATOM     16  C   UNL     1       6.406   5.322  19.290  0.00  0.00    +0.000 A 
ATOM     17  C   UNL     1       5.796   5.749  18.092  0.00  0.00    +0.000 A 
ATOM     18  H   UNL     1       5.910   7.570  15.453  0.00  0.00    +0.000 HD
ENDBRANCH   6   9
BRANCH   7  19
ATOM     19  C   UNL     1       2.091   6.124  19.222  0.00  0.00    +0.000 A 
ATOM     20  C   UNL     1       1.904   6.238  20.607  0.00  0.00    +0.000 A 
ATOM     21  C   UNL     1       1.546   7.463  21.185  0.00  0.00    +0.000 A 
ATOM     22  C   UNL     1       1.366   8.586  20.379  0.00  0.00    +0.000 A 
ATOM     23  C   UNL     1       1.553   8.469  19.001  0.00  0.00    +0.000 A 
ATOM     24  C   UNL     1       1.905   7.248  18.410  0.00  0.00    +0.000 A 
BRANCH  23  25
ATOM     25  N   UNL     1       1.391   9.621  18.136  0.00  0.00    +0.000 N 
ATOM     26  O   UNL     1       2.350   9.943  17.421  0.00  0.00    +0.000 OA
ATOM     27  O   UNL     1       0.271  10.154  18.119  0.00  0.00    +0.000 OA
ENDBRANCH  23  25
BRANCH  22  28
ATOM     28  O   UNL     1       0.991   9.768  20.944  0.00  0.00    +0.000 OA
ATOM     29  H   UNL     1       0.334  10.212  20.379  0.00  0.00    +0.000 HD
ENDBRANCH  22  28
ENDBRANCH   7  19
TORSDOF 4
ENDMDL
