MODEL 1
REMARK VINA RESULT:      -8.3      0.000      0.000
REMARK  Name = 
REMARK  10 active torsions:
REMARK  status: ('A' for Active; 'I' for Inactive)
REMARK    1  A    between atoms: C_1  and  C_2
REMARK    2  A    between atoms: C_2  and  C_3
REMARK    3  A    between atoms: C_3  and  C_4
REMARK    4  A    between atoms: C_4  and  C_5
REMARK    5  A    between atoms: C_4  and  C_8
REMARK    6  A    between atoms: C_5  and  C_6
REMARK    7  A    between atoms: C_6  and  C_7
REMARK    8  A    between atoms: N_10  and  C_11
REMARK    9  A    between atoms: C_11  and  C_12
REMARK   10  A    between atoms: N_19  and  C_20
REMARK                            x       y       z     vdW  Elec       q    Type
REMARK                         _______ _______ _______ _____ _____    ______ ____
ROOT
ATOM      1  C   UNL     1       5.545   4.735  16.078  0.00  0.00    +0.000 A 
ATOM      2  C   UNL     1       5.513   6.122  16.217  0.00  0.00    +0.000 A 
ATOM      3  C   UNL     1       4.536   6.751  16.991  0.00  0.00    +0.000 A 
ATOM      4  C   UNL     1       3.554   5.959  17.612  0.00  0.00    +0.000 A 
ATOM      5  C   UNL     1       3.577   4.569  17.503  0.00  0.00    +0.000 A 
ATOM      6  C   UNL     1       2.522   4.137  18.334  0.00  0.00    +0.000 A 
ATOM      7  N   UNL     1       1.909   5.140  18.961  0.00  0.00    +0.000 NA
ATOM      8  N   UNL     1       2.479   6.265  18.435  0.00  0.00    +0.000 N 
ATOM      9  C   UNL     1       4.562   3.949  16.711  0.00  0.00    +0.000 A 
ENDROOT
BRANCH   8  10
ATOM     10  C   UNL     1       1.965   7.541  18.783  0.00  0.00    +0.000 A 
ATOM     11  C   UNL     1       1.864   8.543  17.806  0.00  0.00    +0.000 A 
ATOM     12  C   UNL     1       1.389   9.811  18.157  0.00  0.00    +0.000 A 
ATOM     13  C   UNL     1       1.030  10.088  19.477  0.00  0.00    +0.000 A 
ATOM     14  C   UNL     1       1.127   9.094  20.445  0.00  0.00    +0.000 A 
ATOM     15  C   UNL     1       1.598   7.833  20.098  0.00  0.00    +0.000 A 
ATOM     16  F   UNL     1       1.771   6.956  21.096  0.00  0.00    +0.000 F 
ENDBRANCH   8  10
BRANCH   1  17
ATOM     17  C   UNL     1       6.650   4.097  15.279  0.00  0.00    +0.000 C 
BRANCH  17  20
ATOM     18  C   UNL     1       6.576   3.923  12.848  0.00  0.00    +0.000 C 
ATOM     19  O   UNL     1       7.328   4.888  12.747  0.00  0.00    +0.000 OA
ATOM     20  N   UNL     1       6.161   3.460  14.078  0.00  0.00    +0.000 N 
ATOM     21  H   UNL     1       5.506   2.698  14.160  0.00  0.00    +0.000 HD
BRANCH  18  22
ATOM     22  C   UNL     1       6.020   3.171  11.624  0.00  0.00    +0.000 C 
BRANCH  22  23
ATOM     23  C   UNL     1       6.688   1.773  11.554  0.00  0.00    +0.000 C 
BRANCH  23  25
ATOM     24  C   UNL     1       6.263  -0.758  11.539  0.00  0.00    +0.000 C 
ATOM     25  C   UNL     1       5.864   0.607  11.001  0.00  0.00    +0.000 C 
ENDBRANCH  23  25
ENDBRANCH  22  23
BRANCH  22  26
ATOM     26  C   UNL     1       4.473   3.146  11.631  0.00  0.00    +0.000 C 
BRANCH  26  27
ATOM     27  C   UNL     1       3.822   4.179  10.703  0.00  0.00    +0.000 C 
ATOM     28  C   UNL     1       2.834   3.555   9.728  0.00  0.00    +0.000 C 
ENDBRANCH  26  27
ENDBRANCH  22  26
ENDBRANCH  18  22
ENDBRANCH  17  20
ENDBRANCH   1  17
TORSDOF 8
ENDMDL
MODEL 2
REMARK VINA RESULT:      -8.1      2.497      3.331
REMARK  Name = 
REMARK  10 active torsions:
REMARK  status: ('A' for Active; 'I' for Inactive)
REMARK    1  A    between atoms: C_1  and  C_2
REMARK    2  A    between atoms: C_2  and  C_3
REMARK    3  A    between atoms: C_3  and  C_4
REMARK    4  A    between atoms: C_4  and  C_5
REMARK    5  A    between atoms: C_4  and  C_8
REMARK    6  A    between atoms: C_5  and  C_6
REMARK    7  A    between atoms: C_6  and  C_7
REMARK    8  A    between atoms: N_10  and  C_11
REMARK    9  A    between atoms: C_11  and  C_12
REMARK   10  A    between atoms: N_19  and  C_20
REMARK                            x       y       z     vdW  Elec       q    Type
REMARK                         _______ _______ _______ _____ _____    ______ ____
ROOT
ATOM      1  C   UNL     1       6.329   4.310  15.577  0.00  0.00    +0.000 A 
ATOM      2  C   UNL     1       5.058   3.745  15.676  0.00  0.00    +0.000 A 
ATOM      3  C   UNL     1       4.348   3.762  16.878  0.00  0.00    +0.000 A 
ATOM      4  C   UNL     1       4.953   4.337  18.010  0.00  0.00    +0.000 A 
ATOM      5  C   UNL     1       6.215   4.924  17.930  0.00  0.00    +0.000 A 
ATOM      6  C   UNL     1       6.424   5.474  19.213  0.00  0.00    +0.000 A 
ATOM      7  N   UNL     1       5.382   5.307  20.027  0.00  0.00    +0.000 NA
ATOM      8  N   UNL     1       4.523   4.518  19.317  0.00  0.00    +0.000 N 
ATOM      9  C   UNL     1       6.924   4.891  16.715  0.00  0.00    +0.000 A 
ENDROOT
BRANCH   8  10
ATOM     10  C   UNL     1       3.347   4.024  19.939  0.00  0.00    +0.000 A 
ATOM     11  C   UNL     1       3.406   2.854  20.713  0.00  0.00    +0.000 A 
ATOM     12  C   UNL     1       2.240   2.349  21.298  0.00  0.00    +0.000 A 
ATOM     13  C   UNL     1       1.017   2.994  21.104  0.00  0.00    +0.000 A 
ATOM     14  C   UNL     1       0.960   4.156  20.341  0.00  0.00    +0.000 A 
ATOM     15  C   UNL     1       2.118   4.660  19.759  0.00  0.00    +0.000 A 
ATOM     16  F   UNL     1       1.976   5.716  18.946  0.00  0.00    +0.000 F 
ENDBRANCH   8  10
BRANCH   1  17
ATOM     17  C   UNL     1       7.034   4.318  14.247  0.00  0.00    +0.000 C 
BRANCH  17  20
ATOM     18  C   UNL     1       6.644   3.639  11.938  0.00  0.00    +0.000 C 
ATOM     19  O   UNL     1       7.381   4.537  11.539  0.00  0.00    +0.000 OA
ATOM     20  N   UNL     1       6.390   3.459  13.279  0.00  0.00    +0.000 N 
ATOM     21  H   UNL     1       5.747   2.753  13.603  0.00  0.00    +0.000 HD
BRANCH  18  22
ATOM     22  C   UNL     1       5.930   2.665  10.981  0.00  0.00    +0.000 C 
BRANCH  22  23
ATOM     23  C   UNL     1       6.570   1.261  11.134  0.00  0.00    +0.000 C 
BRANCH  23  25
ATOM     24  C   UNL     1       6.153  -1.237  11.546  0.00  0.00    +0.000 C 
ATOM     25  C   UNL     1       5.697   0.035  10.851  0.00  0.00    +0.000 C 
ENDBRANCH  23  25
ENDBRANCH  22  23
BRANCH  22  26
ATOM     26  C   UNL     1       4.396   2.700  11.181  0.00  0.00    +0.000 C 
BRANCH  26  27
ATOM     27  C   UNL     1       3.742   4.036  10.812  0.00  0.00    +0.000 C 
ATOM     28  C   UNL     1       2.892   3.948   9.552  0.00  0.00    +0.000 C 
ENDBRANCH  26  27
ENDBRANCH  22  26
ENDBRANCH  18  22
ENDBRANCH  17  20
ENDBRANCH   1  17
TORSDOF 8
ENDMDL
MODEL 3
REMARK VINA RESULT:      -8.1      3.064      5.635
REMARK  Name = 
REMARK  10 active torsions:
REMARK  status: ('A' for Active; 'I' for Inactive)
REMARK    1  A    between atoms: C_1  and  C_2
REMARK    2  A    between atoms: C_2  and  C_3
REMARK    3  A    between atoms: C_3  and  C_4
REMARK    4  A    between atoms: C_4  and  C_5
REMARK    5  A    between atoms: C_4  and  C_8
REMARK    6  A    between atoms: C_5  and  C_6
REMARK    7  A    between atoms: C_6  and  C_7
REMARK    8  A    between atoms: N_10  and  C_11
REMARK    9  A    between atoms: C_11  and  C_12
REMARK   10  A    between atoms: N_19  and  C_20
REMARK                            x       y       z     vdW  Elec       q    Type
REMARK                         _______ _______ _______ _____ _____    ______ ____
ROOT
ATOM      1  C   UNL     1       2.558   6.533  19.173  0.00  0.00    +0.000 A 
ATOM      2  C   UNL     1       2.487   7.528  18.198  0.00  0.00    +0.000 A 
ATOM      3  C   UNL     1       1.921   8.774  18.472  0.00  0.00    +0.000 A 
ATOM      4  C   UNL     1       1.390   9.006  19.754  0.00  0.00    +0.000 A 
ATOM      5  C   UNL     1       1.466   8.033  20.750  0.00  0.00    +0.000 A 
ATOM      6  C   UNL     1       0.937   8.666  21.895  0.00  0.00    +0.000 A 
ATOM      7  N   UNL     1       0.600   9.937  21.678  0.00  0.00    +0.000 NA
ATOM      8  N   UNL     1       0.783  10.110  20.336  0.00  0.00    +0.000 N 
ATOM      9  C   UNL     1       2.030   6.777  20.456  0.00  0.00    +0.000 A 
ENDROOT
BRANCH   8  10
ATOM     10  C   UNL     1       0.388  11.328  19.725  0.00  0.00    +0.000 A 
ATOM     11  C   UNL     1      -0.701  11.343  18.839  0.00  0.00    +0.000 A 
ATOM     12  C   UNL     1      -1.069  12.537  18.211  0.00  0.00    +0.000 A 
ATOM     13  C   UNL     1      -0.350  13.710  18.449  0.00  0.00    +0.000 A 
ATOM     14  C   UNL     1       0.727  13.696  19.330  0.00  0.00    +0.000 A 
ATOM     15  C   UNL     1       1.094  12.510  19.956  0.00  0.00    +0.000 A 
ATOM     16  F   UNL     1       2.205  12.540  20.704  0.00  0.00    +0.000 F 
ENDBRANCH   8  10
BRANCH   1  17
ATOM     17  C   UNL     1       3.227   5.224  18.848  0.00  0.00    +0.000 C 
BRANCH  17  20
ATOM     18  C   UNL     1       5.562   4.670  18.415  0.00  0.00    +0.000 C 
ATOM     19  O   UNL     1       5.563   3.890  19.363  0.00  0.00    +0.000 OA
ATOM     20  N   UNL     1       4.442   5.403  18.087  0.00  0.00    +0.000 N 
ATOM     21  H   UNL     1       4.456   6.079  17.339  0.00  0.00    +0.000 HD
BRANCH  18  22
ATOM     22  C   UNL     1       6.805   4.911  17.537  0.00  0.00    +0.000 C 
BRANCH  22  23
ATOM     23  C   UNL     1       6.347   5.084  16.066  0.00  0.00    +0.000 C 
BRANCH  23  25
ATOM     24  C   UNL     1       6.266   3.957  13.762  0.00  0.00    +0.000 C 
ATOM     25  C   UNL     1       6.026   3.824  15.257  0.00  0.00    +0.000 C 
ENDBRANCH  23  25
ENDBRANCH  22  23
BRANCH  22  26
ATOM     26  C   UNL     1       7.665   6.074  18.084  0.00  0.00    +0.000 C 
BRANCH  26  27
ATOM     27  C   UNL     1       7.475   7.403  17.342  0.00  0.00    +0.000 C 
ATOM     28  C   UNL     1       8.203   8.560  18.011  0.00  0.00    +0.000 C 
ENDBRANCH  26  27
ENDBRANCH  22  26
ENDBRANCH  18  22
ENDBRANCH  17  20
ENDBRANCH   1  17
TORSDOF 8
ENDMDL
MODEL 4
REMARK VINA RESULT:      -8.0      2.945      5.458
REMARK  Name = 
REMARK  10 active torsions:
REMARK  status: ('A' for Active; 'I' for Inactive)
REMARK    1  A    between atoms: C_1  and  C_2
REMARK    2  A    between atoms: C_2  and  C_3
REMARK    3  A    between atoms: C_3  and  C_4
REMARK    4  A    between atoms: C_4  and  C_5
REMARK    5  A    between atoms: C_4  and  C_8
REMARK    6  A    between atoms: C_5  and  C_6
REMARK    7  A    between atoms: C_6  and  C_7
REMARK    8  A    between atoms: N_10  and  C_11
REMARK    9  A    between atoms: C_11  and  C_12
REMARK   10  A    between atoms: N_19  and  C_20
REMARK                            x       y       z     vdW  Elec       q    Type
REMARK                         _______ _______ _______ _____ _____    ______ ____
ROOT
ATOM      1  C   UNL     1       2.474   6.387  19.012  0.00  0.00    +0.000 A 
ATOM      2  C   UNL     1       2.423   7.361  18.015  0.00  0.00    +0.000 A 
ATOM      3  C   UNL     1       1.928   8.640  18.275  0.00  0.00    +0.000 A 
ATOM      4  C   UNL     1       1.447   8.928  19.565  0.00  0.00    +0.000 A 
ATOM      5  C   UNL     1       1.505   7.976  20.582  0.00  0.00    +0.000 A 
ATOM      6  C   UNL     1       1.042   8.661  21.726  0.00  0.00    +0.000 A 
ATOM      7  N   UNL     1       0.763   9.942  21.488  0.00  0.00    +0.000 NA
ATOM      8  N   UNL     1       0.913  10.074  20.136  0.00  0.00    +0.000 N 
ATOM      9  C   UNL     1       1.997   6.687  20.304  0.00  0.00    +0.000 A 
ENDROOT
BRANCH   8  10
ATOM     10  C   UNL     1       0.561  11.296  19.507  0.00  0.00    +0.000 A 
ATOM     11  C   UNL     1       1.438  12.390  19.567  0.00  0.00    +0.000 A 
ATOM     12  C   UNL     1       1.075  13.605  18.976  0.00  0.00    +0.000 A 
ATOM     13  C   UNL     1      -0.160  13.738  18.339  0.00  0.00    +0.000 A 
ATOM     14  C   UNL     1      -1.027  12.652  18.276  0.00  0.00    +0.000 A 
ATOM     15  C   UNL     1      -0.668  11.444  18.863  0.00  0.00    +0.000 A 
ATOM     16  F   UNL     1      -1.592  10.473  18.863  0.00  0.00    +0.000 F 
ENDBRANCH   8  10
BRANCH   1  17
ATOM     17  C   UNL     1       3.067   5.039  18.701  0.00  0.00    +0.000 C 
BRANCH  17  20
ATOM     18  C   UNL     1       5.426   4.742  18.159  0.00  0.00    +0.000 C 
ATOM     19  O   UNL     1       5.651   4.359  19.304  0.00  0.00    +0.000 OA
ATOM     20  N   UNL     1       4.164   5.125  17.763  0.00  0.00    +0.000 N 
ATOM     21  H   UNL     1       3.989   5.485  16.838  0.00  0.00    +0.000 HD
BRANCH  18  22
ATOM     22  C   UNL     1       6.528   4.848  17.088  0.00  0.00    +0.000 C 
BRANCH  22  23
ATOM     23  C   UNL     1       5.858   5.026  15.701  0.00  0.00    +0.000 C 
BRANCH  23  25
ATOM     24  C   UNL     1       6.406   3.974  13.426  0.00  0.00    +0.000 C 
ATOM     25  C   UNL     1       5.752   3.802  14.787  0.00  0.00    +0.000 C 
ENDBRANCH  23  25
ENDBRANCH  22  23
BRANCH  22  26
ATOM     26  C   UNL     1       7.562   5.941  17.448  0.00  0.00    +0.000 C 
BRANCH  26  27
ATOM     27  C   UNL     1       7.016   7.373  17.379  0.00  0.00    +0.000 C 
ATOM     28  C   UNL     1       8.024   8.411  17.852  0.00  0.00    +0.000 C 
ENDBRANCH  26  27
ENDBRANCH  22  26
ENDBRANCH  18  22
ENDBRANCH  17  20
ENDBRANCH   1  17
TORSDOF 8
ENDMDL
MODEL 5
REMARK VINA RESULT:      -8.0      1.118      2.396
REMARK  Name = 
REMARK  10 active torsions:
REMARK  status: ('A' for Active; 'I' for Inactive)
REMARK    1  A    between atoms: C_1  and  C_2
REMARK    2  A    between atoms: C_2  and  C_3
REMARK    3  A    between atoms: C_3  and  C_4
REMARK    4  A    between atoms: C_4  and  C_5
REMARK    5  A    between atoms: C_4  and  C_8
REMARK    6  A    between atoms: C_5  and  C_6
REMARK    7  A    between atoms: C_6  and  C_7
REMARK    8  A    between atoms: N_10  and  C_11
REMARK    9  A    between atoms: C_11  and  C_12
REMARK   10  A    between atoms: N_19  and  C_20
REMARK                            x       y       z     vdW  Elec       q    Type
REMARK                         _______ _______ _______ _____ _____    ______ ____
ROOT
ATOM      1  C   UNL     1       5.358   5.134  16.710  0.00  0.00    +0.000 A 
ATOM      2  C   UNL     1       5.365   6.504  16.968  0.00  0.00    +0.000 A 
ATOM      3  C   UNL     1       4.403   7.092  17.791  0.00  0.00    +0.000 A 
ATOM      4  C   UNL     1       3.396   6.278  18.339  0.00  0.00    +0.000 A 
ATOM      5  C   UNL     1       3.380   4.902  18.110  0.00  0.00    +0.000 A 
ATOM      6  C   UNL     1       2.308   4.431  18.899  0.00  0.00    +0.000 A 
ATOM      7  N   UNL     1       1.722   5.394  19.609  0.00  0.00    +0.000 NA
ATOM      8  N   UNL     1       2.326   6.543  19.183  0.00  0.00    +0.000 N 
ATOM      9  C   UNL     1       4.350   4.325  17.270  0.00  0.00    +0.000 A 
ENDROOT
BRANCH   8  10
ATOM     10  C   UNL     1       1.848   7.799  19.639  0.00  0.00    +0.000 A 
ATOM     11  C   UNL     1       1.641   8.009  21.011  0.00  0.00    +0.000 A 
ATOM     12  C   UNL     1       1.137   9.236  21.458  0.00  0.00    +0.000 A 
ATOM     13  C   UNL     1       0.826  10.245  20.545  0.00  0.00    +0.000 A 
ATOM     14  C   UNL     1       1.035  10.037  19.185  0.00  0.00    +0.000 A 
ATOM     15  C   UNL     1       1.536   8.819  18.739  0.00  0.00    +0.000 A 
ATOM     16  F   UNL     1       1.610   8.644  17.413  0.00  0.00    +0.000 F 
ENDBRANCH   8  10
BRANCH   1  17
ATOM     17  C   UNL     1       6.448   4.535  15.862  0.00  0.00    +0.000 C 
BRANCH  17  20
ATOM     18  C   UNL     1       6.447   3.957  13.493  0.00  0.00    +0.000 C 
ATOM     19  O   UNL     1       7.330   4.783  13.281  0.00  0.00    +0.000 OA
ATOM     20  N   UNL     1       5.923   3.771  14.753  0.00  0.00    +0.000 N 
ATOM     21  H   UNL     1       5.165   3.127  14.918  0.00  0.00    +0.000 HD
BRANCH  18  22
ATOM     22  C   UNL     1       5.841   3.085  12.376  0.00  0.00    +0.000 C 
BRANCH  22  23
ATOM     23  C   UNL     1       4.493   3.712  11.934  0.00  0.00    +0.000 C 
BRANCH  23  25
ATOM     24  C   UNL     1       3.122   3.922   9.775  0.00  0.00    +0.000 C 
ATOM     25  C   UNL     1       3.690   3.000  10.842  0.00  0.00    +0.000 C 
ENDBRANCH  23  25
ENDBRANCH  22  23
BRANCH  22  26
ATOM     26  C   UNL     1       6.852   2.855  11.228  0.00  0.00    +0.000 C 
BRANCH  26  27
ATOM     27  C   UNL     1       6.827   1.438  10.640  0.00  0.00    +0.000 C 
ATOM     28  C   UNL     1       6.232   0.415  11.597  0.00  0.00    +0.000 C 
ENDBRANCH  26  27
ENDBRANCH  22  26
ENDBRANCH  18  22
ENDBRANCH  17  20
ENDBRANCH   1  17
TORSDOF 8
ENDMDL
MODEL 6
REMARK VINA RESULT:      -7.9      2.920      5.518
REMARK  Name = 
REMARK  10 active torsions:
REMARK  status: ('A' for Active; 'I' for Inactive)
REMARK    1  A    between atoms: C_1  and  C_2
REMARK    2  A    between atoms: C_2  and  C_3
REMARK    3  A    between atoms: C_3  and  C_4
REMARK    4  A    between atoms: C_4  and  C_5
REMARK    5  A    between atoms: C_4  and  C_8
REMARK    6  A    between atoms: C_5  and  C_6
REMARK    7  A    between atoms: C_6  and  C_7
REMARK    8  A    between atoms: N_10  and  C_11
REMARK    9  A    between atoms: C_11  and  C_12
REMARK   10  A    between atoms: N_19  and  C_20
REMARK                            x       y       z     vdW  Elec       q    Type
REMARK                         _______ _______ _______ _____ _____    ______ ____
ROOT
ATOM      1  C   UNL     1       2.306   6.856  18.855  0.00  0.00    +0.000 A 
ATOM      2  C   UNL     1       2.187   7.890  17.927  0.00  0.00    +0.000 A 
ATOM      3  C   UNL     1       1.750   9.161  18.307  0.00  0.00    +0.000 A 
ATOM      4  C   UNL     1       1.399   9.378  19.652  0.00  0.00    +0.000 A 
ATOM      5  C   UNL     1       1.528   8.364  20.601  0.00  0.00    +0.000 A 
ATOM      6  C   UNL     1       1.191   8.986  21.822  0.00  0.00    +0.000 A 
ATOM      7  N   UNL     1       0.922  10.285  21.688  0.00  0.00    +0.000 NA
ATOM      8  N   UNL     1       0.949  10.497  20.339  0.00  0.00    +0.000 N 
ATOM      9  C   UNL     1       1.960   7.086  20.201  0.00  0.00    +0.000 A 
ENDROOT
BRANCH   8  10
ATOM     10  C   UNL     1       0.570  11.762  19.819  0.00  0.00    +0.000 A 
ATOM     11  C   UNL     1      -0.545  11.862  18.972  0.00  0.00    +0.000 A 
ATOM     12  C   UNL     1      -0.898  13.103  18.433  0.00  0.00    +0.000 A 
ATOM     13  C   UNL     1      -0.140  14.239  18.721  0.00  0.00    +0.000 A 
ATOM     14  C   UNL     1       0.963  14.140  19.564  0.00  0.00    +0.000 A 
ATOM     15  C   UNL     1       1.315  12.907  20.102  0.00  0.00    +0.000 A 
ATOM     16  F   UNL     1       2.449  12.860  20.814  0.00  0.00    +0.000 F 
ENDBRANCH   8  10
BRANCH   1  17
ATOM     17  C   UNL     1       2.834   5.519  18.409  0.00  0.00    +0.000 C 
BRANCH  17  20
ATOM     18  C   UNL     1       4.887   4.570  17.497  0.00  0.00    +0.000 C 
ATOM     19  O   UNL     1       4.682   3.521  18.100  0.00  0.00    +0.000 OA
ATOM     20  N   UNL     1       4.027   5.641  17.603  0.00  0.00    +0.000 N 
ATOM     21  H   UNL     1       4.221   6.519  17.145  0.00  0.00    +0.000 HD
BRANCH  18  22
ATOM     22  C   UNL     1       6.122   4.784  16.600  0.00  0.00    +0.000 C 
BRANCH  22  23
ATOM     23  C   UNL     1       7.385   4.829  17.498  0.00  0.00    +0.000 C 
BRANCH  23  25
ATOM     24  C   UNL     1       7.620   7.378  17.666  0.00  0.00    +0.000 C 
ATOM     25  C   UNL     1       7.586   6.049  18.401  0.00  0.00    +0.000 C 
ENDBRANCH  23  25
ENDBRANCH  22  23
BRANCH  22  26
ATOM     26  C   UNL     1       6.179   3.740  15.459  0.00  0.00    +0.000 C 
BRANCH  26  27
ATOM     27  C   UNL     1       6.516   4.328  14.083  0.00  0.00    +0.000 C 
ATOM     28  C   UNL     1       5.734   3.670  12.955  0.00  0.00    +0.000 C 
ENDBRANCH  26  27
ENDBRANCH  22  26
ENDBRANCH  18  22
ENDBRANCH  17  20
ENDBRANCH   1  17
TORSDOF 8
ENDMDL
MODEL 7
REMARK VINA RESULT:      -7.9      2.742      5.224
REMARK  Name = 
REMARK  10 active torsions:
REMARK  status: ('A' for Active; 'I' for Inactive)
REMARK    1  A    between atoms: C_1  and  C_2
REMARK    2  A    between atoms: C_2  and  C_3
REMARK    3  A    between atoms: C_3  and  C_4
REMARK    4  A    between atoms: C_4  and  C_5
REMARK    5  A    between atoms: C_4  and  C_8
REMARK    6  A    between atoms: C_5  and  C_6
REMARK    7  A    between atoms: C_6  and  C_7
REMARK    8  A    between atoms: N_10  and  C_11
REMARK    9  A    between atoms: C_11  and  C_12
REMARK   10  A    between atoms: N_19  and  C_20
REMARK                            x       y       z     vdW  Elec       q    Type
REMARK                         _______ _______ _______ _____ _____    ______ ____
ROOT
ATOM      1  C   UNL     1       2.565   6.611  18.980  0.00  0.00    +0.000 A 
ATOM      2  C   UNL     1       2.494   7.616  18.014  0.00  0.00    +0.000 A 
ATOM      3  C   UNL     1       1.957   8.870  18.311  0.00  0.00    +0.000 A 
ATOM      4  C   UNL     1       1.455   9.101  19.604  0.00  0.00    +0.000 A 
ATOM      5  C   UNL     1       1.532   8.118  20.590  0.00  0.00    +0.000 A 
ATOM      6  C   UNL     1       1.038   8.750  21.751  0.00  0.00    +0.000 A 
ATOM      7  N   UNL     1       0.721  10.030  21.552  0.00  0.00    +0.000 NA
ATOM      8  N   UNL     1       0.881  10.211  20.207  0.00  0.00    +0.000 N 
ATOM      9  C   UNL     1       2.066   6.854  20.275  0.00  0.00    +0.000 A 
ENDROOT
BRANCH   8  10
ATOM     10  C   UNL     1       0.497  11.442  19.614  0.00  0.00    +0.000 A 
ATOM     11  C   UNL     1       1.272  12.592  19.830  0.00  0.00    +0.000 A 
ATOM     12  C   UNL     1       0.875  13.812  19.274  0.00  0.00    +0.000 A 
ATOM     13  C   UNL     1      -0.295  13.894  18.517  0.00  0.00    +0.000 A 
ATOM     14  C   UNL     1      -1.061  12.753  18.299  0.00  0.00    +0.000 A 
ATOM     15  C   UNL     1      -0.668  11.539  18.852  0.00  0.00    +0.000 A 
ATOM     16  F   UNL     1      -1.506  10.505  18.698  0.00  0.00    +0.000 F 
ENDBRANCH   8  10
BRANCH   1  17
ATOM     17  C   UNL     1       3.202   5.293  18.630  0.00  0.00    +0.000 C 
BRANCH  17  20
ATOM     18  C   UNL     1       4.832   4.330  17.093  0.00  0.00    +0.000 C 
ATOM     19  O   UNL     1       4.407   3.204  17.333  0.00  0.00    +0.000 OA
ATOM     20  N   UNL     1       4.306   5.444  17.710  0.00  0.00    +0.000 N 
ATOM     21  H   UNL     1       4.687   6.364  17.550  0.00  0.00    +0.000 HD
BRANCH  18  22
ATOM     22  C   UNL     1       5.992   4.589  16.113  0.00  0.00    +0.000 C 
BRANCH  22  23
ATOM     23  C   UNL     1       7.326   4.559  16.905  0.00  0.00    +0.000 C 
BRANCH  23  25
ATOM     24  C   UNL     1       7.685   6.868  17.965  0.00  0.00    +0.000 C 
ATOM     25  C   UNL     1       7.422   5.388  18.188  0.00  0.00    +0.000 C 
ENDBRANCH  23  25
ENDBRANCH  22  23
BRANCH  22  26
ATOM     26  C   UNL     1       5.938   3.622  14.907  0.00  0.00    +0.000 C 
BRANCH  26  27
ATOM     27  C   UNL     1       6.524   4.197  13.611  0.00  0.00    +0.000 C 
ATOM     28  C   UNL     1       6.044   3.460  12.369  0.00  0.00    +0.000 C 
ENDBRANCH  26  27
ENDBRANCH  22  26
ENDBRANCH  18  22
ENDBRANCH  17  20
ENDBRANCH   1  17
TORSDOF 8
ENDMDL
MODEL 8
REMARK VINA RESULT:      -7.8      4.203      9.268
REMARK  Name = 
REMARK  10 active torsions:
REMARK  status: ('A' for Active; 'I' for Inactive)
REMARK    1  A    between atoms: C_1  and  C_2
REMARK    2  A    between atoms: C_2  and  C_3
REMARK    3  A    between atoms: C_3  and  C_4
REMARK    4  A    between atoms: C_4  and  C_5
REMARK    5  A    between atoms: C_4  and  C_8
REMARK    6  A    between atoms: C_5  and  C_6
REMARK    7  A    between atoms: C_6  and  C_7
REMARK    8  A    between atoms: N_10  and  C_11
REMARK    9  A    between atoms: C_11  and  C_12
REMARK   10  A    between atoms: N_19  and  C_20
REMARK                            x       y       z     vdW  Elec       q    Type
REMARK                         _______ _______ _______ _____ _____    ______ ____
ROOT
ATOM      1  C   UNL     1       1.288   9.021  19.415  0.00  0.00    +0.000 A 
ATOM      2  C   UNL     1       2.005   9.091  18.221  0.00  0.00    +0.000 A 
ATOM      3  C   UNL     1       2.871   8.067  17.833  0.00  0.00    +0.000 A 
ATOM      4  C   UNL     1       3.034   6.962  18.688  0.00  0.00    +0.000 A 
ATOM      5  C   UNL     1       2.313   6.861  19.877  0.00  0.00    +0.000 A 
ATOM      6  C   UNL     1       2.660   5.592  20.387  0.00  0.00    +0.000 A 
ATOM      7  N   UNL     1       3.482   4.915  19.585  0.00  0.00    +0.000 NA
ATOM      8  N   UNL     1       3.791   5.802  18.594  0.00  0.00    +0.000 N 
ATOM      9  C   UNL     1       1.452   7.906  20.261  0.00  0.00    +0.000 A 
ENDROOT
BRANCH   8  10
ATOM     10  C   UNL     1       4.765   5.457  17.621  0.00  0.00    +0.000 A 
ATOM     11  C   UNL     1       5.977   6.162  17.566  0.00  0.00    +0.000 A 
ATOM     12  C   UNL     1       6.922   5.844  16.586  0.00  0.00    +0.000 A 
ATOM     13  C   UNL     1       6.660   4.839  15.654  0.00  0.00    +0.000 A 
ATOM     14  C   UNL     1       5.460   4.137  15.711  0.00  0.00    +0.000 A 
ATOM     15  C   UNL     1       4.519   4.451  16.685  0.00  0.00    +0.000 A 
ATOM     16  F   UNL     1       3.342   3.815  16.617  0.00  0.00    +0.000 F 
ENDBRANCH   8  10
BRANCH   1  17
ATOM     17  C   UNL     1       0.324  10.123  19.766  0.00  0.00    +0.000 C 
BRANCH  17  20
ATOM     18  C   UNL     1      -1.585  10.753  18.386  0.00  0.00    +0.000 C 
ATOM     19  O   UNL     1      -1.007  11.778  18.037  0.00  0.00    +0.000 OA
ATOM     20  N   UNL     1      -1.008   9.866  19.268  0.00  0.00    +0.000 N 
ATOM     21  H   UNL     1      -1.502   9.049  19.592  0.00  0.00    +0.000 HD
BRANCH  18  22
ATOM     22  C   UNL     1      -2.998  10.388  17.893  0.00  0.00    +0.000 C 
BRANCH  22  23
ATOM     23  C   UNL     1      -3.878  11.665  17.919  0.00  0.00    +0.000 C 
BRANCH  23  25
ATOM     24  C   UNL     1      -6.331  11.026  18.318  0.00  0.00    +0.000 C 
ATOM     25  C   UNL     1      -5.297  11.576  17.350  0.00  0.00    +0.000 C 
ENDBRANCH  23  25
ENDBRANCH  22  23
BRANCH  22  26
ATOM     26  C   UNL     1      -2.950   9.668  16.524  0.00  0.00    +0.000 C 
BRANCH  26  27
ATOM     27  C   UNL     1      -2.820  10.609  15.321  0.00  0.00    +0.000 C 
ATOM     28  C   UNL     1      -3.613  10.132  14.112  0.00  0.00    +0.000 C 
ENDBRANCH  26  27
ENDBRANCH  22  26
ENDBRANCH  18  22
ENDBRANCH  17  20
ENDBRANCH   1  17
TORSDOF 8
ENDMDL
MODEL 9
REMARK VINA RESULT:      -7.8      4.413      9.362
REMARK  Name = 
REMARK  10 active torsions:
REMARK  status: ('A' for Active; 'I' for Inactive)
REMARK    1  A    between atoms: C_1  and  C_2
REMARK    2  A    between atoms: C_2  and  C_3
REMARK    3  A    between atoms: C_3  and  C_4
REMARK    4  A    between atoms: C_4  and  C_5
REMARK    5  A    between atoms: C_4  and  C_8
REMARK    6  A    between atoms: C_5  and  C_6
REMARK    7  A    between atoms: C_6  and  C_7
REMARK    8  A    between atoms: N_10  and  C_11
REMARK    9  A    between atoms: C_11  and  C_12
REMARK   10  A    between atoms: N_19  and  C_20
REMARK                            x       y       z     vdW  Elec       q    Type
REMARK                         _______ _______ _______ _____ _____    ______ ____
ROOT
ATOM      1  C   UNL     1       1.225   9.613  18.988  0.00  0.00    +0.000 A 
ATOM      2  C   UNL     1       1.992   9.397  17.844  0.00  0.00    +0.000 A 
ATOM      3  C   UNL     1       2.749   8.234  17.686  0.00  0.00    +0.000 A 
ATOM      4  C   UNL     1       2.750   7.284  18.723  0.00  0.00    +0.000 A 
ATOM      5  C   UNL     1       1.975   7.470  19.868  0.00  0.00    +0.000 A 
ATOM      6  C   UNL     1       2.153   6.279  20.604  0.00  0.00    +0.000 A 
ATOM      7  N   UNL     1       2.922   5.389  19.978  0.00  0.00    +0.000 NA
ATOM      8  N   UNL     1       3.371   6.052  18.871  0.00  0.00    +0.000 N 
ATOM      9  C   UNL     1       1.225   8.651  20.018  0.00  0.00    +0.000 A 
ENDROOT
BRANCH   8  10
ATOM     10  C   UNL     1       4.336   5.440  18.030  0.00  0.00    +0.000 A 
ATOM     11  C   UNL     1       5.648   5.939  17.994  0.00  0.00    +0.000 A 
ATOM     12  C   UNL     1       6.590   5.358  17.140  0.00  0.00    +0.000 A 
ATOM     13  C   UNL     1       6.229   4.294  16.312  0.00  0.00    +0.000 A 
ATOM     14  C   UNL     1       4.930   3.796  16.350  0.00  0.00    +0.000 A 
ATOM     15  C   UNL     1       3.992   4.373  17.199  0.00  0.00    +0.000 A 
ATOM     16  F   UNL     1       2.734   3.921  17.107  0.00  0.00    +0.000 F 
ENDBRANCH   8  10
BRANCH   1  17
ATOM     17  C   UNL     1       0.382  10.855  19.090  0.00  0.00    +0.000 C 
BRANCH  17  20
ATOM     18  C   UNL     1      -1.930  11.379  18.516  0.00  0.00    +0.000 C 
ATOM     19  O   UNL     1      -2.123  11.813  19.648  0.00  0.00    +0.000 OA
ATOM     20  N   UNL     1      -0.711  10.857  18.144  0.00  0.00    +0.000 N 
ATOM     21  H   UNL     1      -0.566  10.456  17.229  0.00  0.00    +0.000 HD
BRANCH  18  22
ATOM     22  C   UNL     1      -3.029  11.357  17.436  0.00  0.00    +0.000 C 
BRANCH  22  23
ATOM     23  C   UNL     1      -3.075   9.942  16.803  0.00  0.00    +0.000 C 
BRANCH  23  25
ATOM     24  C   UNL     1      -3.833  10.123  14.358  0.00  0.00    +0.000 C 
ATOM     25  C   UNL     1      -2.705   9.801  15.324  0.00  0.00    +0.000 C 
ENDBRANCH  23  25
ENDBRANCH  22  23
BRANCH  22  26
ATOM     26  C   UNL     1      -4.382  11.856  17.998  0.00  0.00    +0.000 C 
BRANCH  26  27
ATOM     27  C   UNL     1      -5.407  10.744  18.251  0.00  0.00    +0.000 C 
ATOM     28  C   UNL     1      -6.843  11.248  18.211  0.00  0.00    +0.000 C 
ENDBRANCH  26  27
ENDBRANCH  22  26
ENDBRANCH  18  22
ENDBRANCH  17  20
ENDBRANCH   1  17
TORSDOF 8
ENDMDL
