MODEL 1
REMARK VINA RESULT:      -8.2      0.000      0.000
REMARK  Name = 
REMARK  5 active torsions:
REMARK  status: ('A' for Active; 'I' for Inactive)
REMARK    1  A    between atoms: C_1  and  O_2
REMARK    2  A    between atoms: O_2  and  C_3
REMARK    3  A    between atoms: C_8  and  C_9
REMARK    4  A    between atoms: C_9  and  C_11
REMARK    5  A    between atoms: C_12  and  C_13
REMARK                            x       y       z     vdW  Elec       q    Type
REMARK                         _______ _______ _______ _____ _____    ______ ____
ROOT
ATOM      1  C   UNL     1       2.796   4.917  17.899  0.00  0.00    +0.000 C 
ATOM      2  C   UNL     1       3.241   5.984  18.582  0.00  0.00    +0.000 C 
ENDROOT
BRANCH   2   3
ATOM      3  C   UNL     1       2.545   7.251  18.878  0.00  0.00    +0.000 A 
ATOM      4  C   UNL     1       2.369   8.147  17.813  0.00  0.00    +0.000 A 
ATOM      5  C   UNL     1       1.569   9.286  17.950  0.00  0.00    +0.000 A 
ATOM      6  C   UNL     1       0.931   9.565  19.162  0.00  0.00    +0.000 A 
ATOM      7  C   UNL     1       0.050  10.650  19.281  0.00  0.00    +0.000 A 
ATOM      8  C   UNL     1      -0.579  10.925  20.495  0.00  0.00    +0.000 A 
ATOM      9  C   UNL     1      -0.308  10.137  21.609  0.00  0.00    +0.000 A 
ATOM     10  C   UNL     1       0.558   9.045  21.501  0.00  0.00    +0.000 A 
ATOM     11  C   UNL     1       1.166   8.723  20.275  0.00  0.00    +0.000 A 
ATOM     12  C   UNL     1       1.972   7.573  20.115  0.00  0.00    +0.000 A 
ENDBRANCH   2   3
BRANCH   1  13
ATOM     13  C   UNL     1       3.780   3.823  17.620  0.00  0.00    +0.000 C 
ATOM     14  O   UNL     1       3.613   2.693  18.074  0.00  0.00    +0.000 OA
BRANCH  13  20
ATOM     15  C   UNL     1       6.261   4.427  17.444  0.00  0.00    +0.000 A 
ATOM     16  C   UNL     1       7.322   4.825  16.614  0.00  0.00    +0.000 A 
ATOM     17  C   UNL     1       7.176   4.857  15.224  0.00  0.00    +0.000 A 
ATOM     18  C   UNL     1       5.966   4.499  14.643  0.00  0.00    +0.000 A 
ATOM     19  C   UNL     1       4.895   4.137  15.457  0.00  0.00    +0.000 A 
ATOM     20  C   UNL     1       5.026   4.108  16.859  0.00  0.00    +0.000 A 
BRANCH  15  22
ATOM     21  C   UNL     1       7.042   5.508  19.404  0.00  0.00    +0.000 C 
ATOM     22  O   UNL     1       6.364   4.404  18.810  0.00  0.00    +0.000 OA
ENDBRANCH  15  22
ENDBRANCH  13  20
ENDBRANCH   1  13
TORSDOF 4
ENDMDL
MODEL 2
REMARK VINA RESULT:      -7.8      1.019      1.286
REMARK  Name = 
REMARK  5 active torsions:
REMARK  status: ('A' for Active; 'I' for Inactive)
REMARK    1  A    between atoms: C_1  and  O_2
REMARK    2  A    between atoms: O_2  and  C_3
REMARK    3  A    between atoms: C_8  and  C_9
REMARK    4  A    between atoms: C_9  and  C_11
REMARK    5  A    between atoms: C_12  and  C_13
REMARK                            x       y       z     vdW  Elec       q    Type
REMARK                         _______ _______ _______ _____ _____    ______ ____
ROOT
ATOM      1  C   UNL     1       2.116   5.160  17.952  0.00  0.00    +0.000 C 
ATOM      2  C   UNL     1       2.752   6.294  18.289  0.00  0.00    +0.000 C 
ENDROOT
BRANCH   2   3
ATOM      3  C   UNL     1       2.185   7.555  18.806  0.00  0.00    +0.000 A 
ATOM      4  C   UNL     1       1.917   8.566  17.872  0.00  0.00    +0.000 A 
ATOM      5  C   UNL     1       1.217   9.720  18.236  0.00  0.00    +0.000 A 
ATOM      6  C   UNL     1       0.775   9.900  19.550  0.00  0.00    +0.000 A 
ATOM      7  C   UNL     1      -0.010  11.007  19.903  0.00  0.00    +0.000 A 
ATOM      8  C   UNL     1      -0.444  11.181  21.217  0.00  0.00    +0.000 A 
ATOM      9  C   UNL     1      -0.069  10.266  22.197  0.00  0.00    +0.000 A 
ATOM     10  C   UNL     1       0.703   9.152  21.856  0.00  0.00    +0.000 A 
ATOM     11  C   UNL     1       1.112   8.934  20.528  0.00  0.00    +0.000 A 
ATOM     12  C   UNL     1       1.813   7.770  20.140  0.00  0.00    +0.000 A 
ENDBRANCH   2   3
BRANCH   1  13
ATOM     13  C   UNL     1       2.933   4.084  17.305  0.00  0.00    +0.000 C 
ATOM     14  O   UNL     1       2.409   3.046  16.909  0.00  0.00    +0.000 OA
BRANCH  13  20
ATOM     15  C   UNL     1       5.291   4.141  18.301  0.00  0.00    +0.000 A 
ATOM     16  C   UNL     1       6.649   4.437  18.099  0.00  0.00    +0.000 A 
ATOM     17  C   UNL     1       7.137   4.752  16.827  0.00  0.00    +0.000 A 
ATOM     18  C   UNL     1       6.274   4.783  15.740  0.00  0.00    +0.000 A 
ATOM     19  C   UNL     1       4.918   4.529  15.932  0.00  0.00    +0.000 A 
ATOM     20  C   UNL     1       4.412   4.217  17.209  0.00  0.00    +0.000 A 
BRANCH  15  22
ATOM     21  C   UNL     1       4.536   2.470  19.803  0.00  0.00    +0.000 C 
ATOM     22  O   UNL     1       4.777   3.849  19.537  0.00  0.00    +0.000 OA
ENDBRANCH  15  22
ENDBRANCH  13  20
ENDBRANCH   1  13
TORSDOF 4
ENDMDL
MODEL 3
REMARK VINA RESULT:      -7.8      5.540      7.633
REMARK  Name = 
REMARK  5 active torsions:
REMARK  status: ('A' for Active; 'I' for Inactive)
REMARK    1  A    between atoms: C_1  and  O_2
REMARK    2  A    between atoms: O_2  and  C_3
REMARK    3  A    between atoms: C_8  and  C_9
REMARK    4  A    between atoms: C_9  and  C_11
REMARK    5  A    between atoms: C_12  and  C_13
REMARK                            x       y       z     vdW  Elec       q    Type
REMARK                         _______ _______ _______ _____ _____    ______ ____
ROOT
ATOM      1  C   UNL     1       7.376   8.568  17.557  0.00  0.00    +0.000 C 
ATOM      2  C   UNL     1       8.496   8.801  18.261  0.00  0.00    +0.000 C 
ENDROOT
BRANCH   2   3
ATOM      3  C   UNL     1       9.081  10.092  18.672  0.00  0.00    +0.000 A 
ATOM      4  C   UNL     1       9.215  10.322  20.049  0.00  0.00    +0.000 A 
ATOM      5  C   UNL     1       9.919  11.430  20.532  0.00  0.00    +0.000 A 
ATOM      6  C   UNL     1      10.499  12.345  19.648  0.00  0.00    +0.000 A 
ATOM      7  C   UNL     1      11.287  13.405  20.120  0.00  0.00    +0.000 A 
ATOM      8  C   UNL     1      11.858  14.316  19.232  0.00  0.00    +0.000 A 
ATOM      9  C   UNL     1      11.619  14.195  17.867  0.00  0.00    +0.000 A 
ATOM     10  C   UNL     1      10.845  13.136  17.382  0.00  0.00    +0.000 A 
ATOM     11  C   UNL     1      10.299  12.180  18.257  0.00  0.00    +0.000 A 
ATOM     12  C   UNL     1       9.592  11.050  17.787  0.00  0.00    +0.000 A 
ENDBRANCH   2   3
BRANCH   1  13
ATOM     13  C   UNL     1       7.104   7.153  17.150  0.00  0.00    +0.000 C 
ATOM     14  O   UNL     1       7.753   6.618  16.254  0.00  0.00    +0.000 OA
BRANCH  13  20
ATOM     15  C   UNL     1       6.136   5.251  18.565  0.00  0.00    +0.000 A 
ATOM     16  C   UNL     1       4.991   4.539  18.957  0.00  0.00    +0.000 A 
ATOM     17  C   UNL     1       3.711   4.982  18.608  0.00  0.00    +0.000 A 
ATOM     18  C   UNL     1       3.558   6.139  17.855  0.00  0.00    +0.000 A 
ATOM     19  C   UNL     1       4.687   6.834  17.427  0.00  0.00    +0.000 A 
ATOM     20  C   UNL     1       5.982   6.395  17.766  0.00  0.00    +0.000 A 
BRANCH  15  22
ATOM     21  C   UNL     1       8.033   5.498  19.966  0.00  0.00    +0.000 C 
ATOM     22  O   UNL     1       7.404   4.833  18.873  0.00  0.00    +0.000 OA
ENDBRANCH  15  22
ENDBRANCH  13  20
ENDBRANCH   1  13
TORSDOF 4
ENDMDL
MODEL 4
REMARK VINA RESULT:      -7.8      0.993      1.807
REMARK  Name = 
REMARK  5 active torsions:
REMARK  status: ('A' for Active; 'I' for Inactive)
REMARK    1  A    between atoms: C_1  and  O_2
REMARK    2  A    between atoms: O_2  and  C_3
REMARK    3  A    between atoms: C_8  and  C_9
REMARK    4  A    between atoms: C_9  and  C_11
REMARK    5  A    between atoms: C_12  and  C_13
REMARK                            x       y       z     vdW  Elec       q    Type
REMARK                         _______ _______ _______ _____ _____    ______ ____
ROOT
ATOM      1  C   UNL     1       4.244   5.395  19.438  0.00  0.00    +0.000 C 
ATOM      2  C   UNL     1       3.155   5.915  18.848  0.00  0.00    +0.000 C 
ENDROOT
BRANCH   2   3
ATOM      3  C   UNL     1       2.302   7.032  19.298  0.00  0.00    +0.000 A 
ATOM      4  C   UNL     1       1.774   6.951  20.595  0.00  0.00    +0.000 A 
ATOM      5  C   UNL     1       1.108   8.035  21.174  0.00  0.00    +0.000 A 
ATOM      6  C   UNL     1       0.942   9.229  20.466  0.00  0.00    +0.000 A 
ATOM      7  C   UNL     1       0.361  10.353  21.071  0.00  0.00    +0.000 A 
ATOM      8  C   UNL     1       0.195  11.539  20.356  0.00  0.00    +0.000 A 
ATOM      9  C   UNL     1       0.577  11.601  19.019  0.00  0.00    +0.000 A 
ATOM     10  C   UNL     1       1.168  10.491  18.408  0.00  0.00    +0.000 A 
ATOM     11  C   UNL     1       1.387   9.302  19.124  0.00  0.00    +0.000 A 
ATOM     12  C   UNL     1       2.066   8.199  18.558  0.00  0.00    +0.000 A 
ENDBRANCH   2   3
BRANCH   1  13
ATOM     13  C   UNL     1       4.825   4.156  18.831  0.00  0.00    +0.000 C 
ATOM     14  O   UNL     1       4.765   3.077  19.416  0.00  0.00    +0.000 OA
BRANCH  13  20
ATOM     15  C   UNL     1       6.923   4.565  17.421  0.00  0.00    +0.000 A 
ATOM     16  C   UNL     1       7.464   4.746  16.138  0.00  0.00    +0.000 A 
ATOM     17  C   UNL     1       6.688   4.544  14.993  0.00  0.00    +0.000 A 
ATOM     18  C   UNL     1       5.358   4.165  15.113  0.00  0.00    +0.000 A 
ATOM     19  C   UNL     1       4.798   4.018  16.380  0.00  0.00    +0.000 A 
ATOM     20  C   UNL     1       5.567   4.226  17.542  0.00  0.00    +0.000 A 
BRANCH  15  22
ATOM     21  C   UNL     1       7.934   6.135  18.882  0.00  0.00    +0.000 C 
ATOM     22  O   UNL     1       7.650   4.775  18.563  0.00  0.00    +0.000 OA
ENDBRANCH  15  22
ENDBRANCH  13  20
ENDBRANCH   1  13
TORSDOF 4
ENDMDL
MODEL 5
REMARK VINA RESULT:      -7.7      5.582      7.257
REMARK  Name = 
REMARK  5 active torsions:
REMARK  status: ('A' for Active; 'I' for Inactive)
REMARK    1  A    between atoms: C_1  and  O_2
REMARK    2  A    between atoms: O_2  and  C_3
REMARK    3  A    between atoms: C_8  and  C_9
REMARK    4  A    between atoms: C_9  and  C_11
REMARK    5  A    between atoms: C_12  and  C_13
REMARK                            x       y       z     vdW  Elec       q    Type
REMARK                         _______ _______ _______ _____ _____    ______ ____
ROOT
ATOM      1  C   UNL     1       7.777   8.171  17.593  0.00  0.00    +0.000 C 
ATOM      2  C   UNL     1       8.452   8.906  18.492  0.00  0.00    +0.000 C 
ENDROOT
BRANCH   2   3
ATOM      3  C   UNL     1       8.984  10.276  18.357  0.00  0.00    +0.000 A 
ATOM      4  C   UNL     1       8.223  11.186  17.608  0.00  0.00    +0.000 A 
ATOM      5  C   UNL     1       8.548  12.546  17.574  0.00  0.00    +0.000 A 
ATOM      6  C   UNL     1       9.652  13.031  18.280  0.00  0.00    +0.000 A 
ATOM      7  C   UNL     1       9.930  14.405  18.331  0.00  0.00    +0.000 A 
ATOM      8  C   UNL     1      11.037  14.880  19.034  0.00  0.00    +0.000 A 
ATOM      9  C   UNL     1      11.893  13.984  19.666  0.00  0.00    +0.000 A 
ATOM     10  C   UNL     1      11.621  12.614  19.633  0.00  0.00    +0.000 A 
ATOM     11  C   UNL     1      10.485  12.117  18.969  0.00  0.00    +0.000 A 
ATOM     12  C   UNL     1      10.136  10.748  18.999  0.00  0.00    +0.000 A 
ENDBRANCH   2   3
BRANCH   1  13
ATOM     13  C   UNL     1       7.493   6.745  17.950  0.00  0.00    +0.000 C 
ATOM     14  O   UNL     1       8.000   6.230  18.943  0.00  0.00    +0.000 OA
BRANCH  13  20
ATOM     15  C   UNL     1       5.339   5.505  17.336  0.00  0.00    +0.000 A 
ATOM     16  C   UNL     1       4.713   4.578  16.486  0.00  0.00    +0.000 A 
ATOM     17  C   UNL     1       5.364   4.089  15.350  0.00  0.00    +0.000 A 
ATOM     18  C   UNL     1       6.652   4.512  15.050  0.00  0.00    +0.000 A 
ATOM     19  C   UNL     1       7.299   5.402  15.905  0.00  0.00    +0.000 A 
ATOM     20  C   UNL     1       6.657   5.898  17.057  0.00  0.00    +0.000 A 
BRANCH  15  22
ATOM     21  C   UNL     1       4.267   5.009  19.392  0.00  0.00    +0.000 C 
ATOM     22  O   UNL     1       4.737   5.988  18.469  0.00  0.00    +0.000 OA
ENDBRANCH  15  22
ENDBRANCH  13  20
ENDBRANCH   1  13
TORSDOF 4
ENDMDL
MODEL 6
REMARK VINA RESULT:      -7.7      1.793      2.567
REMARK  Name = 
REMARK  5 active torsions:
REMARK  status: ('A' for Active; 'I' for Inactive)
REMARK    1  A    between atoms: C_1  and  O_2
REMARK    2  A    between atoms: O_2  and  C_3
REMARK    3  A    between atoms: C_8  and  C_9
REMARK    4  A    between atoms: C_9  and  C_11
REMARK    5  A    between atoms: C_12  and  C_13
REMARK                            x       y       z     vdW  Elec       q    Type
REMARK                         _______ _______ _______ _____ _____    ______ ____
ROOT
ATOM      1  C   UNL     1       3.542   7.254  17.581  0.00  0.00    +0.000 C 
ATOM      2  C   UNL     1       2.641   7.153  18.572  0.00  0.00    +0.000 C 
ENDROOT
BRANCH   2   3
ATOM      3  C   UNL     1       1.932   8.228  19.294  0.00  0.00    +0.000 A 
ATOM      4  C   UNL     1       1.524   9.340  18.543  0.00  0.00    +0.000 A 
ATOM      5  C   UNL     1       0.693  10.320  19.096  0.00  0.00    +0.000 A 
ATOM      6  C   UNL     1       0.257  10.219  20.420  0.00  0.00    +0.000 A 
ATOM      7  C   UNL     1      -0.653  11.144  20.953  0.00  0.00    +0.000 A 
ATOM      8  C   UNL     1      -1.080  11.038  22.277  0.00  0.00    +0.000 A 
ATOM      9  C   UNL     1      -0.577  10.026  23.088  0.00  0.00    +0.000 A 
ATOM     10  C   UNL     1       0.321   9.091  22.566  0.00  0.00    +0.000 A 
ATOM     11  C   UNL     1       0.729   9.152  21.222  0.00  0.00    +0.000 A 
ATOM     12  C   UNL     1       1.561   8.167  20.644  0.00  0.00    +0.000 A 
ENDBRANCH   2   3
BRANCH   1  13
ATOM     13  C   UNL     1       4.217   5.993  17.138  0.00  0.00    +0.000 C 
ATOM     14  O   UNL     1       4.899   5.968  16.116  0.00  0.00    +0.000 OA
BRANCH  13  20
ATOM     15  C   UNL     1       4.654   4.377  19.074  0.00  0.00    +0.000 A 
ATOM     16  C   UNL     1       4.478   3.084  19.594  0.00  0.00    +0.000 A 
ATOM     17  C   UNL     1       3.626   2.166  18.970  0.00  0.00    +0.000 A 
ATOM     18  C   UNL     1       2.946   2.525  17.814  0.00  0.00    +0.000 A 
ATOM     19  C   UNL     1       3.141   3.791  17.267  0.00  0.00    +0.000 A 
ATOM     20  C   UNL     1       4.001   4.723  17.882  0.00  0.00    +0.000 A 
BRANCH  15  22
ATOM     21  C   UNL     1       6.833   5.308  19.155  0.00  0.00    +0.000 C 
ATOM     22  O   UNL     1       5.496   5.292  19.649  0.00  0.00    +0.000 OA
ENDBRANCH  15  22
ENDBRANCH  13  20
ENDBRANCH   1  13
TORSDOF 4
ENDMDL
MODEL 7
REMARK VINA RESULT:      -7.5      1.346      2.427
REMARK  Name = 
REMARK  5 active torsions:
REMARK  status: ('A' for Active; 'I' for Inactive)
REMARK    1  A    between atoms: C_1  and  O_2
REMARK    2  A    between atoms: O_2  and  C_3
REMARK    3  A    between atoms: C_8  and  C_9
REMARK    4  A    between atoms: C_9  and  C_11
REMARK    5  A    between atoms: C_12  and  C_13
REMARK                            x       y       z     vdW  Elec       q    Type
REMARK                         _______ _______ _______ _____ _____    ______ ____
ROOT
ATOM      1  C   UNL     1       2.427   6.212  18.111  0.00  0.00    +0.000 C 
ATOM      2  C   UNL     1       2.612   6.891  19.254  0.00  0.00    +0.000 C 
ENDROOT
BRANCH   2   3
ATOM      3  C   UNL     1       1.870   8.059  19.768  0.00  0.00    +0.000 A 
ATOM      4  C   UNL     1       1.513   9.049  18.840  0.00  0.00    +0.000 A 
ATOM      5  C   UNL     1       0.658  10.097  19.194  0.00  0.00    +0.000 A 
ATOM      6  C   UNL     1       0.145  10.191  20.490  0.00  0.00    +0.000 A 
ATOM      7  C   UNL     1      -0.788  11.182  20.828  0.00  0.00    +0.000 A 
ATOM      8  C   UNL     1      -1.293  11.271  22.125  0.00  0.00    +0.000 A 
ATOM      9  C   UNL     1      -0.844  10.390  23.104  0.00  0.00    +0.000 A 
ATOM     10  C   UNL     1       0.076   9.390  22.778  0.00  0.00    +0.000 A 
ATOM     11  C   UNL     1       0.562   9.254  21.466  0.00  0.00    +0.000 A 
ATOM     12  C   UNL     1       1.420   8.196  21.088  0.00  0.00    +0.000 A 
ENDBRANCH   2   3
BRANCH   1  13
ATOM     13  C   UNL     1       3.434   5.156  17.772  0.00  0.00    +0.000 C 
ATOM     14  O   UNL     1       3.079   4.025  17.449  0.00  0.00    +0.000 OA
BRANCH  13  20
ATOM     15  C   UNL     1       5.746   5.729  16.832  0.00  0.00    +0.000 A 
ATOM     16  C   UNL     1       7.127   5.820  17.072  0.00  0.00    +0.000 A 
ATOM     17  C   UNL     1       7.645   5.673  18.362  0.00  0.00    +0.000 A 
ATOM     18  C   UNL     1       6.793   5.425  19.430  0.00  0.00    +0.000 A 
ATOM     19  C   UNL     1       5.425   5.296  19.201  0.00  0.00    +0.000 A 
ATOM     20  C   UNL     1       4.890   5.435  17.905  0.00  0.00    +0.000 A 
BRANCH  15  22
ATOM     21  C   UNL     1       5.515   4.798  14.664  0.00  0.00    +0.000 C 
ATOM     22  O   UNL     1       5.208   5.848  15.578  0.00  0.00    +0.000 OA
ENDBRANCH  15  22
ENDBRANCH  13  20
ENDBRANCH   1  13
TORSDOF 4
ENDMDL
MODEL 8
REMARK VINA RESULT:      -7.5      1.161      2.080
REMARK  Name = 
REMARK  5 active torsions:
REMARK  status: ('A' for Active; 'I' for Inactive)
REMARK    1  A    between atoms: C_1  and  O_2
REMARK    2  A    between atoms: O_2  and  C_3
REMARK    3  A    between atoms: C_8  and  C_9
REMARK    4  A    between atoms: C_9  and  C_11
REMARK    5  A    between atoms: C_12  and  C_13
REMARK                            x       y       z     vdW  Elec       q    Type
REMARK                         _______ _______ _______ _____ _____    ______ ____
ROOT
ATOM      1  C   UNL     1       2.494   5.350  18.197  0.00  0.00    +0.000 C 
ATOM      2  C   UNL     1       2.929   6.613  18.332  0.00  0.00    +0.000 C 
ENDROOT
BRANCH   2   3
ATOM      3  C   UNL     1       2.207   7.792  18.849  0.00  0.00    +0.000 A 
ATOM      4  C   UNL     1       1.802   8.755  17.912  0.00  0.00    +0.000 A 
ATOM      5  C   UNL     1       0.961   9.810  18.278  0.00  0.00    +0.000 A 
ATOM      6  C   UNL     1       0.509   9.937  19.595  0.00  0.00    +0.000 A 
ATOM      7  C   UNL     1      -0.411  10.934  19.950  0.00  0.00    +0.000 A 
ATOM      8  C   UNL     1      -0.854  11.056  21.266  0.00  0.00    +0.000 A 
ATOM      9  C   UNL     1      -0.355  10.204  22.247  0.00  0.00    +0.000 A 
ATOM     10  C   UNL     1       0.553   9.198  21.904  0.00  0.00    +0.000 A 
ATOM     11  C   UNL     1       0.976   9.028  20.574  0.00  0.00    +0.000 A 
ATOM     12  C   UNL     1       1.820   7.963  20.185  0.00  0.00    +0.000 A 
ENDBRANCH   2   3
BRANCH   1  13
ATOM     13  C   UNL     1       3.399   4.385  17.495  0.00  0.00    +0.000 C 
ATOM     14  O   UNL     1       2.951   3.370  16.968  0.00  0.00    +0.000 OA
BRANCH  13  20
ATOM     15  C   UNL     1       5.685   4.558  16.356  0.00  0.00    +0.000 A 
ATOM     16  C   UNL     1       7.079   4.618  16.514  0.00  0.00    +0.000 A 
ATOM     17  C   UNL     1       7.656   4.765  17.780  0.00  0.00    +0.000 A 
ATOM     18  C   UNL     1       6.848   4.847  18.906  0.00  0.00    +0.000 A 
ATOM     19  C   UNL     1       5.465   4.750  18.768  0.00  0.00    +0.000 A 
ATOM     20  C   UNL     1       4.872   4.595  17.499  0.00  0.00    +0.000 A 
BRANCH  15  22
ATOM     21  C   UNL     1       5.951   4.009  14.065  0.00  0.00    +0.000 C 
ATOM     22  O   UNL     1       5.089   4.394  15.133  0.00  0.00    +0.000 OA
ENDBRANCH  15  22
ENDBRANCH  13  20
ENDBRANCH   1  13
TORSDOF 4
ENDMDL
MODEL 9
REMARK VINA RESULT:      -7.5      1.644      2.254
REMARK  Name = 
REMARK  5 active torsions:
REMARK  status: ('A' for Active; 'I' for Inactive)
REMARK    1  A    between atoms: C_1  and  O_2
REMARK    2  A    between atoms: O_2  and  C_3
REMARK    3  A    between atoms: C_8  and  C_9
REMARK    4  A    between atoms: C_9  and  C_11
REMARK    5  A    between atoms: C_12  and  C_13
REMARK                            x       y       z     vdW  Elec       q    Type
REMARK                         _______ _______ _______ _____ _____    ______ ____
ROOT
ATOM      1  C   UNL     1       2.420   6.626  18.004  0.00  0.00    +0.000 C 
ATOM      2  C   UNL     1       2.439   7.091  19.264  0.00  0.00    +0.000 C 
ENDROOT
BRANCH   2   3
ATOM      3  C   UNL     1       1.730   8.254  19.832  0.00  0.00    +0.000 A 
ATOM      4  C   UNL     1       1.446   9.318  18.962  0.00  0.00    +0.000 A 
ATOM      5  C   UNL     1       0.625  10.377  19.360  0.00  0.00    +0.000 A 
ATOM      6  C   UNL     1       0.074  10.408  20.644  0.00  0.00    +0.000 A 
ATOM      7  C   UNL     1      -0.826  11.416  21.019  0.00  0.00    +0.000 A 
ATOM      8  C   UNL     1      -1.368  11.442  22.304  0.00  0.00    +0.000 A 
ATOM      9  C   UNL     1      -0.989  10.480  23.236  0.00  0.00    +0.000 A 
ATOM     10  C   UNL     1      -0.101   9.464  22.870  0.00  0.00    +0.000 A 
ATOM     11  C   UNL     1       0.420   9.392  21.567  0.00  0.00    +0.000 A 
ATOM     12  C   UNL     1       1.244   8.325  21.145  0.00  0.00    +0.000 A 
ENDBRANCH   2   3
BRANCH   1  13
ATOM     13  C   UNL     1       3.363   5.511  17.672  0.00  0.00    +0.000 C 
ATOM     14  O   UNL     1       2.948   4.447  17.218  0.00  0.00    +0.000 OA
BRANCH  13  20
ATOM     15  C   UNL     1       5.456   5.059  19.076  0.00  0.00    +0.000 A 
ATOM     16  C   UNL     1       6.799   5.383  19.329  0.00  0.00    +0.000 A 
ATOM     17  C   UNL     1       7.510   6.228  18.471  0.00  0.00    +0.000 A 
ATOM     18  C   UNL     1       6.887   6.767  17.353  0.00  0.00    +0.000 A 
ATOM     19  C   UNL     1       5.545   6.483  17.111  0.00  0.00    +0.000 A 
ATOM     20  C   UNL     1       4.815   5.639  17.971  0.00  0.00    +0.000 A 
BRANCH  15  22
ATOM     21  C   UNL     1       4.714   2.864  19.581  0.00  0.00    +0.000 C 
ATOM     22  O   UNL     1       4.725   4.251  19.908  0.00  0.00    +0.000 OA
ENDBRANCH  15  22
ENDBRANCH  13  20
ENDBRANCH   1  13
TORSDOF 4
ENDMDL
