MODEL 1
REMARK VINA RESULT:      -8.6      0.000      0.000
REMARK  Name = 
REMARK  7 active torsions:
REMARK  status: ('A' for Active; 'I' for Inactive)
REMARK    1  A    between atoms: C_2  and  C_11
REMARK    2  A    between atoms: N_3  and  C_4
REMARK    3  A    between atoms: C_4  and  C_5
REMARK    4  A    between atoms: C_5  and  N_6
REMARK    5  A    between atoms: C_17  and  C_18
REMARK    6  A    between atoms: C_29  and  C_30
REMARK    7  A    between atoms: C_30  and  O_31
REMARK                            x       y       z     vdW  Elec       q    Type
REMARK                         _______ _______ _______ _____ _____    ______ ____
ROOT
ATOM      1  C   UNL     1       7.292   6.262  17.666  0.00  0.00    +0.000 C 
ATOM      2  N   UNL     1       6.422   5.874  18.815  0.00  0.00    +0.000 NA
ATOM      3  C   UNL     1       5.190   5.247  18.291  0.00  0.00    +0.000 C 
ATOM      4  C   UNL     1       3.953   5.933  18.778  0.00  0.00    +0.000 A 
ATOM      5  C   UNL     1       3.207   5.675  19.856  0.00  0.00    +0.000 A 
ATOM      6  C   UNL     1       2.186   6.624  20.238  0.00  0.00    +0.000 A 
ATOM      7  C   UNL     1       1.966   7.763  19.545  0.00  0.00    +0.000 A 
ATOM      8  C   UNL     1       2.682   7.930  18.210  0.00  0.00    +0.000 A 
ATOM      9  O   UNL     1       2.422   8.851  17.441  0.00  0.00    +0.000 OA
ATOM     10  N   UNL     1       3.624   6.957  17.927  0.00  0.00    +0.000 N 
ATOM     11  C   UNL     1       4.372   6.862  16.677  0.00  0.00    +0.000 C 
ATOM     12  C   UNL     1       5.171   5.543  16.792  0.00  0.00    +0.000 C 
ATOM     13  C   UNL     1       6.654   5.624  16.430  0.00  0.00    +0.000 C 
ATOM     14  H   UNL     1       6.174   6.748  19.299  0.00  0.00    +0.000 HD
ENDROOT
BRANCH   7  15
ATOM     15  C   UNL     1       1.131   8.838  20.134  0.00  0.00    +0.000 A 
ATOM     16  C   UNL     1       0.999   8.944  21.530  0.00  0.00    +0.000 A 
ATOM     17  C   UNL     1       0.164   9.903  22.109  0.00  0.00    +0.000 A 
ATOM     18  C   UNL     1      -0.562  10.776  21.304  0.00  0.00    +0.000 A 
ATOM     19  C   UNL     1      -0.448  10.686  19.916  0.00  0.00    +0.000 A 
ATOM     20  C   UNL     1       0.395   9.734  19.338  0.00  0.00    +0.000 A 
ENDBRANCH   7  15
BRANCH   1  22
ATOM     21  O   UNL     1       6.700   8.466  16.810  0.00  0.00    +0.000 OA
ATOM     22  C   UNL     1       7.425   7.800  17.546  0.00  0.00    +0.000 C 
ATOM     23  N   UNL     1       8.432   8.347  18.326  0.00  0.00    +0.000 N 
ATOM     24  H   UNL     1       8.802   7.775  19.075  0.00  0.00    +0.000 HD
BRANCH  23  25
ATOM     25  C   UNL     1       8.668   9.787  18.383  0.00  0.00    +0.000 C 
BRANCH  25  26
ATOM     26  C   UNL     1       9.340  10.206  19.711  0.00  0.00    +0.000 C 
BRANCH  26  27
ATOM     27  N   UNL     1       9.635  11.643  19.869  0.00  0.00    +0.000 NA
ATOM     28  C   UNL     1       9.352  12.447  18.670  0.00  0.00    +0.000 C 
ATOM     29  C   UNL     1      10.679  13.026  18.207  0.00  0.00    +0.000 C 
ATOM     30  C   UNL     1      11.485  13.105  19.483  0.00  0.00    +0.000 C 
ATOM     31  C   UNL     1      11.049  11.856  20.228  0.00  0.00    +0.000 C 
ENDBRANCH  26  27
ENDBRANCH  25  26
ENDBRANCH  23  25
ENDBRANCH   1  22
BRANCH  13  32
ATOM     32  C   UNL     1       7.264   4.230  16.222  0.00  0.00    +0.000 C 
BRANCH  32  33
ATOM     33  O   UNL     1       8.217   3.990  17.253  0.00  0.00    +0.000 OA
ATOM     34  H   UNL     1       8.201   4.769  17.839  0.00  0.00    +0.000 HD
ENDBRANCH  32  33
ENDBRANCH  13  32
TORSDOF 7
ENDMDL
MODEL 2
REMARK VINA RESULT:      -8.5      0.553      1.083
REMARK  Name = 
REMARK  7 active torsions:
REMARK  status: ('A' for Active; 'I' for Inactive)
REMARK    1  A    between atoms: C_2  and  C_11
REMARK    2  A    between atoms: N_3  and  C_4
REMARK    3  A    between atoms: C_4  and  C_5
REMARK    4  A    between atoms: C_5  and  N_6
REMARK    5  A    between atoms: C_17  and  C_18
REMARK    6  A    between atoms: C_29  and  C_30
REMARK    7  A    between atoms: C_30  and  O_31
REMARK                            x       y       z     vdW  Elec       q    Type
REMARK                         _______ _______ _______ _____ _____    ______ ____
ROOT
ATOM      1  C   UNL     1       7.265   6.271  17.645  0.00  0.00    +0.000 C 
ATOM      2  N   UNL     1       6.416   5.881  18.809  0.00  0.00    +0.000 NA
ATOM      3  C   UNL     1       5.187   5.231  18.308  0.00  0.00    +0.000 C 
ATOM      4  C   UNL     1       3.946   5.903  18.805  0.00  0.00    +0.000 A 
ATOM      5  C   UNL     1       3.219   5.645  19.895  0.00  0.00    +0.000 A 
ATOM      6  C   UNL     1       2.188   6.582  20.281  0.00  0.00    +0.000 A 
ATOM      7  C   UNL     1       1.942   7.710  19.580  0.00  0.00    +0.000 A 
ATOM      8  C   UNL     1       2.637   7.874  18.234  0.00  0.00    +0.000 A 
ATOM      9  O   UNL     1       2.353   8.784  17.459  0.00  0.00    +0.000 OA
ATOM     10  N   UNL     1       3.590   6.913  17.948  0.00  0.00    +0.000 N 
ATOM     11  C   UNL     1       4.323   6.816  16.689  0.00  0.00    +0.000 C 
ATOM     12  C   UNL     1       5.144   5.511  16.806  0.00  0.00    +0.000 C 
ATOM     13  C   UNL     1       6.621   5.611  16.424  0.00  0.00    +0.000 C 
ATOM     14  H   UNL     1       6.162   6.757  19.288  0.00  0.00    +0.000 HD
ENDROOT
BRANCH   7  15
ATOM     15  C   UNL     1       1.099   8.778  20.169  0.00  0.00    +0.000 A 
ATOM     16  C   UNL     1       0.488   9.734  19.338  0.00  0.00    +0.000 A 
ATOM     17  C   UNL     1      -0.255  10.791  19.871  0.00  0.00    +0.000 A 
ATOM     18  C   UNL     1      -0.398  10.919  21.250  0.00  0.00    +0.000 A 
ATOM     19  C   UNL     1       0.203   9.984  22.092  0.00  0.00    +0.000 A 
ATOM     20  C   UNL     1       0.936   8.922  21.559  0.00  0.00    +0.000 A 
ENDBRANCH   7  15
BRANCH   1  22
ATOM     21  O   UNL     1       6.623   8.458  16.782  0.00  0.00    +0.000 OA
ATOM     22  C   UNL     1       7.373   7.809  17.507  0.00  0.00    +0.000 C 
ATOM     23  N   UNL     1       8.389   8.378  18.260  0.00  0.00    +0.000 N 
ATOM     24  H   UNL     1       8.784   7.818  19.006  0.00  0.00    +0.000 HD
BRANCH  23  25
ATOM     25  C   UNL     1       8.605   9.822  18.299  0.00  0.00    +0.000 C 
BRANCH  25  26
ATOM     26  C   UNL     1       9.489  10.237  19.497  0.00  0.00    +0.000 C 
BRANCH  26  27
ATOM     27  N   UNL     1      10.307  11.452  19.314  0.00  0.00    +0.000 NA
ATOM     28  C   UNL     1       9.593  12.704  19.607  0.00  0.00    +0.000 C 
ATOM     29  C   UNL     1       9.539  13.491  18.308  0.00  0.00    +0.000 C 
ATOM     30  C   UNL     1      10.761  13.011  17.562  0.00  0.00    +0.000 C 
ATOM     31  C   UNL     1      10.820  11.541  17.934  0.00  0.00    +0.000 C 
ENDBRANCH  26  27
ENDBRANCH  25  26
ENDBRANCH  23  25
ENDBRANCH   1  22
BRANCH  13  32
ATOM     32  C   UNL     1       7.249   4.224  16.222  0.00  0.00    +0.000 C 
BRANCH  32  33
ATOM     33  O   UNL     1       8.220   4.010  17.241  0.00  0.00    +0.000 OA
ATOM     34  H   UNL     1       7.937   4.531  18.014  0.00  0.00    +0.000 HD
ENDBRANCH  32  33
ENDBRANCH  13  32
TORSDOF 7
ENDMDL
MODEL 3
REMARK VINA RESULT:      -8.2      5.294     10.101
REMARK  Name = 
REMARK  7 active torsions:
REMARK  status: ('A' for Active; 'I' for Inactive)
REMARK    1  A    between atoms: C_2  and  C_11
REMARK    2  A    between atoms: N_3  and  C_4
REMARK    3  A    between atoms: C_4  and  C_5
REMARK    4  A    between atoms: C_5  and  N_6
REMARK    5  A    between atoms: C_17  and  C_18
REMARK    6  A    between atoms: C_29  and  C_30
REMARK    7  A    between atoms: C_30  and  O_31
REMARK                            x       y       z     vdW  Elec       q    Type
REMARK                         _______ _______ _______ _____ _____    ______ ____
ROOT
ATOM      1  C   UNL     1      -1.206  11.942  19.345  0.00  0.00    +0.000 C 
ATOM      2  N   UNL     1      -0.863  11.062  20.500  0.00  0.00    +0.000 NA
ATOM      3  C   UNL     1       0.604  11.062  20.682  0.00  0.00    +0.000 C 
ATOM      4  C   UNL     1       1.181   9.682  20.645  0.00  0.00    +0.000 A 
ATOM      5  C   UNL     1       1.409   8.830  21.647  0.00  0.00    +0.000 A 
ATOM      6  C   UNL     1       1.764   7.465  21.332  0.00  0.00    +0.000 A 
ATOM      7  C   UNL     1       1.867   7.023  20.059  0.00  0.00    +0.000 A 
ATOM      8  C   UNL     1       1.809   8.059  18.943  0.00  0.00    +0.000 A 
ATOM      9  O   UNL     1       2.054   7.773  17.774  0.00  0.00    +0.000 OA
ATOM     10  N   UNL     1       1.484   9.340  19.352  0.00  0.00    +0.000 N 
ATOM     11  C   UNL     1       1.450  10.509  18.478  0.00  0.00    +0.000 C 
ATOM     12  C   UNL     1       1.185  11.704  19.422  0.00  0.00    +0.000 C 
ATOM     13  C   UNL     1       0.088  12.674  18.983  0.00  0.00    +0.000 C 
ATOM     14  H   UNL     1      -1.169  10.113  20.243  0.00  0.00    +0.000 HD
ENDROOT
BRANCH   7  15
ATOM     15  C   UNL     1       1.933   5.568  19.784  0.00  0.00    +0.000 A 
ATOM     16  C   UNL     1       2.652   5.091  18.675  0.00  0.00    +0.000 A 
ATOM     17  C   UNL     1       2.674   3.732  18.352  0.00  0.00    +0.000 A 
ATOM     18  C   UNL     1       1.971   2.818  19.131  0.00  0.00    +0.000 A 
ATOM     19  C   UNL     1       1.247   3.269  20.235  0.00  0.00    +0.000 A 
ATOM     20  C   UNL     1       1.234   4.627  20.563  0.00  0.00    +0.000 A 
ENDBRANCH   7  15
BRANCH   1  22
ATOM     21  O   UNL     1      -1.855   9.903  18.179  0.00  0.00    +0.000 OA
ATOM     22  C   UNL     1      -1.785  11.129  18.161  0.00  0.00    +0.000 C 
ATOM     23  N   UNL     1      -2.200  11.903  17.089  0.00  0.00    +0.000 N 
ATOM     24  H   UNL     1      -2.340  12.892  17.255  0.00  0.00    +0.000 HD
BRANCH  23  25
ATOM     25  C   UNL     1      -2.824  11.314  15.907  0.00  0.00    +0.000 C 
BRANCH  25  26
ATOM     26  C   UNL     1      -4.352  11.161  16.080  0.00  0.00    +0.000 C 
BRANCH  26  27
ATOM     27  N   UNL     1      -4.936  11.768  17.291  0.00  0.00    +0.000 NA
ATOM     28  C   UNL     1      -5.396  10.790  18.288  0.00  0.00    +0.000 C 
ATOM     29  C   UNL     1      -6.899  10.972  18.420  0.00  0.00    +0.000 C 
ATOM     30  C   UNL     1      -7.105  12.423  18.051  0.00  0.00    +0.000 C 
ATOM     31  C   UNL     1      -6.082  12.632  16.949  0.00  0.00    +0.000 C 
ENDBRANCH  26  27
ENDBRANCH  25  26
ENDBRANCH  23  25
ENDBRANCH   1  22
BRANCH  13  32
ATOM     32  C   UNL     1       0.148  13.991  19.771  0.00  0.00    +0.000 C 
BRANCH  32  33
ATOM     33  O   UNL     1      -0.825  14.886  19.240  0.00  0.00    +0.000 OA
ATOM     34  H   UNL     1      -1.611  14.352  19.024  0.00  0.00    +0.000 HD
ENDBRANCH  32  33
ENDBRANCH  13  32
TORSDOF 7
ENDMDL
MODEL 4
REMARK VINA RESULT:      -8.0      3.787      5.073
REMARK  Name = 
REMARK  7 active torsions:
REMARK  status: ('A' for Active; 'I' for Inactive)
REMARK    1  A    between atoms: C_2  and  C_11
REMARK    2  A    between atoms: N_3  and  C_4
REMARK    3  A    between atoms: C_4  and  C_5
REMARK    4  A    between atoms: C_5  and  N_6
REMARK    5  A    between atoms: C_17  and  C_18
REMARK    6  A    between atoms: C_29  and  C_30
REMARK    7  A    between atoms: C_30  and  O_31
REMARK                            x       y       z     vdW  Elec       q    Type
REMARK                         _______ _______ _______ _____ _____    ______ ____
ROOT
ATOM      1  C   UNL     1       4.522   3.724  19.629  0.00  0.00    +0.000 C 
ATOM      2  N   UNL     1       3.609   4.438  20.568  0.00  0.00    +0.000 NA
ATOM      3  C   UNL     1       2.275   4.556  19.942  0.00  0.00    +0.000 C 
ATOM      4  C   UNL     1       1.807   5.974  19.865  0.00  0.00    +0.000 A 
ATOM      5  C   UNL     1       1.074   6.675  20.735  0.00  0.00    +0.000 A 
ATOM      6  C   UNL     1       0.942   8.101  20.542  0.00  0.00    +0.000 A 
ATOM      7  C   UNL     1       1.540   8.747  19.517  0.00  0.00    +0.000 A 
ATOM      8  C   UNL     1       2.190   7.902  18.430  0.00  0.00    +0.000 A 
ATOM      9  O   UNL     1       2.614   8.393  17.387  0.00  0.00    +0.000 OA
ATOM     10  N   UNL     1       2.247   6.546  18.699  0.00  0.00    +0.000 N 
ATOM     11  C   UNL     1       2.748   5.534  17.774  0.00  0.00    +0.000 C 
ATOM     12  C   UNL     1       2.465   4.184  18.472  0.00  0.00    +0.000 C 
ATOM     13  C   UNL     1       3.627   3.191  18.507  0.00  0.00    +0.000 C 
ATOM     14  H   UNL     1       4.004   5.381  20.695  0.00  0.00    +0.000 HD
ENDROOT
BRANCH   7  15
ATOM     15  C   UNL     1       1.630  10.227  19.528  0.00  0.00    +0.000 A 
ATOM     16  C   UNL     1       1.180  10.954  20.644  0.00  0.00    +0.000 A 
ATOM     17  C   UNL     1       1.189  12.351  20.653  0.00  0.00    +0.000 A 
ATOM     18  C   UNL     1       1.644  13.054  19.541  0.00  0.00    +0.000 A 
ATOM     19  C   UNL     1       2.092  12.353  18.422  0.00  0.00    +0.000 A 
ATOM     20  C   UNL     1       2.093  10.957  18.417  0.00  0.00    +0.000 A 
ENDBRANCH   7  15
BRANCH   1  22
ATOM     21  O   UNL     1       5.790   5.802  19.517  0.00  0.00    +0.000 OA
ATOM     22  C   UNL     1       5.646   4.653  19.108  0.00  0.00    +0.000 C 
ATOM     23  N   UNL     1       6.456   4.079  18.140  0.00  0.00    +0.000 N 
ATOM     24  H   UNL     1       6.427   3.071  18.048  0.00  0.00    +0.000 HD
BRANCH  23  25
ATOM     25  C   UNL     1       7.601   4.785  17.573  0.00  0.00    +0.000 C 
BRANCH  25  26
ATOM     26  C   UNL     1       7.173   6.079  16.843  0.00  0.00    +0.000 C 
BRANCH  26  27
ATOM     27  N   UNL     1       6.720   5.921  15.447  0.00  0.00    +0.000 NA
ATOM     28  C   UNL     1       5.270   5.715  15.309  0.00  0.00    +0.000 C 
ATOM     29  C   UNL     1       5.080   4.334  14.703  0.00  0.00    +0.000 C 
ATOM     30  C   UNL     1       6.352   4.123  13.917  0.00  0.00    +0.000 C 
ATOM     31  C   UNL     1       7.398   4.784  14.797  0.00  0.00    +0.000 C 
ENDBRANCH  26  27
ENDBRANCH  25  26
ENDBRANCH  23  25
ENDBRANCH   1  22
BRANCH  13  32
ATOM     32  C   UNL     1       3.155   1.778  18.880  0.00  0.00    +0.000 C 
BRANCH  32  33
ATOM     33  O   UNL     1       4.190   0.852  18.565  0.00  0.00    +0.000 OA
ATOM     34  H   UNL     1       3.884  -0.025  18.863  0.00  0.00    +0.000 HD
ENDBRANCH  32  33
ENDBRANCH  13  32
TORSDOF 7
ENDMDL
MODEL 5
REMARK VINA RESULT:      -7.9      3.737      5.215
REMARK  Name = 
REMARK  7 active torsions:
REMARK  status: ('A' for Active; 'I' for Inactive)
REMARK    1  A    between atoms: C_2  and  C_11
REMARK    2  A    between atoms: N_3  and  C_4
REMARK    3  A    between atoms: C_4  and  C_5
REMARK    4  A    between atoms: C_5  and  N_6
REMARK    5  A    between atoms: C_17  and  C_18
REMARK    6  A    between atoms: C_29  and  C_30
REMARK    7  A    between atoms: C_30  and  O_31
REMARK                            x       y       z     vdW  Elec       q    Type
REMARK                         _______ _______ _______ _____ _____    ______ ____
ROOT
ATOM      1  C   UNL     1       4.396   4.024  19.749  0.00  0.00    +0.000 C 
ATOM      2  N   UNL     1       3.544   4.823  20.677  0.00  0.00    +0.000 NA
ATOM      3  C   UNL     1       2.186   4.934  20.105  0.00  0.00    +0.000 C 
ATOM      4  C   UNL     1       1.748   6.356  19.954  0.00  0.00    +0.000 A 
ATOM      5  C   UNL     1       1.072   7.131  20.806  0.00  0.00    +0.000 A 
ATOM      6  C   UNL     1       0.965   8.545  20.524  0.00  0.00    +0.000 A 
ATOM      7  C   UNL     1       1.530   9.106  19.433  0.00  0.00    +0.000 A 
ATOM      8  C   UNL     1       2.110   8.174  18.377  0.00  0.00    +0.000 A 
ATOM      9  O   UNL     1       2.497   8.584  17.285  0.00  0.00    +0.000 OA
ATOM     10  N   UNL     1       2.148   6.838  18.734  0.00  0.00    +0.000 N 
ATOM     11  C   UNL     1       2.581   5.754  17.858  0.00  0.00    +0.000 C 
ATOM     12  C   UNL     1       2.300   4.461  18.656  0.00  0.00    +0.000 C 
ATOM     13  C   UNL     1       3.439   3.442  18.706  0.00  0.00    +0.000 C 
ATOM     14  H   UNL     1       3.967   5.761  20.724  0.00  0.00    +0.000 HD
ENDROOT
BRANCH   7  15
ATOM     15  C   UNL     1       1.655  10.581  19.340  0.00  0.00    +0.000 A 
ATOM     16  C   UNL     1       2.313  11.166  18.245  0.00  0.00    +0.000 A 
ATOM     17  C   UNL     1       2.506  12.548  18.166  0.00  0.00    +0.000 A 
ATOM     18  C   UNL     1       2.049  13.376  19.186  0.00  0.00    +0.000 A 
ATOM     19  C   UNL     1       1.396  12.816  20.285  0.00  0.00    +0.000 A 
ATOM     20  C   UNL     1       1.194  11.436  20.358  0.00  0.00    +0.000 A 
ENDBRANCH   7  15
BRANCH   1  22
ATOM     21  O   UNL     1       5.575   6.104  19.274  0.00  0.00    +0.000 OA
ATOM     22  C   UNL     1       5.516   4.887  19.117  0.00  0.00    +0.000 C 
ATOM     23  N   UNL     1       6.428   4.169  18.359  0.00  0.00    +0.000 N 
ATOM     24  H   UNL     1       6.452   3.165  18.488  0.00  0.00    +0.000 HD
BRANCH  23  25
ATOM     25  C   UNL     1       7.583   4.806  17.733  0.00  0.00    +0.000 C 
BRANCH  25  26
ATOM     26  C   UNL     1       7.189   6.100  16.985  0.00  0.00    +0.000 C 
BRANCH  26  27
ATOM     27  N   UNL     1       6.720   5.934  15.596  0.00  0.00    +0.000 NA
ATOM     28  C   UNL     1       5.257   5.850  15.464  0.00  0.00    +0.000 C 
ATOM     29  C   UNL     1       4.945   4.471  14.908  0.00  0.00    +0.000 C 
ATOM     30  C   UNL     1       6.193   4.123  14.130  0.00  0.00    +0.000 C 
ATOM     31  C   UNL     1       7.295   4.720  14.986  0.00  0.00    +0.000 C 
ENDBRANCH  26  27
ENDBRANCH  25  26
ENDBRANCH  23  25
ENDBRANCH   1  22
BRANCH  13  32
ATOM     32  C   UNL     1       2.951   2.070  19.194  0.00  0.00    +0.000 C 
BRANCH  32  33
ATOM     33  O   UNL     1       2.208   1.450  18.148  0.00  0.00    +0.000 OA
ATOM     34  H   UNL     1       2.480   0.514  18.126  0.00  0.00    +0.000 HD
ENDBRANCH  32  33
ENDBRANCH  13  32
TORSDOF 7
ENDMDL
MODEL 6
REMARK VINA RESULT:      -7.8      3.963      5.444
REMARK  Name = 
REMARK  7 active torsions:
REMARK  status: ('A' for Active; 'I' for Inactive)
REMARK    1  A    between atoms: C_2  and  C_11
REMARK    2  A    between atoms: N_3  and  C_4
REMARK    3  A    between atoms: C_4  and  C_5
REMARK    4  A    between atoms: C_5  and  N_6
REMARK    5  A    between atoms: C_17  and  C_18
REMARK    6  A    between atoms: C_29  and  C_30
REMARK    7  A    between atoms: C_30  and  O_31
REMARK                            x       y       z     vdW  Elec       q    Type
REMARK                         _______ _______ _______ _____ _____    ______ ____
ROOT
ATOM      1  C   UNL     1       5.021   4.309  19.368  0.00  0.00    +0.000 C 
ATOM      2  N   UNL     1       4.205   5.044  20.378  0.00  0.00    +0.000 NA
ATOM      3  C   UNL     1       2.781   4.976  19.984  0.00  0.00    +0.000 C 
ATOM      4  C   UNL     1       2.163   6.332  19.853  0.00  0.00    +0.000 A 
ATOM      5  C   UNL     1       1.513   7.060  20.764  0.00  0.00    +0.000 A 
ATOM      6  C   UNL     1       1.206   8.440  20.461  0.00  0.00    +0.000 A 
ATOM      7  C   UNL     1       1.558   9.015  19.290  0.00  0.00    +0.000 A 
ATOM      8  C   UNL     1       2.107   8.112  18.193  0.00  0.00    +0.000 A 
ATOM      9  O   UNL     1       2.302   8.517  17.050  0.00  0.00    +0.000 OA
ATOM     10  N   UNL     1       2.346   6.805  18.578  0.00  0.00    +0.000 N 
ATOM     11  C   UNL     1       2.791   5.741  17.683  0.00  0.00    +0.000 C 
ATOM     12  C   UNL     1       2.767   4.459  18.546  0.00  0.00    +0.000 C 
ATOM     13  C   UNL     1       4.015   3.579  18.475  0.00  0.00    +0.000 C 
ATOM     14  H   UNL     1       4.516   6.025  20.343  0.00  0.00    +0.000 HD
ENDROOT
BRANCH   7  15
ATOM     15  C   UNL     1       1.496  10.489  19.142  0.00  0.00    +0.000 A 
ATOM     16  C   UNL     1       0.515  11.227  19.829  0.00  0.00    +0.000 A 
ATOM     17  C   UNL     1       0.390  12.607  19.654  0.00  0.00    +0.000 A 
ATOM     18  C   UNL     1       1.241  13.281  18.783  0.00  0.00    +0.000 A 
ATOM     19  C   UNL     1       2.219  12.569  18.089  0.00  0.00    +0.000 A 
ATOM     20  C   UNL     1       2.351  11.191  18.273  0.00  0.00    +0.000 A 
ENDBRANCH   7  15
BRANCH   1  22
ATOM     21  O   UNL     1       6.487   6.237  19.094  0.00  0.00    +0.000 OA
ATOM     22  C   UNL     1       5.943   5.266  18.574  0.00  0.00    +0.000 C 
ATOM     23  N   UNL     1       6.086   4.937  17.235  0.00  0.00    +0.000 N 
ATOM     24  H   UNL     1       5.817   4.002  16.954  0.00  0.00    +0.000 HD
BRANCH  23  25
ATOM     25  C   UNL     1       6.961   5.693  16.343  0.00  0.00    +0.000 C 
BRANCH  25  26
ATOM     26  C   UNL     1       7.473   4.827  15.170  0.00  0.00    +0.000 C 
BRANCH  26  27
ATOM     27  N   UNL     1       6.802   5.026  13.870  0.00  0.00    +0.000 NA
ATOM     28  C   UNL     1       5.838   3.970  13.526  0.00  0.00    +0.000 C 
ATOM     29  C   UNL     1       6.359   3.293  12.270  0.00  0.00    +0.000 C 
ATOM     30  C   UNL     1       7.161   4.382  11.597  0.00  0.00    +0.000 C 
ATOM     31  C   UNL     1       7.787   5.107  12.775  0.00  0.00    +0.000 C 
ENDBRANCH  26  27
ENDBRANCH  25  26
ENDBRANCH  23  25
ENDBRANCH   1  22
BRANCH  13  32
ATOM     32  C   UNL     1       3.758   2.182  19.058  0.00  0.00    +0.000 C 
BRANCH  32  33
ATOM     33  O   UNL     1       4.852   1.830  19.900  0.00  0.00    +0.000 OA
ATOM     34  H   UNL     1       4.700   0.912  20.191  0.00  0.00    +0.000 HD
ENDBRANCH  32  33
ENDBRANCH  13  32
TORSDOF 7
ENDMDL
MODEL 7
REMARK VINA RESULT:      -7.8      0.774      1.219
REMARK  Name = 
REMARK  7 active torsions:
REMARK  status: ('A' for Active; 'I' for Inactive)
REMARK    1  A    between atoms: C_2  and  C_11
REMARK    2  A    between atoms: N_3  and  C_4
REMARK    3  A    between atoms: C_4  and  C_5
REMARK    4  A    between atoms: C_5  and  N_6
REMARK    5  A    between atoms: C_17  and  C_18
REMARK    6  A    between atoms: C_29  and  C_30
REMARK    7  A    between atoms: C_30  and  O_31
REMARK                            x       y       z     vdW  Elec       q    Type
REMARK                         _______ _______ _______ _____ _____    ______ ____
ROOT
ATOM      1  C   UNL     1       7.217   6.138  17.545  0.00  0.00    +0.000 C 
ATOM      2  N   UNL     1       6.391   5.749  18.726  0.00  0.00    +0.000 NA
ATOM      3  C   UNL     1       5.139   5.125  18.250  0.00  0.00    +0.000 C 
ATOM      4  C   UNL     1       3.923   5.812  18.786  0.00  0.00    +0.000 A 
ATOM      5  C   UNL     1       3.220   5.554  19.892  0.00  0.00    +0.000 A 
ATOM      6  C   UNL     1       2.216   6.503  20.315  0.00  0.00    +0.000 A 
ATOM      7  C   UNL     1       1.971   7.644  19.633  0.00  0.00    +0.000 A 
ATOM      8  C   UNL     1       2.633   7.811  18.271  0.00  0.00    +0.000 A 
ATOM      9  O   UNL     1       2.345   8.734  17.514  0.00  0.00    +0.000 OA
ATOM     10  N   UNL     1       3.562   6.838  17.950  0.00  0.00    +0.000 N 
ATOM     11  C   UNL     1       4.261   6.743  16.672  0.00  0.00    +0.000 C 
ATOM     12  C   UNL     1       5.062   5.423  16.753  0.00  0.00    +0.000 C 
ATOM     13  C   UNL     1       6.530   5.502  16.334  0.00  0.00    +0.000 C 
ATOM     14  H   UNL     1       6.164   6.623  19.221  0.00  0.00    +0.000 HD
ENDROOT
BRANCH   7  15
ATOM     15  C   UNL     1       1.161   8.719  20.255  0.00  0.00    +0.000 A 
ATOM     16  C   UNL     1       0.661   9.771  19.469  0.00  0.00    +0.000 A 
ATOM     17  C   UNL     1      -0.045  10.833  20.040  0.00  0.00    +0.000 A 
ATOM     18  C   UNL     1      -0.263  10.868  21.414  0.00  0.00    +0.000 A 
ATOM     19  C   UNL     1       0.228   9.836  22.214  0.00  0.00    +0.000 A 
ATOM     20  C   UNL     1       0.924   8.770  21.641  0.00  0.00    +0.000 A 
ENDBRANCH   7  15
BRANCH   1  22
ATOM     21  O   UNL     1       6.607   8.341  16.701  0.00  0.00    +0.000 OA
ATOM     22  C   UNL     1       7.347   7.676  17.421  0.00  0.00    +0.000 C 
ATOM     23  N   UNL     1       8.370   8.223  18.180  0.00  0.00    +0.000 N 
ATOM     24  H   UNL     1       8.756   7.651  18.921  0.00  0.00    +0.000 HD
BRANCH  23  25
ATOM     25  C   UNL     1       8.607   9.663  18.232  0.00  0.00    +0.000 C 
BRANCH  25  26
ATOM     26  C   UNL     1       9.175  10.101  19.601  0.00  0.00    +0.000 C 
BRANCH  26  27
ATOM     27  N   UNL     1       9.084  11.541  19.915  0.00  0.00    +0.000 NA
ATOM     28  C   UNL     1       9.982  12.386  19.112  0.00  0.00    +0.000 C 
ATOM     29  C   UNL     1      10.956  13.034  20.081  0.00  0.00    +0.000 C 
ATOM     30  C   UNL     1      10.175  13.087  21.373  0.00  0.00    +0.000 C 
ATOM     31  C   UNL     1       9.386  11.791  21.337  0.00  0.00    +0.000 C 
ENDBRANCH  26  27
ENDBRANCH  25  26
ENDBRANCH  23  25
ENDBRANCH   1  22
BRANCH  13  32
ATOM     32  C   UNL     1       7.129   4.108  16.100  0.00  0.00    +0.000 C 
BRANCH  32  33
ATOM     33  O   UNL     1       6.351   3.434  15.116  0.00  0.00    +0.000 OA
ATOM     34  H   UNL     1       5.864   2.727  15.577  0.00  0.00    +0.000 HD
ENDBRANCH  32  33
ENDBRANCH  13  32
TORSDOF 7
ENDMDL
MODEL 8
REMARK VINA RESULT:      -7.7      5.541     10.818
REMARK  Name = 
REMARK  7 active torsions:
REMARK  status: ('A' for Active; 'I' for Inactive)
REMARK    1  A    between atoms: C_2  and  C_11
REMARK    2  A    between atoms: N_3  and  C_4
REMARK    3  A    between atoms: C_4  and  C_5
REMARK    4  A    between atoms: C_5  and  N_6
REMARK    5  A    between atoms: C_17  and  C_18
REMARK    6  A    between atoms: C_29  and  C_30
REMARK    7  A    between atoms: C_30  and  O_31
REMARK                            x       y       z     vdW  Elec       q    Type
REMARK                         _______ _______ _______ _____ _____    ______ ____
ROOT
ATOM      1  C   UNL     1      -2.047  12.511  20.189  0.00  0.00    +0.000 C 
ATOM      2  N   UNL     1      -1.465  11.606  21.222  0.00  0.00    +0.000 NA
ATOM      3  C   UNL     1       0.002  11.787  21.245  0.00  0.00    +0.000 C 
ATOM      4  C   UNL     1       0.736  10.502  21.030  0.00  0.00    +0.000 A 
ATOM      5  C   UNL     1       1.183   9.619  21.927  0.00  0.00    +0.000 A 
ATOM      6  C   UNL     1       1.664   8.338  21.461  0.00  0.00    +0.000 A 
ATOM      7  C   UNL     1       1.671   8.004  20.152  0.00  0.00    +0.000 A 
ATOM      8  C   UNL     1       1.356   9.099  19.140  0.00  0.00    +0.000 A 
ATOM      9  O   UNL     1       1.495   8.930  17.932  0.00  0.00    +0.000 OA
ATOM     10  N   UNL     1       0.925  10.294  19.688  0.00  0.00    +0.000 N 
ATOM     11  C   UNL     1       0.646  11.506  18.924  0.00  0.00    +0.000 C 
ATOM     12  C   UNL     1       0.347  12.587  19.989  0.00  0.00    +0.000 C 
ATOM     13  C   UNL     1      -0.905  13.432  19.754  0.00  0.00    +0.000 C 
ATOM     14  H   UNL     1      -1.680  10.646  20.920  0.00  0.00    +0.000 HD
ENDROOT
BRANCH   7  15
ATOM     15  C   UNL     1       1.884   6.593  19.749  0.00  0.00    +0.000 A 
ATOM     16  C   UNL     1       1.446   5.548  20.581  0.00  0.00    +0.000 A 
ATOM     17  C   UNL     1       1.694   4.211  20.260  0.00  0.00    +0.000 A 
ATOM     18  C   UNL     1       2.392   3.889  19.100  0.00  0.00    +0.000 A 
ATOM     19  C   UNL     1       2.839   4.911  18.262  0.00  0.00    +0.000 A 
ATOM     20  C   UNL     1       2.581   6.246  18.578  0.00  0.00    +0.000 A 
ENDBRANCH   7  15
BRANCH   1  22
ATOM     21  O   UNL     1      -2.153  10.674  18.592  0.00  0.00    +0.000 OA
ATOM     22  C   UNL     1      -2.656  11.714  19.010  0.00  0.00    +0.000 C 
ATOM     23  N   UNL     1      -3.799  12.282  18.470  0.00  0.00    +0.000 N 
ATOM     24  H   UNL     1      -4.277  12.982  19.023  0.00  0.00    +0.000 HD
BRANCH  23  25
ATOM     25  C   UNL     1      -4.542  11.641  17.387  0.00  0.00    +0.000 C 
BRANCH  25  26
ATOM     26  C   UNL     1      -5.939  12.274  17.197  0.00  0.00    +0.000 C 
BRANCH  26  27
ATOM     27  N   UNL     1      -7.028  11.714  18.021  0.00  0.00    +0.000 NA
ATOM     28  C   UNL     1      -7.463  12.595  19.116  0.00  0.00    +0.000 C 
ATOM     29  C   UNL     1      -7.160  11.863  20.413  0.00  0.00    +0.000 C 
ATOM     30  C   UNL     1      -7.223  10.408  20.013  0.00  0.00    +0.000 C 
ATOM     31  C   UNL     1      -6.630  10.424  18.615  0.00  0.00    +0.000 C 
ENDBRANCH  26  27
ENDBRANCH  25  26
ENDBRANCH  23  25
ENDBRANCH   1  22
BRANCH  13  32
ATOM     32  C   UNL     1      -0.916  14.687  20.640  0.00  0.00    +0.000 C 
BRANCH  32  33
ATOM     33  O   UNL     1      -2.045  14.625  21.506  0.00  0.00    +0.000 OA
ATOM     34  H   UNL     1      -1.753  14.963  22.373  0.00  0.00    +0.000 HD
ENDBRANCH  32  33
ENDBRANCH  13  32
TORSDOF 7
ENDMDL
MODEL 9
REMARK VINA RESULT:      -7.7      7.073     12.012
REMARK  Name = 
REMARK  7 active torsions:
REMARK  status: ('A' for Active; 'I' for Inactive)
REMARK    1  A    between atoms: C_2  and  C_11
REMARK    2  A    between atoms: N_3  and  C_4
REMARK    3  A    between atoms: C_4  and  C_5
REMARK    4  A    between atoms: C_5  and  N_6
REMARK    5  A    between atoms: C_17  and  C_18
REMARK    6  A    between atoms: C_29  and  C_30
REMARK    7  A    between atoms: C_30  and  O_31
REMARK                            x       y       z     vdW  Elec       q    Type
REMARK                         _______ _______ _______ _____ _____    ______ ____
ROOT
ATOM      1  C   UNL     1      -5.833  13.789  22.213  0.00  0.00    +0.000 C 
ATOM      2  N   UNL     1      -4.942  12.696  22.701  0.00  0.00    +0.000 NA
ATOM      3  C   UNL     1      -3.715  13.295  23.267  0.00  0.00    +0.000 C 
ATOM      4  C   UNL     1      -2.475  12.765  22.621  0.00  0.00    +0.000 A 
ATOM      5  C   UNL     1      -1.710  11.728  22.975  0.00  0.00    +0.000 A 
ATOM      6  C   UNL     1      -0.688  11.274  22.059  0.00  0.00    +0.000 A 
ATOM      7  C   UNL     1      -0.486  11.860  20.858  0.00  0.00    +0.000 A 
ATOM      8  C   UNL     1      -1.224  13.162  20.571  0.00  0.00    +0.000 A 
ATOM      9  O   UNL     1      -0.982  13.845  19.580  0.00  0.00    +0.000 OA
ATOM     10  N   UNL     1      -2.165  13.520  21.520  0.00  0.00    +0.000 N 
ATOM     11  C   UNL     1      -2.933  14.762  21.502  0.00  0.00    +0.000 C 
ATOM     12  C   UNL     1      -3.723  14.760  22.831  0.00  0.00    +0.000 C 
ATOM     13  C   UNL     1      -5.212  15.090  22.727  0.00  0.00    +0.000 C 
ATOM     14  H   UNL     1      -4.692  12.135  21.875  0.00  0.00    +0.000 HD
ENDROOT
BRANCH   7  15
ATOM     15  C   UNL     1       0.352  11.185  19.838  0.00  0.00    +0.000 A 
ATOM     16  C   UNL     1       0.370   9.782  19.754  0.00  0.00    +0.000 A 
ATOM     17  C   UNL     1       1.202   9.119  18.849  0.00  0.00    +0.000 A 
ATOM     18  C   UNL     1       2.041   9.846  18.010  0.00  0.00    +0.000 A 
ATOM     19  C   UNL     1       2.043  11.239  18.079  0.00  0.00    +0.000 A 
ATOM     20  C   UNL     1       1.203  11.902  18.976  0.00  0.00    +0.000 A 
ENDBRANCH   7  15
BRANCH   1  22
ATOM     21  O   UNL     1      -6.421  14.714  20.036  0.00  0.00    +0.000 OA
ATOM     22  C   UNL     1      -5.976  13.762  20.671  0.00  0.00    +0.000 C 
ATOM     23  N   UNL     1      -5.571  12.573  20.083  0.00  0.00    +0.000 N 
ATOM     24  H   UNL     1      -4.995  11.953  20.638  0.00  0.00    +0.000 HD
BRANCH  23  25
ATOM     25  C   UNL     1      -5.582  12.386  18.635  0.00  0.00    +0.000 C 
BRANCH  25  26
ATOM     26  C   UNL     1      -4.874  11.076  18.221  0.00  0.00    +0.000 C 
BRANCH  26  27
ATOM     27  N   UNL     1      -3.634  11.224  17.434  0.00  0.00    +0.000 NA
ATOM     28  C   UNL     1      -3.821  11.052  15.985  0.00  0.00    +0.000 C 
ATOM     29  C   UNL     1      -3.006   9.835  15.580  0.00  0.00    +0.000 C 
ATOM     30  C   UNL     1      -1.902   9.799  16.610  0.00  0.00    +0.000 C 
ATOM     31  C   UNL     1      -2.612  10.255  17.872  0.00  0.00    +0.000 C 
ENDBRANCH  26  27
ENDBRANCH  25  26
ENDBRANCH  23  25
ENDBRANCH   1  22
BRANCH  13  32
ATOM     32  C   UNL     1      -5.817  15.418  24.099  0.00  0.00    +0.000 C 
BRANCH  32  33
ATOM     33  O   UNL     1      -6.862  14.490  24.372  0.00  0.00    +0.000 OA
ATOM     34  H   UNL     1      -7.363  14.844  25.129  0.00  0.00    +0.000 HD
ENDBRANCH  32  33
ENDBRANCH  13  32
TORSDOF 7
ENDMDL
