MODEL 1
REMARK VINA RESULT:      -6.9      0.000      0.000
REMARK  Name = 
REMARK  8 active torsions:
REMARK  status: ('A' for Active; 'I' for Inactive)
REMARK    1  A    between atoms: C_1  and  C_2
REMARK    2  A    between atoms: C_2  and  C_3
REMARK    3  A    between atoms: C_2  and  C_8
REMARK    4  A    between atoms: C_8  and  C_9
REMARK    5  A    between atoms: C_8  and  C_11
REMARK    6  A    between atoms: C_8  and  C_13
REMARK    7  A    between atoms: C_13  and  C_14
REMARK    8  A    between atoms: C_14  and  C_15
REMARK                            x       y       z     vdW  Elec       q    Type
REMARK                         _______ _______ _______ _____ _____    ______ ____
ROOT
ATOM      1  C   UNL     1       4.075   3.971  18.125  0.00  0.00    +0.000 C 
ENDROOT
BRANCH   1   3
ATOM      2  C   UNL     1       5.015   4.630  15.780  0.00  0.00    +0.000 C 
ATOM      3  C   UNL     1       5.336   4.142  17.205  0.00  0.00    +0.000 C 
BRANCH   3   4
ATOM      4  C   UNL     1       6.377   5.058  17.815  0.00  0.00    +0.000 A 
ATOM      5  N   UNL     1       7.117   4.746  18.858  0.00  0.00    +0.000 NA
ATOM      6  C   UNL     1       7.960   5.798  19.166  0.00  0.00    +0.000 A 
ATOM      7  C   UNL     1       7.853   6.903  18.351  0.00  0.00    +0.000 A 
ATOM      8  S   UNL     1       6.651   6.629  17.163  0.00  0.00    +0.000 S 
ENDBRANCH   3   4
ENDBRANCH   1   3
BRANCH   1   9
ATOM      9  C   UNL     1       3.732   5.284  18.723  0.00  0.00    +0.000 C 
ATOM     10  N   UNL     1       3.436   6.299  19.199  0.00  0.00    +0.000 NA
ENDBRANCH   1   9
BRANCH   1  11
ATOM     11  C   UNL     1       4.441   3.032  19.213  0.00  0.00    +0.000 C 
ATOM     12  N   UNL     1       4.738   2.316  20.076  0.00  0.00    +0.000 NA
ENDBRANCH   1  11
BRANCH   1  13
ATOM     13  C   UNL     1       2.822   3.415  17.380  0.00  0.00    +0.000 C 
BRANCH  13  14
ATOM     14  C   UNL     1       1.471   3.796  18.024  0.00  0.00    +0.000 C 
BRANCH  14  15
ATOM     15  C   UNL     1       1.209   2.977  19.253  0.00  0.00    +0.000 C 
ATOM     16  F   UNL     1       1.250   1.630  19.135  0.00  0.00    +0.000 F 
ATOM     17  C   UNL     1       0.953   3.500  20.457  0.00  0.00    +0.000 C 
ATOM     18  F   UNL     1       0.908   4.838  20.625  0.00  0.00    +0.000 F 
ATOM     19  F   UNL     1       0.742   2.686  21.511  0.00  0.00    +0.000 F 
ENDBRANCH  14  15
ENDBRANCH  13  14
ENDBRANCH   1  13
TORSDOF 7
ENDMDL
MODEL 2
REMARK VINA RESULT:      -6.7      1.247      2.164
REMARK  Name = 
REMARK  8 active torsions:
REMARK  status: ('A' for Active; 'I' for Inactive)
REMARK    1  A    between atoms: C_1  and  C_2
REMARK    2  A    between atoms: C_2  and  C_3
REMARK    3  A    between atoms: C_2  and  C_8
REMARK    4  A    between atoms: C_8  and  C_9
REMARK    5  A    between atoms: C_8  and  C_11
REMARK    6  A    between atoms: C_8  and  C_13
REMARK    7  A    between atoms: C_13  and  C_14
REMARK    8  A    between atoms: C_14  and  C_15
REMARK                            x       y       z     vdW  Elec       q    Type
REMARK                         _______ _______ _______ _____ _____    ______ ____
ROOT
ATOM      1  C   UNL     1       4.122   3.890  18.342  0.00  0.00    +0.000 C 
ENDROOT
BRANCH   1   3
ATOM      2  C   UNL     1       4.931   4.586  15.958  0.00  0.00    +0.000 C 
ATOM      3  C   UNL     1       5.333   4.103  17.364  0.00  0.00    +0.000 C 
BRANCH   3   4
ATOM      4  C   UNL     1       6.373   5.048  17.930  0.00  0.00    +0.000 A 
ATOM      5  N   UNL     1       7.141   4.772  18.963  0.00  0.00    +0.000 NA
ATOM      6  C   UNL     1       7.974   5.843  19.228  0.00  0.00    +0.000 A 
ATOM      7  C   UNL     1       7.833   6.926  18.390  0.00  0.00    +0.000 A 
ATOM      8  S   UNL     1       6.609   6.607  17.235  0.00  0.00    +0.000 S 
ENDBRANCH   3   4
ENDBRANCH   1   3
BRANCH   1   9
ATOM      9  C   UNL     1       4.504   2.898  19.375  0.00  0.00    +0.000 C 
ATOM     10  N   UNL     1       4.833   2.128  20.178  0.00  0.00    +0.000 NA
ENDBRANCH   1   9
BRANCH   1  11
ATOM     11  C   UNL     1       2.998   3.341  17.545  0.00  0.00    +0.000 C 
ATOM     12  N   UNL     1       2.122   2.931  16.906  0.00  0.00    +0.000 NA
ENDBRANCH   1  11
BRANCH   1  13
ATOM     13  C   UNL     1       3.647   5.197  19.049  0.00  0.00    +0.000 C 
BRANCH  13  14
ATOM     14  C   UNL     1       2.152   5.210  19.436  0.00  0.00    +0.000 C 
BRANCH  14  15
ATOM     15  C   UNL     1       1.908   4.405  20.677  0.00  0.00    +0.000 C 
ATOM     16  F   UNL     1       2.545   4.782  21.810  0.00  0.00    +0.000 F 
ATOM     17  C   UNL     1       1.088   3.351  20.733  0.00  0.00    +0.000 C 
ATOM     18  F   UNL     1       0.425   2.940  19.631  0.00  0.00    +0.000 F 
ATOM     19  F   UNL     1       0.918   2.692  21.898  0.00  0.00    +0.000 F 
ENDBRANCH  14  15
ENDBRANCH  13  14
ENDBRANCH   1  13
TORSDOF 7
ENDMDL
MODEL 3
REMARK VINA RESULT:      -6.7      1.012      1.131
REMARK  Name = 
REMARK  8 active torsions:
REMARK  status: ('A' for Active; 'I' for Inactive)
REMARK    1  A    between atoms: C_1  and  C_2
REMARK    2  A    between atoms: C_2  and  C_3
REMARK    3  A    between atoms: C_2  and  C_8
REMARK    4  A    between atoms: C_8  and  C_9
REMARK    5  A    between atoms: C_8  and  C_11
REMARK    6  A    between atoms: C_8  and  C_13
REMARK    7  A    between atoms: C_13  and  C_14
REMARK    8  A    between atoms: C_14  and  C_15
REMARK                            x       y       z     vdW  Elec       q    Type
REMARK                         _______ _______ _______ _____ _____    ______ ____
ROOT
ATOM      1  C   UNL     1       4.193   4.284  17.848  0.00  0.00    +0.000 C 
ENDROOT
BRANCH   1   3
ATOM      2  C   UNL     1       5.144   4.502  15.427  0.00  0.00    +0.000 C 
ATOM      3  C   UNL     1       5.462   4.397  16.930  0.00  0.00    +0.000 C 
BRANCH   3   4
ATOM      4  C   UNL     1       6.360   5.551  17.324  0.00  0.00    +0.000 A 
ATOM      5  N   UNL     1       6.413   6.700  16.682  0.00  0.00    +0.000 NA
ATOM      6  C   UNL     1       7.334   7.534  17.291  0.00  0.00    +0.000 A 
ATOM      7  C   UNL     1       7.971   7.011  18.393  0.00  0.00    +0.000 A 
ATOM      8  S   UNL     1       7.416   5.416  18.678  0.00  0.00    +0.000 S 
ENDBRANCH   3   4
ENDBRANCH   1   3
BRANCH   1   9
ATOM      9  C   UNL     1       3.784   5.644  18.276  0.00  0.00    +0.000 C 
ATOM     10  N   UNL     1       3.469   6.718  18.581  0.00  0.00    +0.000 NA
ENDBRANCH   1   9
BRANCH   1  11
ATOM     11  C   UNL     1       4.579   3.502  19.048  0.00  0.00    +0.000 C 
ATOM     12  N   UNL     1       4.885   2.912  19.998  0.00  0.00    +0.000 NA
ENDBRANCH   1  11
BRANCH   1  13
ATOM     13  C   UNL     1       2.978   3.586  17.161  0.00  0.00    +0.000 C 
BRANCH  13  14
ATOM     14  C   UNL     1       1.599   4.016  17.708  0.00  0.00    +0.000 C 
BRANCH  14  15
ATOM     15  C   UNL     1       1.185   3.157  18.866  0.00  0.00    +0.000 C 
ATOM     16  F   UNL     1       0.915   1.854  18.621  0.00  0.00    +0.000 F 
ATOM     17  C   UNL     1       1.084   3.599  20.123  0.00  0.00    +0.000 C 
ATOM     18  F   UNL     1       1.348   4.889  20.418  0.00  0.00    +0.000 F 
ATOM     19  F   UNL     1       0.717   2.751  21.106  0.00  0.00    +0.000 F 
ENDBRANCH  14  15
ENDBRANCH  13  14
ENDBRANCH   1  13
TORSDOF 7
ENDMDL
MODEL 4
REMARK VINA RESULT:      -6.5      4.159      6.336
REMARK  Name = 
REMARK  8 active torsions:
REMARK  status: ('A' for Active; 'I' for Inactive)
REMARK    1  A    between atoms: C_1  and  C_2
REMARK    2  A    between atoms: C_2  and  C_3
REMARK    3  A    between atoms: C_2  and  C_8
REMARK    4  A    between atoms: C_8  and  C_9
REMARK    5  A    between atoms: C_8  and  C_11
REMARK    6  A    between atoms: C_8  and  C_13
REMARK    7  A    between atoms: C_13  and  C_14
REMARK    8  A    between atoms: C_14  and  C_15
REMARK                            x       y       z     vdW  Elec       q    Type
REMARK                         _______ _______ _______ _____ _____    ______ ____
ROOT
ATOM      1  C   UNL     1       5.295   6.062  16.936  0.00  0.00    +0.000 C 
ENDROOT
BRANCH   1   3
ATOM      2  C   UNL     1       5.959   5.186  19.304  0.00  0.00    +0.000 C 
ATOM      3  C   UNL     1       5.255   4.879  17.969  0.00  0.00    +0.000 C 
BRANCH   3   4
ATOM      4  C   UNL     1       3.843   4.409  18.255  0.00  0.00    +0.000 A 
ATOM      5  N   UNL     1       3.086   3.770  17.387  0.00  0.00    +0.000 NA
ATOM      6  C   UNL     1       1.857   3.489  17.955  0.00  0.00    +0.000 A 
ATOM      7  C   UNL     1       1.692   3.917  19.254  0.00  0.00    +0.000 A 
ATOM      8  S   UNL     1       3.113   4.710  19.786  0.00  0.00    +0.000 S 
ENDBRANCH   3   4
ENDBRANCH   1   3
BRANCH   1   9
ATOM      9  C   UNL     1       6.591   6.770  17.063  0.00  0.00    +0.000 C 
ATOM     10  N   UNL     1       7.619   7.302  17.144  0.00  0.00    +0.000 NA
ENDBRANCH   1   9
BRANCH   1  11
ATOM     11  C   UNL     1       4.202   7.000  17.289  0.00  0.00    +0.000 C 
ATOM     12  N   UNL     1       3.350   7.728  17.589  0.00  0.00    +0.000 NA
ENDBRANCH   1  11
BRANCH   1  13
ATOM     13  C   UNL     1       5.111   5.609  15.454  0.00  0.00    +0.000 C 
BRANCH  13  14
ATOM     14  C   UNL     1       5.826   4.289  15.093  0.00  0.00    +0.000 C 
BRANCH  14  15
ATOM     15  C   UNL     1       6.711   4.464  13.895  0.00  0.00    +0.000 C 
ATOM     16  F   UNL     1       7.804   5.252  14.027  0.00  0.00    +0.000 F 
ATOM     17  C   UNL     1       6.493   3.877  12.714  0.00  0.00    +0.000 C 
ATOM     18  F   UNL     1       5.420   3.078  12.535  0.00  0.00    +0.000 F 
ATOM     19  F   UNL     1       7.351   4.082  11.693  0.00  0.00    +0.000 F 
ENDBRANCH  14  15
ENDBRANCH  13  14
ENDBRANCH   1  13
TORSDOF 7
ENDMDL
MODEL 5
REMARK VINA RESULT:      -6.5      3.633      4.890
REMARK  Name = 
REMARK  8 active torsions:
REMARK  status: ('A' for Active; 'I' for Inactive)
REMARK    1  A    between atoms: C_1  and  C_2
REMARK    2  A    between atoms: C_2  and  C_3
REMARK    3  A    between atoms: C_2  and  C_8
REMARK    4  A    between atoms: C_8  and  C_9
REMARK    5  A    between atoms: C_8  and  C_11
REMARK    6  A    between atoms: C_8  and  C_13
REMARK    7  A    between atoms: C_13  and  C_14
REMARK    8  A    between atoms: C_14  and  C_15
REMARK                            x       y       z     vdW  Elec       q    Type
REMARK                         _______ _______ _______ _____ _____    ______ ____
ROOT
ATOM      1  C   UNL     1       4.150   3.870  17.954  0.00  0.00    +0.000 C 
ENDROOT
BRANCH   1   3
ATOM      2  C   UNL     1       3.556   5.693  19.728  0.00  0.00    +0.000 C 
ATOM      3  C   UNL     1       4.317   5.357  18.431  0.00  0.00    +0.000 C 
BRANCH   3   4
ATOM      4  C   UNL     1       5.770   5.751  18.598  0.00  0.00    +0.000 A 
ATOM      5  N   UNL     1       6.549   5.313  19.566  0.00  0.00    +0.000 NA
ATOM      6  C   UNL     1       7.810   5.864  19.438  0.00  0.00    +0.000 A 
ATOM      7  C   UNL     1       7.980   6.717  18.370  0.00  0.00    +0.000 A 
ATOM      8  S   UNL     1       6.512   6.850  17.498  0.00  0.00    +0.000 S 
ENDBRANCH   3   4
ENDBRANCH   1   3
BRANCH   1   9
ATOM      9  C   UNL     1       2.744   3.653  17.535  0.00  0.00    +0.000 C 
ATOM     10  N   UNL     1       1.640   3.514  17.209  0.00  0.00    +0.000 NA
ENDBRANCH   1   9
BRANCH   1  11
ATOM     11  C   UNL     1       4.442   2.994  19.116  0.00  0.00    +0.000 C 
ATOM     12  N   UNL     1       4.648   2.316  20.033  0.00  0.00    +0.000 NA
ENDBRANCH   1  11
BRANCH   1  13
ATOM     13  C   UNL     1       5.094   3.476  16.777  0.00  0.00    +0.000 C 
BRANCH  13  14
ATOM     14  C   UNL     1       4.836   4.246  15.463  0.00  0.00    +0.000 C 
BRANCH  14  15
ATOM     15  C   UNL     1       6.011   4.144  14.537  0.00  0.00    +0.000 C 
ATOM     16  F   UNL     1       7.247   4.312  15.064  0.00  0.00    +0.000 F 
ATOM     17  C   UNL     1       5.910   3.882  13.230  0.00  0.00    +0.000 C 
ATOM     18  F   UNL     1       4.701   3.701  12.660  0.00  0.00    +0.000 F 
ATOM     19  F   UNL     1       7.025   3.795  12.474  0.00  0.00    +0.000 F 
ENDBRANCH  14  15
ENDBRANCH  13  14
ENDBRANCH   1  13
TORSDOF 7
ENDMDL
MODEL 6
REMARK VINA RESULT:      -6.4      3.629      5.767
REMARK  Name = 
REMARK  8 active torsions:
REMARK  status: ('A' for Active; 'I' for Inactive)
REMARK    1  A    between atoms: C_1  and  C_2
REMARK    2  A    between atoms: C_2  and  C_3
REMARK    3  A    between atoms: C_2  and  C_8
REMARK    4  A    between atoms: C_8  and  C_9
REMARK    5  A    between atoms: C_8  and  C_11
REMARK    6  A    between atoms: C_8  and  C_13
REMARK    7  A    between atoms: C_13  and  C_14
REMARK    8  A    between atoms: C_14  and  C_15
REMARK                            x       y       z     vdW  Elec       q    Type
REMARK                         _______ _______ _______ _____ _____    ______ ____
ROOT
ATOM      1  C   UNL     1       6.614   5.673  18.112  0.00  0.00    +0.000 C 
ENDROOT
BRANCH   1   3
ATOM      2  C   UNL     1       4.194   6.553  17.680  0.00  0.00    +0.000 C 
ATOM      3  C   UNL     1       5.106   5.667  18.550  0.00  0.00    +0.000 C 
BRANCH   3   4
ATOM      4  C   UNL     1       4.525   4.269  18.605  0.00  0.00    +0.000 A 
ATOM      5  N   UNL     1       4.817   3.384  19.535  0.00  0.00    +0.000 NA
ATOM      6  C   UNL     1       4.127   2.209  19.296  0.00  0.00    +0.000 A 
ATOM      7  C   UNL     1       3.314   2.214  18.185  0.00  0.00    +0.000 A 
ATOM      8  S   UNL     1       3.419   3.731  17.399  0.00  0.00    +0.000 S 
ENDBRANCH   3   4
ENDBRANCH   1   3
BRANCH   1   9
ATOM      9  C   UNL     1       7.465   5.458  19.307  0.00  0.00    +0.000 C 
ATOM     10  N   UNL     1       8.131   5.259  20.235  0.00  0.00    +0.000 NA
ENDBRANCH   1   9
BRANCH   1  11
ATOM     11  C   UNL     1       6.910   7.014  17.550  0.00  0.00    +0.000 C 
ATOM     12  N   UNL     1       7.149   8.051  17.090  0.00  0.00    +0.000 NA
ENDBRANCH   1  11
BRANCH   1  13
ATOM     13  C   UNL     1       6.964   4.591  17.044  0.00  0.00    +0.000 C 
BRANCH  13  14
ATOM     14  C   UNL     1       7.241   5.151  15.631  0.00  0.00    +0.000 C 
BRANCH  14  15
ATOM     15  C   UNL     1       6.021   5.054  14.763  0.00  0.00    +0.000 C 
ATOM     16  F   UNL     1       5.096   6.037  14.862  0.00  0.00    +0.000 F 
ATOM     17  C   UNL     1       5.805   4.066  13.889  0.00  0.00    +0.000 C 
ATOM     18  F   UNL     1       6.701   3.067  13.749  0.00  0.00    +0.000 F 
ATOM     19  F   UNL     1       4.684   4.068  13.138  0.00  0.00    +0.000 F 
ENDBRANCH  14  15
ENDBRANCH  13  14
ENDBRANCH   1  13
TORSDOF 7
ENDMDL
MODEL 7
REMARK VINA RESULT:      -6.4      4.111      6.241
REMARK  Name = 
REMARK  8 active torsions:
REMARK  status: ('A' for Active; 'I' for Inactive)
REMARK    1  A    between atoms: C_1  and  C_2
REMARK    2  A    between atoms: C_2  and  C_3
REMARK    3  A    between atoms: C_2  and  C_8
REMARK    4  A    between atoms: C_8  and  C_9
REMARK    5  A    between atoms: C_8  and  C_11
REMARK    6  A    between atoms: C_8  and  C_13
REMARK    7  A    between atoms: C_13  and  C_14
REMARK    8  A    between atoms: C_14  and  C_15
REMARK                            x       y       z     vdW  Elec       q    Type
REMARK                         _______ _______ _______ _____ _____    ______ ____
ROOT
ATOM      1  C   UNL     1       5.358   5.766  16.987  0.00  0.00    +0.000 C 
ENDROOT
BRANCH   1   3
ATOM      2  C   UNL     1       6.282   5.279  19.380  0.00  0.00    +0.000 C 
ATOM      3  C   UNL     1       5.516   4.734  18.160  0.00  0.00    +0.000 C 
BRANCH   3   4
ATOM      4  C   UNL     1       4.185   4.179  18.625  0.00  0.00    +0.000 A 
ATOM      5  N   UNL     1       3.523   4.622  19.673  0.00  0.00    +0.000 NA
ATOM      6  C   UNL     1       2.353   3.901  19.828  0.00  0.00    +0.000 A 
ATOM      7  C   UNL     1       2.135   2.916  18.892  0.00  0.00    +0.000 A 
ATOM      8  S   UNL     1       3.439   2.873  17.783  0.00  0.00    +0.000 S 
ENDBRANCH   3   4
ENDBRANCH   1   3
BRANCH   1   9
ATOM      9  C   UNL     1       6.614   6.543  16.855  0.00  0.00    +0.000 C 
ATOM     10  N   UNL     1       7.608   7.128  16.734  0.00  0.00    +0.000 NA
ENDBRANCH   1   9
BRANCH   1  11
ATOM     11  C   UNL     1       4.259   6.694  17.354  0.00  0.00    +0.000 C 
ATOM     12  N   UNL     1       3.415   7.427  17.659  0.00  0.00    +0.000 NA
ENDBRANCH   1  11
BRANCH   1  13
ATOM     13  C   UNL     1       5.024   5.110  15.612  0.00  0.00    +0.000 C 
BRANCH  13  14
ATOM     14  C   UNL     1       5.972   3.961  15.203  0.00  0.00    +0.000 C 
BRANCH  14  15
ATOM     15  C   UNL     1       6.747   4.313  13.968  0.00  0.00    +0.000 C 
ATOM     16  F   UNL     1       7.764   5.198  14.093  0.00  0.00    +0.000 F 
ATOM     17  C   UNL     1       6.504   3.794  12.761  0.00  0.00    +0.000 C 
ATOM     18  F   UNL     1       5.505   2.903  12.588  0.00  0.00    +0.000 F 
ATOM     19  F   UNL     1       7.263   4.159  11.707  0.00  0.00    +0.000 F 
ENDBRANCH  14  15
ENDBRANCH  13  14
ENDBRANCH   1  13
TORSDOF 7
ENDMDL
MODEL 8
REMARK VINA RESULT:      -6.4      3.813      5.664
REMARK  Name = 
REMARK  8 active torsions:
REMARK  status: ('A' for Active; 'I' for Inactive)
REMARK    1  A    between atoms: C_1  and  C_2
REMARK    2  A    between atoms: C_2  and  C_3
REMARK    3  A    between atoms: C_2  and  C_8
REMARK    4  A    between atoms: C_8  and  C_9
REMARK    5  A    between atoms: C_8  and  C_11
REMARK    6  A    between atoms: C_8  and  C_13
REMARK    7  A    between atoms: C_13  and  C_14
REMARK    8  A    between atoms: C_14  and  C_15
REMARK                            x       y       z     vdW  Elec       q    Type
REMARK                         _______ _______ _______ _____ _____    ______ ____
ROOT
ATOM      1  C   UNL     1       3.797   5.616  18.481  0.00  0.00    +0.000 C 
ENDROOT
BRANCH   1   3
ATOM      2  C   UNL     1       3.873   3.217  17.452  0.00  0.00    +0.000 C 
ATOM      3  C   UNL     1       3.057   4.250  18.252  0.00  0.00    +0.000 C 
BRANCH   3   4
ATOM      4  C   UNL     1       2.599   3.615  19.549  0.00  0.00    +0.000 A 
ATOM      5  N   UNL     1       3.403   3.023  20.407  0.00  0.00    +0.000 NA
ATOM      6  C   UNL     1       2.673   2.546  21.480  0.00  0.00    +0.000 A 
ATOM      7  C   UNL     1       1.317   2.781  21.428  0.00  0.00    +0.000 A 
ATOM      8  S   UNL     1       0.932   3.618  19.985  0.00  0.00    +0.000 S 
ENDBRANCH   3   4
ENDBRANCH   1   3
BRANCH   1   9
ATOM      9  C   UNL     1       5.085   5.357  19.168  0.00  0.00    +0.000 C 
ATOM     10  N   UNL     1       6.101   5.134  19.683  0.00  0.00    +0.000 NA
ENDBRANCH   1   9
BRANCH   1  11
ATOM     11  C   UNL     1       2.941   6.443  19.367  0.00  0.00    +0.000 C 
ATOM     12  N   UNL     1       2.287   7.083  20.079  0.00  0.00    +0.000 NA
ENDBRANCH   1  11
BRANCH   1  13
ATOM     13  C   UNL     1       4.077   6.409  17.168  0.00  0.00    +0.000 C 
BRANCH  13  14
ATOM     14  C   UNL     1       5.567   6.487  16.771  0.00  0.00    +0.000 C 
BRANCH  14  15
ATOM     15  C   UNL     1       5.867   5.580  15.615  0.00  0.00    +0.000 C 
ATOM     16  F   UNL     1       5.148   5.745  14.480  0.00  0.00    +0.000 F 
ATOM     17  C   UNL     1       6.811   4.634  15.634  0.00  0.00    +0.000 C 
ATOM     18  F   UNL     1       7.558   4.436  16.740  0.00  0.00    +0.000 F 
ATOM     19  F   UNL     1       7.021   3.872  14.541  0.00  0.00    +0.000 F 
ENDBRANCH  14  15
ENDBRANCH  13  14
ENDBRANCH   1  13
TORSDOF 7
ENDMDL
MODEL 9
REMARK VINA RESULT:      -6.4      1.391      1.677
REMARK  Name = 
REMARK  8 active torsions:
REMARK  status: ('A' for Active; 'I' for Inactive)
REMARK    1  A    between atoms: C_1  and  C_2
REMARK    2  A    between atoms: C_2  and  C_3
REMARK    3  A    between atoms: C_2  and  C_8
REMARK    4  A    between atoms: C_8  and  C_9
REMARK    5  A    between atoms: C_8  and  C_11
REMARK    6  A    between atoms: C_8  and  C_13
REMARK    7  A    between atoms: C_13  and  C_14
REMARK    8  A    between atoms: C_14  and  C_15
REMARK                            x       y       z     vdW  Elec       q    Type
REMARK                         _______ _______ _______ _____ _____    ______ ____
ROOT
ATOM      1  C   UNL     1       4.533   4.290  17.567  0.00  0.00    +0.000 C 
ENDROOT
BRANCH   1   3
ATOM      2  C   UNL     1       5.752   4.545  15.272  0.00  0.00    +0.000 C 
ATOM      3  C   UNL     1       5.894   4.464  16.803  0.00  0.00    +0.000 C 
BRANCH   3   4
ATOM      4  C   UNL     1       6.680   5.665  17.289  0.00  0.00    +0.000 A 
ATOM      5  N   UNL     1       6.730   6.820  16.659  0.00  0.00    +0.000 NA
ATOM      6  C   UNL     1       7.535   7.700  17.359  0.00  0.00    +0.000 A 
ATOM      7  C   UNL     1       8.089   7.205  18.518  0.00  0.00    +0.000 A 
ATOM      8  S   UNL     1       7.602   5.579  18.742  0.00  0.00    +0.000 S 
ENDBRANCH   3   4
ENDBRANCH   1   3
BRANCH   1   9
ATOM      9  C   UNL     1       3.975   5.630  17.870  0.00  0.00    +0.000 C 
ATOM     10  N   UNL     1       3.514   6.664  18.120  0.00  0.00    +0.000 NA
ENDBRANCH   1   9
BRANCH   1  11
ATOM     11  C   UNL     1       4.823   3.594  18.844  0.00  0.00    +0.000 C 
ATOM     12  N   UNL     1       5.056   3.029  19.829  0.00  0.00    +0.000 NA
ENDBRANCH   1  11
BRANCH   1  13
ATOM     13  C   UNL     1       3.468   3.469  16.776  0.00  0.00    +0.000 C 
BRANCH  13  14
ATOM     14  C   UNL     1       2.565   2.576  17.655  0.00  0.00    +0.000 C 
BRANCH  14  15
ATOM     15  C   UNL     1       1.526   3.392  18.366  0.00  0.00    +0.000 C 
ATOM     16  F   UNL     1       0.876   4.343  17.657  0.00  0.00    +0.000 F 
ATOM     17  C   UNL     1       1.196   3.223  19.650  0.00  0.00    +0.000 C 
ATOM     18  F   UNL     1       1.813   2.282  20.397  0.00  0.00    +0.000 F 
ATOM     19  F   UNL     1       0.239   3.995  20.205  0.00  0.00    +0.000 F 
ENDBRANCH  14  15
ENDBRANCH  13  14
ENDBRANCH   1  13
TORSDOF 7
ENDMDL
