MODEL 1
REMARK VINA RESULT:      -6.6      0.000      0.000
REMARK  Name = 
REMARK  4 active torsions:
REMARK  status: ('A' for Active; 'I' for Inactive)
REMARK    1  A    between atoms: C_1  and  C_2
REMARK    2  A    between atoms: C_4  and  C_5
REMARK    3  A    between atoms: N_9  and  C_10
REMARK    4  A    between atoms: C_10  and  C_11
REMARK                            x       y       z     vdW  Elec       q    Type
REMARK                         _______ _______ _______ _____ _____    ______ ____
ROOT
ATOM      1  C   UNL     1       4.979   5.580  17.690  0.00  0.00    +0.000 C 
ATOM      2  C   UNL     1       4.565   4.730  18.882  0.00  0.00    +0.000 C 
ATOM      3  C   UNL     1       3.468   3.871  18.292  0.00  0.00    +0.000 C 
ATOM      4  C   UNL     1       3.916   3.627  16.856  0.00  0.00    +0.000 C 
ATOM      5  N   UNL     1       4.935   4.649  16.512  0.00  0.00    +0.000 NA
ENDROOT
BRANCH   1   9
ATOM      6  C   UNL     1       8.442   9.129  17.730  0.00  0.00    +0.000 C 
ATOM      7  C   UNL     1       7.676   7.877  17.849  0.00  0.00    +0.000 A 
ATOM      8  N   UNL     1       6.535   7.540  17.297  0.00  0.00    +0.000 NA
ATOM      9  C   UNL     1       6.257   6.337  17.910  0.00  0.00    +0.000 A 
ATOM     10  N   UNL     1       7.220   5.904  18.738  0.00  0.00    +0.000 NA
ATOM     11  O   UNL     1       8.163   6.933  18.705  0.00  0.00    +0.000 OA
ENDBRANCH   1   9
BRANCH   5  12
ATOM     12  C   UNL     1       6.238   4.020  16.207  0.00  0.00    +0.000 C 
BRANCH  12  13
ATOM     13  C   UNL     1       6.776   4.427  14.866  0.00  0.00    +0.000 A 
ATOM     14  C   UNL     1       6.384   3.979  13.581  0.00  0.00    +0.000 A 
ATOM     15  C   UNL     1       7.134   4.731  12.718  0.00  0.00    +0.000 A 
ATOM     16  O   UNL     1       7.935   5.568  13.423  0.00  0.00    +0.000 OA
ATOM     17  N   UNL     1       7.714   5.383  14.776  0.00  0.00    +0.000 NA
ENDBRANCH  12  13
ENDBRANCH   5  12
TORSDOF 3
ENDMDL
MODEL 2
REMARK VINA RESULT:      -6.6      2.079      4.197
REMARK  Name = 
REMARK  4 active torsions:
REMARK  status: ('A' for Active; 'I' for Inactive)
REMARK    1  A    between atoms: C_1  and  C_2
REMARK    2  A    between atoms: C_4  and  C_5
REMARK    3  A    between atoms: N_9  and  C_10
REMARK    4  A    between atoms: C_10  and  C_11
REMARK                            x       y       z     vdW  Elec       q    Type
REMARK                         _______ _______ _______ _____ _____    ______ ____
ROOT
ATOM      1  C   UNL     1       6.934   4.734  16.535  0.00  0.00    +0.000 C 
ATOM      2  C   UNL     1       6.800   5.013  15.046  0.00  0.00    +0.000 C 
ATOM      3  C   UNL     1       5.967   3.840  14.578  0.00  0.00    +0.000 C 
ATOM      4  C   UNL     1       5.028   3.561  15.744  0.00  0.00    +0.000 C 
ATOM      5  N   UNL     1       5.594   4.203  16.955  0.00  0.00    +0.000 NA
ENDROOT
BRANCH   1   9
ATOM      6  C   UNL     1       8.184   9.310  17.976  0.00  0.00    +0.000 C 
ATOM      7  C   UNL     1       8.005   7.856  17.830  0.00  0.00    +0.000 A 
ATOM      8  N   UNL     1       7.596   7.165  16.793  0.00  0.00    +0.000 NA
ATOM      9  C   UNL     1       7.480   5.895  17.315  0.00  0.00    +0.000 A 
ATOM     10  N   UNL     1       7.880   5.783  18.591  0.00  0.00    +0.000 NA
ATOM     11  O   UNL     1       8.223   7.092  18.939  0.00  0.00    +0.000 OA
ENDBRANCH   1   9
BRANCH   5  12
ATOM     12  C   UNL     1       4.684   5.244  17.480  0.00  0.00    +0.000 C 
BRANCH  12  13
ATOM     13  C   UNL     1       3.495   4.667  18.191  0.00  0.00    +0.000 A 
ATOM     14  C   UNL     1       2.123   4.775  17.856  0.00  0.00    +0.000 A 
ATOM     15  C   UNL     1       1.487   3.996  18.783  0.00  0.00    +0.000 A 
ATOM     16  O   UNL     1       2.399   3.460  19.631  0.00  0.00    +0.000 OA
ATOM     17  N   UNL     1       3.666   3.878  19.264  0.00  0.00    +0.000 NA
ENDBRANCH  12  13
ENDBRANCH   5  12
TORSDOF 3
ENDMDL
MODEL 3
REMARK VINA RESULT:      -6.6      2.977      4.066
REMARK  Name = 
REMARK  4 active torsions:
REMARK  status: ('A' for Active; 'I' for Inactive)
REMARK    1  A    between atoms: C_1  and  C_2
REMARK    2  A    between atoms: C_4  and  C_5
REMARK    3  A    between atoms: N_9  and  C_10
REMARK    4  A    between atoms: C_10  and  C_11
REMARK                            x       y       z     vdW  Elec       q    Type
REMARK                         _______ _______ _______ _____ _____    ______ ____
ROOT
ATOM      1  C   UNL     1       2.162   4.279  18.624  0.00  0.00    +0.000 C 
ATOM      2  C   UNL     1       1.626   3.502  19.817  0.00  0.00    +0.000 C 
ATOM      3  C   UNL     1       1.953   2.074  19.437  0.00  0.00    +0.000 C 
ATOM      4  C   UNL     1       3.272   2.181  18.684  0.00  0.00    +0.000 C 
ATOM      5  N   UNL     1       3.444   3.590  18.253  0.00  0.00    +0.000 NA
ENDROOT
BRANCH   1   9
ATOM      6  C   UNL     1       2.222   9.189  17.936  0.00  0.00    +0.000 C 
ATOM      7  C   UNL     1       2.284   7.819  18.474  0.00  0.00    +0.000 A 
ATOM      8  N   UNL     1       2.385   6.676  17.838  0.00  0.00    +0.000 NA
ATOM      9  C   UNL     1       2.229   5.761  18.857  0.00  0.00    +0.000 A 
ATOM     10  N   UNL     1       2.123   6.306  20.078  0.00  0.00    +0.000 NA
ATOM     11  O   UNL     1       2.152   7.679  19.824  0.00  0.00    +0.000 OA
ENDBRANCH   1   9
BRANCH   5  12
ATOM     12  C   UNL     1       4.641   4.195  18.876  0.00  0.00    +0.000 C 
BRANCH  12  13
ATOM     13  C   UNL     1       5.785   4.333  17.915  0.00  0.00    +0.000 A 
ATOM     14  C   UNL     1       5.749   4.426  16.502  0.00  0.00    +0.000 A 
ATOM     15  C   UNL     1       7.056   4.619  16.144  0.00  0.00    +0.000 A 
ATOM     16  O   UNL     1       7.836   4.629  17.253  0.00  0.00    +0.000 OA
ATOM     17  N   UNL     1       7.042   4.451  18.372  0.00  0.00    +0.000 NA
ENDBRANCH  12  13
ENDBRANCH   5  12
TORSDOF 3
ENDMDL
MODEL 4
REMARK VINA RESULT:      -6.5      2.467      5.231
REMARK  Name = 
REMARK  4 active torsions:
REMARK  status: ('A' for Active; 'I' for Inactive)
REMARK    1  A    between atoms: C_1  and  C_2
REMARK    2  A    between atoms: C_4  and  C_5
REMARK    3  A    between atoms: N_9  and  C_10
REMARK    4  A    between atoms: C_10  and  C_11
REMARK                            x       y       z     vdW  Elec       q    Type
REMARK                         _______ _______ _______ _____ _____    ______ ____
ROOT
ATOM      1  C   UNL     1       6.155   5.411  16.870  0.00  0.00    +0.000 C 
ATOM      2  C   UNL     1       7.251   5.088  17.874  0.00  0.00    +0.000 C 
ATOM      3  C   UNL     1       6.566   5.370  19.193  0.00  0.00    +0.000 C 
ATOM      4  C   UNL     1       5.119   4.957  18.958  0.00  0.00    +0.000 C 
ATOM      5  N   UNL     1       4.890   4.895  17.493  0.00  0.00    +0.000 NA
ENDROOT
BRANCH   1   9
ATOM      6  C   UNL     1       5.817   3.346  12.376  0.00  0.00    +0.000 C 
ATOM      7  C   UNL     1       6.253   4.014  13.613  0.00  0.00    +0.000 A 
ATOM      8  N   UNL     1       5.684   4.038  14.795  0.00  0.00    +0.000 NA
ATOM      9  C   UNL     1       6.464   4.948  15.476  0.00  0.00    +0.000 A 
ATOM     10  N   UNL     1       7.518   5.402  14.781  0.00  0.00    +0.000 NA
ATOM     11  O   UNL     1       7.375   4.786  13.536  0.00  0.00    +0.000 OA
ENDBRANCH   1   9
BRANCH   5  12
ATOM     12  C   UNL     1       4.539   3.522  17.067  0.00  0.00    +0.000 C 
BRANCH  12  13
ATOM     13  C   UNL     1       3.215   3.071  17.610  0.00  0.00    +0.000 A 
ATOM     14  C   UNL     1       2.943   2.032  18.533  0.00  0.00    +0.000 A 
ATOM     15  C   UNL     1       1.592   2.108  18.739  0.00  0.00    +0.000 A 
ATOM     16  O   UNL     1       1.073   3.110  17.987  0.00  0.00    +0.000 OA
ATOM     17  N   UNL     1       2.089   3.722  17.275  0.00  0.00    +0.000 NA
ENDBRANCH  12  13
ENDBRANCH   5  12
TORSDOF 3
ENDMDL
MODEL 5
REMARK VINA RESULT:      -6.4      2.081      4.313
REMARK  Name = 
REMARK  4 active torsions:
REMARK  status: ('A' for Active; 'I' for Inactive)
REMARK    1  A    between atoms: C_1  and  C_2
REMARK    2  A    between atoms: C_4  and  C_5
REMARK    3  A    between atoms: N_9  and  C_10
REMARK    4  A    between atoms: C_10  and  C_11
REMARK                            x       y       z     vdW  Elec       q    Type
REMARK                         _______ _______ _______ _____ _____    ______ ____
ROOT
ATOM      1  C   UNL     1       6.863   4.688  16.539  0.00  0.00    +0.000 C 
ATOM      2  C   UNL     1       6.913   4.906  15.034  0.00  0.00    +0.000 C 
ATOM      3  C   UNL     1       6.016   3.800  14.524  0.00  0.00    +0.000 C 
ATOM      4  C   UNL     1       4.938   3.671  15.592  0.00  0.00    +0.000 C 
ATOM      5  N   UNL     1       5.439   4.312  16.832  0.00  0.00    +0.000 NA
ENDROOT
BRANCH   1   9
ATOM      6  C   UNL     1       8.222   9.216  18.032  0.00  0.00    +0.000 C 
ATOM      7  C   UNL     1       8.012   7.768  17.866  0.00  0.00    +0.000 A 
ATOM      8  N   UNL     1       7.576   7.101  16.824  0.00  0.00    +0.000 NA
ATOM      9  C   UNL     1       7.442   5.825  17.328  0.00  0.00    +0.000 A 
ATOM     10  N   UNL     1       7.857   5.687  18.597  0.00  0.00    +0.000 NA
ATOM     11  O   UNL     1       8.230   6.983  18.960  0.00  0.00    +0.000 OA
ENDBRANCH   1   9
BRANCH   5  12
ATOM     12  C   UNL     1       4.592   5.462  17.217  0.00  0.00    +0.000 C 
BRANCH  12  13
ATOM     13  C   UNL     1       3.601   5.116  18.289  0.00  0.00    +0.000 A 
ATOM     14  C   UNL     1       3.842   4.775  19.642  0.00  0.00    +0.000 A 
ATOM     15  C   UNL     1       2.593   4.641  20.184  0.00  0.00    +0.000 A 
ATOM     16  O   UNL     1       1.656   4.869  19.231  0.00  0.00    +0.000 OA
ATOM     17  N   UNL     1       2.283   5.170  18.035  0.00  0.00    +0.000 NA
ENDBRANCH  12  13
ENDBRANCH   5  12
TORSDOF 3
ENDMDL
MODEL 6
REMARK VINA RESULT:      -6.2      3.274      4.947
REMARK  Name = 
REMARK  4 active torsions:
REMARK  status: ('A' for Active; 'I' for Inactive)
REMARK    1  A    between atoms: C_1  and  C_2
REMARK    2  A    between atoms: C_4  and  C_5
REMARK    3  A    between atoms: N_9  and  C_10
REMARK    4  A    between atoms: C_10  and  C_11
REMARK                            x       y       z     vdW  Elec       q    Type
REMARK                         _______ _______ _______ _____ _____    ______ ____
ROOT
ATOM      1  C   UNL     1       3.146   6.065  19.037  0.00  0.00    +0.000 C 
ATOM      2  C   UNL     1       2.326   6.893  18.060  0.00  0.00    +0.000 C 
ATOM      3  C   UNL     1       3.363   7.842  17.500  0.00  0.00    +0.000 C 
ATOM      4  C   UNL     1       4.640   7.013  17.454  0.00  0.00    +0.000 C 
ATOM      5  N   UNL     1       4.465   5.846  18.353  0.00  0.00    +0.000 NA
ENDROOT
BRANCH   1   9
ATOM      6  C   UNL     1       1.481   2.391  21.921  0.00  0.00    +0.000 C 
ATOM      7  C   UNL     1       1.805   3.303  20.811  0.00  0.00    +0.000 A 
ATOM      8  N   UNL     1       2.725   4.235  20.737  0.00  0.00    +0.000 NA
ATOM      9  C   UNL     1       2.429   4.845  19.537  0.00  0.00    +0.000 A 
ATOM     10  N   UNL     1       1.429   4.265  18.856  0.00  0.00    +0.000 NA
ATOM     11  O   UNL     1       1.007   3.242  19.707  0.00  0.00    +0.000 OA
ENDBRANCH   1   9
BRANCH   5  12
ATOM     12  C   UNL     1       4.534   4.576  17.597  0.00  0.00    +0.000 C 
BRANCH  12  13
ATOM     13  C   UNL     1       5.690   4.537  16.640  0.00  0.00    +0.000 A 
ATOM     14  C   UNL     1       5.670   4.577  15.225  0.00  0.00    +0.000 A 
ATOM     15  C   UNL     1       6.992   4.598  14.869  0.00  0.00    +0.000 A 
ATOM     16  O   UNL     1       7.763   4.560  15.984  0.00  0.00    +0.000 OA
ATOM     17  N   UNL     1       6.950   4.523  17.103  0.00  0.00    +0.000 NA
ENDBRANCH  12  13
ENDBRANCH   5  12
TORSDOF 3
ENDMDL
MODEL 7
REMARK VINA RESULT:      -6.2      2.292      4.227
REMARK  Name = 
REMARK  4 active torsions:
REMARK  status: ('A' for Active; 'I' for Inactive)
REMARK    1  A    between atoms: C_1  and  C_2
REMARK    2  A    between atoms: C_4  and  C_5
REMARK    3  A    between atoms: N_9  and  C_10
REMARK    4  A    between atoms: C_10  and  C_11
REMARK                            x       y       z     vdW  Elec       q    Type
REMARK                         _______ _______ _______ _____ _____    ______ ____
ROOT
ATOM      1  C   UNL     1       5.475   4.258  18.708  0.00  0.00    +0.000 C 
ATOM      2  C   UNL     1       5.979   5.555  19.322  0.00  0.00    +0.000 C 
ATOM      3  C   UNL     1       7.453   5.513  18.985  0.00  0.00    +0.000 C 
ATOM      4  C   UNL     1       7.505   4.837  17.621  0.00  0.00    +0.000 C 
ATOM      5  N   UNL     1       6.222   4.124  17.412  0.00  0.00    +0.000 NA
ENDROOT
BRANCH   1   9
ATOM      6  C   UNL     1       0.822   2.545  18.709  0.00  0.00    +0.000 C 
ATOM      7  C   UNL     1       2.047   3.357  18.617  0.00  0.00    +0.000 A 
ATOM      8  N   UNL     1       3.299   2.974  18.532  0.00  0.00    +0.000 NA
ATOM      9  C   UNL     1       3.978   4.168  18.642  0.00  0.00    +0.000 A 
ATOM     10  N   UNL     1       3.186   5.250  18.704  0.00  0.00    +0.000 NA
ATOM     11  O   UNL     1       1.899   4.710  18.695  0.00  0.00    +0.000 OA
ENDBRANCH   1   9
BRANCH   5  12
ATOM     12  C   UNL     1       5.491   4.674  16.249  0.00  0.00    +0.000 C 
BRANCH  12  13
ATOM     13  C   UNL     1       6.324   4.697  15.001  0.00  0.00    +0.000 A 
ATOM     14  C   UNL     1       6.185   3.916  13.828  0.00  0.00    +0.000 A 
ATOM     15  C   UNL     1       7.146   4.401  12.984  0.00  0.00    +0.000 A 
ATOM     16  O   UNL     1       7.832   5.396  13.599  0.00  0.00    +0.000 OA
ATOM     17  N   UNL     1       7.319   5.588  14.869  0.00  0.00    +0.000 NA
ENDBRANCH  12  13
ENDBRANCH   5  12
TORSDOF 3
ENDMDL
MODEL 8
REMARK VINA RESULT:      -6.1      3.009      5.193
REMARK  Name = 
REMARK  4 active torsions:
REMARK  status: ('A' for Active; 'I' for Inactive)
REMARK    1  A    between atoms: C_1  and  C_2
REMARK    2  A    between atoms: C_4  and  C_5
REMARK    3  A    between atoms: N_9  and  C_10
REMARK    4  A    between atoms: C_10  and  C_11
REMARK                            x       y       z     vdW  Elec       q    Type
REMARK                         _______ _______ _______ _____ _____    ______ ____
ROOT
ATOM      1  C   UNL     1       3.978   3.396  18.736  0.00  0.00    +0.000 C 
ATOM      2  C   UNL     1       3.251   2.271  18.015  0.00  0.00    +0.000 C 
ATOM      3  C   UNL     1       1.945   2.200  18.775  0.00  0.00    +0.000 C 
ATOM      4  C   UNL     1       1.654   3.647  19.153  0.00  0.00    +0.000 C 
ATOM      5  N   UNL     1       2.918   4.415  19.039  0.00  0.00    +0.000 NA
ENDROOT
BRANCH   1   9
ATOM      6  C   UNL     1       7.130   4.825  15.186  0.00  0.00    +0.000 C 
ATOM      7  C   UNL     1       6.480   4.432  16.447  0.00  0.00    +0.000 A 
ATOM      8  N   UNL     1       5.339   3.814  16.642  0.00  0.00    +0.000 NA
ATOM      9  C   UNL     1       5.200   3.881  18.011  0.00  0.00    +0.000 A 
ATOM     10  N   UNL     1       6.244   4.436  18.646  0.00  0.00    +0.000 NA
ATOM     11  O   UNL     1       7.095   4.811  17.605  0.00  0.00    +0.000 OA
ENDBRANCH   1   9
BRANCH   5  12
ATOM     12  C   UNL     1       2.806   5.474  18.013  0.00  0.00    +0.000 C 
BRANCH  12  13
ATOM     13  C   UNL     1       2.414   6.802  18.593  0.00  0.00    +0.000 A 
ATOM     14  C   UNL     1       2.154   8.021  17.921  0.00  0.00    +0.000 A 
ATOM     15  C   UNL     1       1.761   8.876  18.914  0.00  0.00    +0.000 A 
ATOM     16  O   UNL     1       1.791   8.233  20.108  0.00  0.00    +0.000 OA
ATOM     17  N   UNL     1       2.200   6.926  19.913  0.00  0.00    +0.000 NA
ENDBRANCH  12  13
ENDBRANCH   5  12
TORSDOF 3
ENDMDL
MODEL 9
REMARK VINA RESULT:      -6.1      4.141      6.652
REMARK  Name = 
REMARK  4 active torsions:
REMARK  status: ('A' for Active; 'I' for Inactive)
REMARK    1  A    between atoms: C_1  and  C_2
REMARK    2  A    between atoms: C_4  and  C_5
REMARK    3  A    between atoms: N_9  and  C_10
REMARK    4  A    between atoms: C_10  and  C_11
REMARK                            x       y       z     vdW  Elec       q    Type
REMARK                         _______ _______ _______ _____ _____    ______ ____
ROOT
ATOM      1  C   UNL     1       3.373   4.352  17.449  0.00  0.00    +0.000 C 
ATOM      2  C   UNL     1       4.822   3.900  17.556  0.00  0.00    +0.000 C 
ATOM      3  C   UNL     1       5.536   4.919  16.696  0.00  0.00    +0.000 C 
ATOM      4  C   UNL     1       4.755   6.208  16.920  0.00  0.00    +0.000 C 
ATOM      5  N   UNL     1       3.429   5.852  17.480  0.00  0.00    +0.000 NA
ENDROOT
BRANCH   1   9
ATOM      6  C   UNL     1       1.442   2.538  21.640  0.00  0.00    +0.000 C 
ATOM      7  C   UNL     1       1.738   2.914  20.247  0.00  0.00    +0.000 A 
ATOM      8  N   UNL     1       2.853   3.366  19.723  0.00  0.00    +0.000 NA
ATOM      9  C   UNL     1       2.464   3.685  18.440  0.00  0.00    +0.000 A 
ATOM     10  N   UNL     1       1.192   3.366  18.152  0.00  0.00    +0.000 NA
ATOM     11  O   UNL     1       0.705   2.859  19.358  0.00  0.00    +0.000 OA
ENDBRANCH   1   9
BRANCH   5  12
ATOM     12  C   UNL     1       3.252   6.422  18.833  0.00  0.00    +0.000 C 
BRANCH  12  13
ATOM     13  C   UNL     1       2.423   7.674  18.829  0.00  0.00    +0.000 A 
ATOM     14  C   UNL     1       2.123   8.534  17.745  0.00  0.00    +0.000 A 
ATOM     15  C   UNL     1       1.269   9.462  18.277  0.00  0.00    +0.000 A 
ATOM     16  O   UNL     1       1.073   9.197  19.592  0.00  0.00    +0.000 OA
ATOM     17  N   UNL     1       1.795   8.072  19.946  0.00  0.00    +0.000 NA
ENDBRANCH  12  13
ENDBRANCH   5  12
TORSDOF 3
ENDMDL
