MODEL 1
REMARK VINA RESULT:      -8.1      0.000      0.000
REMARK  Name = 
REMARK  7 active torsions:
REMARK  status: ('A' for Active; 'I' for Inactive)
REMARK    1  A    between atoms: C_1  and  N_2
REMARK    2  A    between atoms: N_2  and  C_3
REMARK    3  A    between atoms: N_2  and  C_10
REMARK    4  A    between atoms: C_3  and  C_4
REMARK    5  A    between atoms: C_14  and  C_15
REMARK    6  A    between atoms: C_15  and  O_17
REMARK    7  A    between atoms: C_22  and  C_23
REMARK                            x       y       z     vdW  Elec       q    Type
REMARK                         _______ _______ _______ _____ _____    ______ ____
ROOT
ATOM      1  C   UNL     1       5.501   5.196  16.688  0.00  0.00    +0.000 A 
ATOM      2  N   UNL     1       5.107   4.260  15.785  0.00  0.00    +0.000 NA
ATOM      3  C   UNL     1       5.752   4.186  14.603  0.00  0.00    +0.000 A 
ATOM      4  C   UNL     1       5.388   3.230  13.659  0.00  0.00    +0.000 A 
ATOM      5  C   UNL     1       6.057   3.125  12.428  0.00  0.00    +0.000 A 
ATOM      6  C   UNL     1       7.090   4.009  12.130  0.00  0.00    +0.000 A 
ATOM      7  C   UNL     1       7.456   4.970  13.072  0.00  0.00    +0.000 A 
ATOM      8  C   UNL     1       6.807   5.069  14.295  0.00  0.00    +0.000 A 
ATOM      9  N   UNL     1       7.212   6.002  15.165  0.00  0.00    +0.000 NA
ATOM     10  C   UNL     1       6.588   6.049  16.378  0.00  0.00    +0.000 A 
ENDROOT
BRANCH  10  11
ATOM     11  C   UNL     1       7.255   6.967  17.335  0.00  0.00    +0.000 A 
ATOM     12  C   UNL     1       7.318   8.352  17.074  0.00  0.00    +0.000 A 
ATOM     13  C   UNL     1       8.040   9.216  17.901  0.00  0.00    +0.000 A 
ATOM     14  C   UNL     1       8.699   8.708  19.011  0.00  0.00    +0.000 A 
ATOM     15  F   UNL     1       9.419   9.528  19.787  0.00  0.00    +0.000 F 
ATOM     16  C   UNL     1       8.637   7.358  19.317  0.00  0.00    +0.000 A 
ATOM     17  C   UNL     1       7.929   6.496  18.480  0.00  0.00    +0.000 A 
ENDBRANCH  10  11
BRANCH   1  19
ATOM     18  C   UNL     1       5.152   4.210  18.869  0.00  0.00    +0.000 C 
ATOM     19  N   UNL     1       4.829   5.261  17.914  0.00  0.00    +0.000 N 
BRANCH  19  20
ATOM     20  C   UNL     1       3.417   5.681  17.853  0.00  0.00    +0.000 C 
BRANCH  20  21
ATOM     21  C   UNL     1       2.443   4.767  18.579  0.00  0.00    +0.000 A 
ATOM     22  C   UNL     1       2.030   5.066  19.875  0.00  0.00    +0.000 A 
ATOM     23  C   UNL     1       1.176   4.183  20.531  0.00  0.00    +0.000 A 
ATOM     24  C   UNL     1       0.752   3.033  19.877  0.00  0.00    +0.000 A 
ATOM     25  C   UNL     1       1.198   2.813  18.586  0.00  0.00    +0.000 A 
ATOM     26  N   UNL     1       2.031   3.647  17.925  0.00  0.00    +0.000 NA
ENDBRANCH  20  21
ENDBRANCH  19  20
ENDBRANCH   1  19
BRANCH   5  27
ATOM     27  C   UNL     1       5.586   2.102  11.460  0.00  0.00    +0.000 C 
ATOM     28  O   UNL     1       4.506   2.183  10.897  0.00  0.00    +0.000 OA
BRANCH  27  29
ATOM     29  O   UNL     1       6.440   1.076  11.272  0.00  0.00    +0.000 OA
ATOM     30  H   UNL     1       6.782   0.961  10.367  0.00  0.00    +0.000 HD
ENDBRANCH  27  29
ENDBRANCH   5  27
TORSDOF 6
ENDMDL
MODEL 2
REMARK VINA RESULT:      -7.9      4.635      6.825
REMARK  Name = 
REMARK  7 active torsions:
REMARK  status: ('A' for Active; 'I' for Inactive)
REMARK    1  A    between atoms: C_1  and  N_2
REMARK    2  A    between atoms: N_2  and  C_3
REMARK    3  A    between atoms: N_2  and  C_10
REMARK    4  A    between atoms: C_3  and  C_4
REMARK    5  A    between atoms: C_14  and  C_15
REMARK    6  A    between atoms: C_15  and  O_17
REMARK    7  A    between atoms: C_22  and  C_23
REMARK                            x       y       z     vdW  Elec       q    Type
REMARK                         _______ _______ _______ _____ _____    ______ ____
ROOT
ATOM      1  C   UNL     1       4.360   5.677  18.921  0.00  0.00    +0.000 A 
ATOM      2  N   UNL     1       3.482   6.234  19.796  0.00  0.00    +0.000 NA
ATOM      3  C   UNL     1       2.713   7.260  19.380  0.00  0.00    +0.000 A 
ATOM      4  C   UNL     1       1.791   7.846  20.242  0.00  0.00    +0.000 A 
ATOM      5  C   UNL     1       0.968   8.904  19.824  0.00  0.00    +0.000 A 
ATOM      6  C   UNL     1       1.089   9.399  18.528  0.00  0.00    +0.000 A 
ATOM      7  C   UNL     1       2.014   8.816  17.662  0.00  0.00    +0.000 A 
ATOM      8  C   UNL     1       2.819   7.761  18.067  0.00  0.00    +0.000 A 
ATOM      9  N   UNL     1       3.678   7.233  17.186  0.00  0.00    +0.000 NA
ATOM     10  C   UNL     1       4.427   6.167  17.595  0.00  0.00    +0.000 A 
ENDROOT
BRANCH  10  11
ATOM     11  C   UNL     1       5.178   5.531  16.484  0.00  0.00    +0.000 A 
ATOM     12  C   UNL     1       6.445   6.019  16.103  0.00  0.00    +0.000 A 
ATOM     13  C   UNL     1       7.116   5.510  14.987  0.00  0.00    +0.000 A 
ATOM     14  C   UNL     1       6.533   4.493  14.245  0.00  0.00    +0.000 A 
ATOM     15  F   UNL     1       7.159   4.025  13.156  0.00  0.00    +0.000 F 
ATOM     16  C   UNL     1       5.303   3.966  14.604  0.00  0.00    +0.000 A 
ATOM     17  C   UNL     1       4.629   4.489  15.708  0.00  0.00    +0.000 A 
ENDBRANCH  10  11
BRANCH   1  19
ATOM     18  C   UNL     1       6.590   4.824  19.313  0.00  0.00    +0.000 C 
ATOM     19  N   UNL     1       5.151   4.609  19.362  0.00  0.00    +0.000 N 
BRANCH  19  20
ATOM     20  C   UNL     1       4.675   3.263  18.995  0.00  0.00    +0.000 C 
BRANCH  20  21
ATOM     21  C   UNL     1       3.216   2.986  19.317  0.00  0.00    +0.000 A 
ATOM     22  C   UNL     1       2.281   2.857  18.292  0.00  0.00    +0.000 A 
ATOM     23  C   UNL     1       0.944   2.653  18.622  0.00  0.00    +0.000 A 
ATOM     24  C   UNL     1       0.575   2.577  19.959  0.00  0.00    +0.000 A 
ATOM     25  C   UNL     1       1.565   2.704  20.918  0.00  0.00    +0.000 A 
ATOM     26  N   UNL     1       2.869   2.908  20.630  0.00  0.00    +0.000 NA
ENDBRANCH  20  21
ENDBRANCH  19  20
ENDBRANCH   1  19
BRANCH   5  27
ATOM     27  C   UNL     1       0.034   9.500  20.814  0.00  0.00    +0.000 C 
ATOM     28  O   UNL     1      -0.236  10.690  20.825  0.00  0.00    +0.000 OA
BRANCH  27  29
ATOM     29  O   UNL     1      -0.470   8.622  21.705  0.00  0.00    +0.000 OA
ATOM     30  H   UNL     1      -0.849   7.805  21.336  0.00  0.00    +0.000 HD
ENDBRANCH  27  29
ENDBRANCH   5  27
TORSDOF 6
ENDMDL
MODEL 3
REMARK VINA RESULT:      -7.8      4.708      6.941
REMARK  Name = 
REMARK  7 active torsions:
REMARK  status: ('A' for Active; 'I' for Inactive)
REMARK    1  A    between atoms: C_1  and  N_2
REMARK    2  A    between atoms: N_2  and  C_3
REMARK    3  A    between atoms: N_2  and  C_10
REMARK    4  A    between atoms: C_3  and  C_4
REMARK    5  A    between atoms: C_14  and  C_15
REMARK    6  A    between atoms: C_15  and  O_17
REMARK    7  A    between atoms: C_22  and  C_23
REMARK                            x       y       z     vdW  Elec       q    Type
REMARK                         _______ _______ _______ _____ _____    ______ ____
ROOT
ATOM      1  C   UNL     1       4.258   5.771  18.969  0.00  0.00    +0.000 A 
ATOM      2  N   UNL     1       3.392   6.304  19.870  0.00  0.00    +0.000 NA
ATOM      3  C   UNL     1       2.598   7.324  19.483  0.00  0.00    +0.000 A 
ATOM      4  C   UNL     1       1.687   7.885  20.373  0.00  0.00    +0.000 A 
ATOM      5  C   UNL     1       0.839   8.936  19.986  0.00  0.00    +0.000 A 
ATOM      6  C   UNL     1       0.924   9.448  18.694  0.00  0.00    +0.000 A 
ATOM      7  C   UNL     1       1.839   8.890  17.801  0.00  0.00    +0.000 A 
ATOM      8  C   UNL     1       2.668   7.842  18.174  0.00  0.00    +0.000 A 
ATOM      9  N   UNL     1       3.515   7.338  17.268  0.00  0.00    +0.000 NA
ATOM     10  C   UNL     1       4.288   6.279  17.648  0.00  0.00    +0.000 A 
ENDROOT
BRANCH  10  11
ATOM     11  C   UNL     1       5.024   5.667  16.512  0.00  0.00    +0.000 A 
ATOM     12  C   UNL     1       4.472   4.580  15.803  0.00  0.00    +0.000 A 
ATOM     13  C   UNL     1       5.197   3.917  14.808  0.00  0.00    +0.000 A 
ATOM     14  C   UNL     1       6.481   4.343  14.500  0.00  0.00    +0.000 A 
ATOM     15  F   UNL     1       7.190   3.689  13.570  0.00  0.00    +0.000 F 
ATOM     16  C   UNL     1       7.047   5.425  15.154  0.00  0.00    +0.000 A 
ATOM     17  C   UNL     1       6.327   6.074  16.157  0.00  0.00    +0.000 A 
ENDBRANCH  10  11
BRANCH   1  19
ATOM     18  C   UNL     1       6.508   4.960  19.334  0.00  0.00    +0.000 C 
ATOM     19  N   UNL     1       5.074   4.710  19.378  0.00  0.00    +0.000 N 
BRANCH  19  20
ATOM     20  C   UNL     1       4.629   3.364  18.974  0.00  0.00    +0.000 C 
BRANCH  20  21
ATOM     21  C   UNL     1       3.181   3.040  19.301  0.00  0.00    +0.000 A 
ATOM     22  C   UNL     1       2.246   2.887  18.279  0.00  0.00    +0.000 A 
ATOM     23  C   UNL     1       0.917   2.640  18.613  0.00  0.00    +0.000 A 
ATOM     24  C   UNL     1       0.557   2.545  19.952  0.00  0.00    +0.000 A 
ATOM     25  C   UNL     1       1.546   2.698  20.907  0.00  0.00    +0.000 A 
ATOM     26  N   UNL     1       2.842   2.944  20.615  0.00  0.00    +0.000 NA
ENDBRANCH  20  21
ENDBRANCH  19  20
ENDBRANCH   1  19
BRANCH   5  27
ATOM     27  C   UNL     1      -0.081   9.505  21.004  0.00  0.00    +0.000 C 
ATOM     28  O   UNL     1      -0.569   8.829  21.895  0.00  0.00    +0.000 OA
BRANCH  27  29
ATOM     29  O   UNL     1      -0.343  10.818  20.848  0.00  0.00    +0.000 OA
ATOM     30  H   UNL     1      -0.727  11.082  19.993  0.00  0.00    +0.000 HD
ENDBRANCH  27  29
ENDBRANCH   5  27
TORSDOF 6
ENDMDL
MODEL 4
REMARK VINA RESULT:      -7.5      0.573      1.283
REMARK  Name = 
REMARK  7 active torsions:
REMARK  status: ('A' for Active; 'I' for Inactive)
REMARK    1  A    between atoms: C_1  and  N_2
REMARK    2  A    between atoms: N_2  and  C_3
REMARK    3  A    between atoms: N_2  and  C_10
REMARK    4  A    between atoms: C_3  and  C_4
REMARK    5  A    between atoms: C_14  and  C_15
REMARK    6  A    between atoms: C_15  and  O_17
REMARK    7  A    between atoms: C_22  and  C_23
REMARK                            x       y       z     vdW  Elec       q    Type
REMARK                         _______ _______ _______ _____ _____    ______ ____
ROOT
ATOM      1  C   UNL     1       5.665   5.346  16.718  0.00  0.00    +0.000 A 
ATOM      2  N   UNL     1       5.205   4.415  15.843  0.00  0.00    +0.000 NA
ATOM      3  C   UNL     1       5.806   4.300  14.641  0.00  0.00    +0.000 A 
ATOM      4  C   UNL     1       5.373   3.346  13.724  0.00  0.00    +0.000 A 
ATOM      5  C   UNL     1       5.995   3.198  12.474  0.00  0.00    +0.000 A 
ATOM      6  C   UNL     1       7.052   4.036  12.129  0.00  0.00    +0.000 A 
ATOM      7  C   UNL     1       7.487   4.995  13.044  0.00  0.00    +0.000 A 
ATOM      8  C   UNL     1       6.884   5.135  14.286  0.00  0.00    +0.000 A 
ATOM      9  N   UNL     1       7.355   6.063  15.128  0.00  0.00    +0.000 NA
ATOM     10  C   UNL     1       6.773   6.151  16.360  0.00  0.00    +0.000 A 
ENDROOT
BRANCH  10  11
ATOM     11  C   UNL     1       7.508   7.055  17.281  0.00  0.00    +0.000 A 
ATOM     12  C   UNL     1       8.037   6.567  18.494  0.00  0.00    +0.000 A 
ATOM     13  C   UNL     1       8.629   7.424  19.426  0.00  0.00    +0.000 A 
ATOM     14  C   UNL     1       8.714   8.781  19.150  0.00  0.00    +0.000 A 
ATOM     15  F   UNL     1       9.252   9.608  20.055  0.00  0.00    +0.000 F 
ATOM     16  C   UNL     1       8.233   9.294  17.956  0.00  0.00    +0.000 A 
ATOM     17  C   UNL     1       7.627   8.438  17.035  0.00  0.00    +0.000 A 
ENDBRANCH  10  11
BRANCH   1  19
ATOM     18  C   UNL     1       5.351   4.404  18.924  0.00  0.00    +0.000 C 
ATOM     19  N   UNL     1       5.038   5.454  17.965  0.00  0.00    +0.000 N 
BRANCH  19  20
ATOM     20  C   UNL     1       3.642   5.929  17.945  0.00  0.00    +0.000 C 
BRANCH  20  21
ATOM     21  C   UNL     1       2.640   5.010  18.623  0.00  0.00    +0.000 A 
ATOM     22  C   UNL     1       2.070   3.949  17.922  0.00  0.00    +0.000 A 
ATOM     23  C   UNL     1       1.119   3.155  18.557  0.00  0.00    +0.000 A 
ATOM     24  C   UNL     1       0.767   3.433  19.872  0.00  0.00    +0.000 A 
ATOM     25  C   UNL     1       1.387   4.497  20.503  0.00  0.00    +0.000 A 
ATOM     26  N   UNL     1       2.309   5.289  19.913  0.00  0.00    +0.000 NA
ENDBRANCH  20  21
ENDBRANCH  19  20
ENDBRANCH   1  19
BRANCH   5  27
ATOM     27  C   UNL     1       5.452   2.182  11.537  0.00  0.00    +0.000 C 
ATOM     28  O   UNL     1       4.375   2.316  10.978  0.00  0.00    +0.000 OA
BRANCH  27  29
ATOM     29  O   UNL     1       6.237   1.098  11.372  0.00  0.00    +0.000 OA
ATOM     30  H   UNL     1       5.859   0.246  11.654  0.00  0.00    +0.000 HD
ENDBRANCH  27  29
ENDBRANCH   5  27
TORSDOF 6
ENDMDL
MODEL 5
REMARK VINA RESULT:      -7.4      9.423     11.693
REMARK  Name = 
REMARK  7 active torsions:
REMARK  status: ('A' for Active; 'I' for Inactive)
REMARK    1  A    between atoms: C_1  and  N_2
REMARK    2  A    between atoms: N_2  and  C_3
REMARK    3  A    between atoms: N_2  and  C_10
REMARK    4  A    between atoms: C_3  and  C_4
REMARK    5  A    between atoms: C_14  and  C_15
REMARK    6  A    between atoms: C_15  and  O_17
REMARK    7  A    between atoms: C_22  and  C_23
REMARK                            x       y       z     vdW  Elec       q    Type
REMARK                         _______ _______ _______ _____ _____    ______ ____
ROOT
ATOM      1  C   UNL     1      -1.266  12.676  19.588  0.00  0.00    +0.000 A 
ATOM      2  N   UNL     1      -1.222  12.148  18.337  0.00  0.00    +0.000 NA
ATOM      3  C   UNL     1      -2.368  11.711  17.775  0.00  0.00    +0.000 A 
ATOM      4  C   UNL     1      -2.366  11.178  16.489  0.00  0.00    +0.000 A 
ATOM      5  C   UNL     1      -3.549  10.734  15.878  0.00  0.00    +0.000 A 
ATOM      6  C   UNL     1      -4.751  10.803  16.578  0.00  0.00    +0.000 A 
ATOM      7  C   UNL     1      -4.757  11.334  17.868  0.00  0.00    +0.000 A 
ATOM      8  C   UNL     1      -3.592  11.787  18.470  0.00  0.00    +0.000 A 
ATOM      9  N   UNL     1      -3.663  12.299  19.704  0.00  0.00    +0.000 NA
ATOM     10  C   UNL     1      -2.510  12.779  20.256  0.00  0.00    +0.000 A 
ENDROOT
BRANCH  10  11
ATOM     11  C   UNL     1      -2.742  13.515  21.525  0.00  0.00    +0.000 A 
ATOM     12  C   UNL     1      -3.014  12.816  22.720  0.00  0.00    +0.000 A 
ATOM     13  C   UNL     1      -3.348  13.491  23.897  0.00  0.00    +0.000 A 
ATOM     14  C   UNL     1      -3.401  14.877  23.899  0.00  0.00    +0.000 A 
ATOM     15  F   UNL     1      -3.753  15.525  25.017  0.00  0.00    +0.000 F 
ATOM     16  C   UNL     1      -3.112  15.601  22.753  0.00  0.00    +0.000 A 
ATOM     17  C   UNL     1      -2.794  14.923  21.575  0.00  0.00    +0.000 A 
ENDBRANCH  10  11
BRANCH   1  19
ATOM     18  C   UNL     1       0.410  14.418  19.679  0.00  0.00    +0.000 C 
ATOM     19  N   UNL     1      -0.073  13.130  20.160  0.00  0.00    +0.000 N 
BRANCH  19  20
ATOM     20  C   UNL     1       0.950  12.101  20.418  0.00  0.00    +0.000 C 
BRANCH  20  21
ATOM     21  C   UNL     1       0.470  10.906  21.226  0.00  0.00    +0.000 A 
ATOM     22  C   UNL     1       0.456   9.633  20.660  0.00  0.00    +0.000 A 
ATOM     23  C   UNL     1      -0.036   8.568  21.410  0.00  0.00    +0.000 A 
ATOM     24  C   UNL     1      -0.493   8.797  22.701  0.00  0.00    +0.000 A 
ATOM     25  C   UNL     1      -0.436  10.088  23.195  0.00  0.00    +0.000 A 
ATOM     26  N   UNL     1       0.030  11.143  22.491  0.00  0.00    +0.000 NA
ENDBRANCH  20  21
ENDBRANCH  19  20
ENDBRANCH   1  19
BRANCH   5  27
ATOM     27  C   UNL     1      -3.458  10.145  14.518  0.00  0.00    +0.000 C 
ATOM     28  O   UNL     1      -2.391   9.950  13.960  0.00  0.00    +0.000 OA
BRANCH  27  29
ATOM     29  O   UNL     1      -4.649   9.863  13.951  0.00  0.00    +0.000 OA
ATOM     30  H   UNL     1      -4.673   9.086  13.365  0.00  0.00    +0.000 HD
ENDBRANCH  27  29
ENDBRANCH   5  27
TORSDOF 6
ENDMDL
MODEL 6
REMARK VINA RESULT:      -7.4      1.406      2.043
REMARK  Name = 
REMARK  7 active torsions:
REMARK  status: ('A' for Active; 'I' for Inactive)
REMARK    1  A    between atoms: C_1  and  N_2
REMARK    2  A    between atoms: N_2  and  C_3
REMARK    3  A    between atoms: N_2  and  C_10
REMARK    4  A    between atoms: C_3  and  C_4
REMARK    5  A    between atoms: C_14  and  C_15
REMARK    6  A    between atoms: C_15  and  O_17
REMARK    7  A    between atoms: C_22  and  C_23
REMARK                            x       y       z     vdW  Elec       q    Type
REMARK                         _______ _______ _______ _____ _____    ______ ____
ROOT
ATOM      1  C   UNL     1       5.469   5.157  16.677  0.00  0.00    +0.000 A 
ATOM      2  N   UNL     1       5.075   4.222  15.774  0.00  0.00    +0.000 NA
ATOM      3  C   UNL     1       5.717   4.151  14.590  0.00  0.00    +0.000 A 
ATOM      4  C   UNL     1       5.353   3.196  13.645  0.00  0.00    +0.000 A 
ATOM      5  C   UNL     1       6.019   3.092  12.414  0.00  0.00    +0.000 A 
ATOM      6  C   UNL     1       7.051   3.978  12.115  0.00  0.00    +0.000 A 
ATOM      7  C   UNL     1       7.417   4.938  13.057  0.00  0.00    +0.000 A 
ATOM      8  C   UNL     1       6.771   5.034  14.282  0.00  0.00    +0.000 A 
ATOM      9  N   UNL     1       7.177   5.967  15.152  0.00  0.00    +0.000 NA
ATOM     10  C   UNL     1       6.555   6.012  16.366  0.00  0.00    +0.000 A 
ENDROOT
BRANCH  10  11
ATOM     11  C   UNL     1       7.223   6.930  17.323  0.00  0.00    +0.000 A 
ATOM     12  C   UNL     1       7.265   8.317  17.074  0.00  0.00    +0.000 A 
ATOM     13  C   UNL     1       7.988   9.183  17.900  0.00  0.00    +0.000 A 
ATOM     14  C   UNL     1       8.667   8.672  18.997  0.00  0.00    +0.000 A 
ATOM     15  F   UNL     1       9.387   9.495  19.772  0.00  0.00    +0.000 F 
ATOM     16  C   UNL     1       8.626   7.319  19.291  0.00  0.00    +0.000 A 
ATOM     17  C   UNL     1       7.917   6.456  18.455  0.00  0.00    +0.000 A 
ENDBRANCH  10  11
BRANCH   1  19
ATOM     18  C   UNL     1       5.356   4.399  18.972  0.00  0.00    +0.000 C 
ATOM     19  N   UNL     1       4.800   5.220  17.905  0.00  0.00    +0.000 N 
BRANCH  19  20
ATOM     20  C   UNL     1       3.329   5.294  17.833  0.00  0.00    +0.000 C 
BRANCH  20  21
ATOM     21  C   UNL     1       2.725   6.588  18.353  0.00  0.00    +0.000 A 
ATOM     22  C   UNL     1       2.640   7.707  17.527  0.00  0.00    +0.000 A 
ATOM     23  C   UNL     1       2.127   8.892  18.048  0.00  0.00    +0.000 A 
ATOM     24  C   UNL     1       1.707   8.929  19.371  0.00  0.00    +0.000 A 
ATOM     25  C   UNL     1       1.814   7.773  20.123  0.00  0.00    +0.000 A 
ATOM     26  N   UNL     1       2.312   6.610  19.649  0.00  0.00    +0.000 NA
ENDBRANCH  20  21
ENDBRANCH  19  20
ENDBRANCH   1  19
BRANCH   5  27
ATOM     27  C   UNL     1       5.547   2.071  11.445  0.00  0.00    +0.000 C 
ATOM     28  O   UNL     1       4.513   2.200  10.810  0.00  0.00    +0.000 OA
BRANCH  27  29
ATOM     29  O   UNL     1       6.345   0.988  11.342  0.00  0.00    +0.000 OA
ATOM     30  H   UNL     1       6.995   1.001  10.618  0.00  0.00    +0.000 HD
ENDBRANCH  27  29
ENDBRANCH   5  27
TORSDOF 6
ENDMDL
MODEL 7
REMARK VINA RESULT:      -7.1      7.420      9.112
REMARK  Name = 
REMARK  7 active torsions:
REMARK  status: ('A' for Active; 'I' for Inactive)
REMARK    1  A    between atoms: C_1  and  N_2
REMARK    2  A    between atoms: N_2  and  C_3
REMARK    3  A    between atoms: N_2  and  C_10
REMARK    4  A    between atoms: C_3  and  C_4
REMARK    5  A    between atoms: C_14  and  C_15
REMARK    6  A    between atoms: C_15  and  O_17
REMARK    7  A    between atoms: C_22  and  C_23
REMARK                            x       y       z     vdW  Elec       q    Type
REMARK                         _______ _______ _______ _____ _____    ______ ____
ROOT
ATOM      1  C   UNL     1       0.636   9.672  21.011  0.00  0.00    +0.000 A 
ATOM      2  N   UNL     1       1.038   8.382  21.160  0.00  0.00    +0.000 NA
ATOM      3  C   UNL     1       1.709   7.790  20.151  0.00  0.00    +0.000 A 
ATOM      4  C   UNL     1       2.152   6.476  20.272  0.00  0.00    +0.000 A 
ATOM      5  C   UNL     1       2.867   5.846  19.241  0.00  0.00    +0.000 A 
ATOM      6  C   UNL     1       3.121   6.538  18.060  0.00  0.00    +0.000 A 
ATOM      7  C   UNL     1       2.677   7.854  17.933  0.00  0.00    +0.000 A 
ATOM      8  C   UNL     1       1.982   8.485  18.955  0.00  0.00    +0.000 A 
ATOM      9  N   UNL     1       1.594   9.754  18.780  0.00  0.00    +0.000 NA
ATOM     10  C   UNL     1       0.952  10.366  19.818  0.00  0.00    +0.000 A 
ENDROOT
BRANCH  10  11
ATOM     11  C   UNL     1       0.763  11.823  19.600  0.00  0.00    +0.000 A 
ATOM     12  C   UNL     1      -0.251  12.293  18.739  0.00  0.00    +0.000 A 
ATOM     13  C   UNL     1      -0.371  13.651  18.430  0.00  0.00    +0.000 A 
ATOM     14  C   UNL     1       0.514  14.560  18.991  0.00  0.00    +0.000 A 
ATOM     15  F   UNL     1       0.422  15.857  18.671  0.00  0.00    +0.000 F 
ATOM     16  C   UNL     1       1.505  14.141  19.864  0.00  0.00    +0.000 A 
ATOM     17  C   UNL     1       1.632  12.782  20.157  0.00  0.00    +0.000 A 
ENDBRANCH  10  11
BRANCH   1  19
ATOM     18  C   UNL     1       0.047   9.611  23.357  0.00  0.00    +0.000 C 
ATOM     19  N   UNL     1      -0.055  10.278  22.066  0.00  0.00    +0.000 N 
BRANCH  19  20
ATOM     20  C   UNL     1      -1.369  10.855  21.727  0.00  0.00    +0.000 C 
BRANCH  20  21
ATOM     21  C   UNL     1      -1.784  12.048  22.572  0.00  0.00    +0.000 A 
ATOM     22  C   UNL     1      -0.929  13.138  22.720  0.00  0.00    +0.000 A 
ATOM     23  C   UNL     1      -1.317  14.194  23.540  0.00  0.00    +0.000 A 
ATOM     24  C   UNL     1      -2.547  14.139  24.185  0.00  0.00    +0.000 A 
ATOM     25  C   UNL     1      -3.344  13.027  23.979  0.00  0.00    +0.000 A 
ATOM     26  N   UNL     1      -2.993  11.985  23.194  0.00  0.00    +0.000 NA
ENDBRANCH  20  21
ENDBRANCH  19  20
ENDBRANCH   1  19
BRANCH   5  27
ATOM     27  C   UNL     1       3.273   4.431  19.433  0.00  0.00    +0.000 C 
ATOM     28  O   UNL     1       4.283   3.966  18.930  0.00  0.00    +0.000 OA
BRANCH  27  29
ATOM     29  O   UNL     1       2.427   3.705  20.191  0.00  0.00    +0.000 OA
ATOM     30  H   UNL     1       1.715   4.199  20.634  0.00  0.00    +0.000 HD
ENDBRANCH  27  29
ENDBRANCH   5  27
TORSDOF 6
ENDMDL
MODEL 8
REMARK VINA RESULT:      -7.0     10.904     13.193
REMARK  Name = 
REMARK  7 active torsions:
REMARK  status: ('A' for Active; 'I' for Inactive)
REMARK    1  A    between atoms: C_1  and  N_2
REMARK    2  A    between atoms: N_2  and  C_3
REMARK    3  A    between atoms: N_2  and  C_10
REMARK    4  A    between atoms: C_3  and  C_4
REMARK    5  A    between atoms: C_14  and  C_15
REMARK    6  A    between atoms: C_15  and  O_17
REMARK    7  A    between atoms: C_22  and  C_23
REMARK                            x       y       z     vdW  Elec       q    Type
REMARK                         _______ _______ _______ _____ _____    ______ ____
ROOT
ATOM      1  C   UNL     1      -2.554  12.634  21.454  0.00  0.00    +0.000 A 
ATOM      2  N   UNL     1      -1.412  11.919  21.277  0.00  0.00    +0.000 NA
ATOM      3  C   UNL     1      -1.204  11.311  20.092  0.00  0.00    +0.000 A 
ATOM      4  C   UNL     1      -0.039  10.582  19.867  0.00  0.00    +0.000 A 
ATOM      5  C   UNL     1       0.206   9.955  18.635  0.00  0.00    +0.000 A 
ATOM      6  C   UNL     1      -0.743  10.039  17.620  0.00  0.00    +0.000 A 
ATOM      7  C   UNL     1      -1.913  10.765  17.842  0.00  0.00    +0.000 A 
ATOM      8  C   UNL     1      -2.153  11.399  19.054  0.00  0.00    +0.000 A 
ATOM      9  N   UNL     1      -3.287  12.094  19.202  0.00  0.00    +0.000 NA
ATOM     10  C   UNL     1      -3.478  12.745  20.387  0.00  0.00    +0.000 A 
ENDROOT
BRANCH  10  11
ATOM     11  C   UNL     1      -4.653  13.652  20.363  0.00  0.00    +0.000 A 
ATOM     12  C   UNL     1      -4.483  15.048  20.470  0.00  0.00    +0.000 A 
ATOM     13  C   UNL     1      -5.580  15.909  20.566  0.00  0.00    +0.000 A 
ATOM     14  C   UNL     1      -6.865  15.385  20.541  0.00  0.00    +0.000 A 
ATOM     15  F   UNL     1      -7.916  16.205  20.666  0.00  0.00    +0.000 F 
ATOM     16  C   UNL     1      -7.073  14.022  20.408  0.00  0.00    +0.000 A 
ATOM     17  C   UNL     1      -5.976  13.164  20.330  0.00  0.00    +0.000 A 
ENDBRANCH  10  11
BRANCH   1  19
ATOM     18  C   UNL     1      -1.608  13.971  23.234  0.00  0.00    +0.000 C 
ATOM     19  N   UNL     1      -2.758  13.267  22.686  0.00  0.00    +0.000 N 
BRANCH  19  20
ATOM     20  C   UNL     1      -3.604  12.539  23.650  0.00  0.00    +0.000 C 
BRANCH  20  21
ATOM     21  C   UNL     1      -5.024  13.063  23.781  0.00  0.00    +0.000 A 
ATOM     22  C   UNL     1      -5.262  14.430  23.907  0.00  0.00    +0.000 A 
ATOM     23  C   UNL     1      -6.571  14.873  24.075  0.00  0.00    +0.000 A 
ATOM     24  C   UNL     1      -7.606  13.947  24.106  0.00  0.00    +0.000 A 
ATOM     25  C   UNL     1      -7.289  12.608  23.963  0.00  0.00    +0.000 A 
ATOM     26  N   UNL     1      -6.029  12.146  23.805  0.00  0.00    +0.000 NA
ENDBRANCH  20  21
ENDBRANCH  19  20
ENDBRANCH   1  19
BRANCH   5  27
ATOM     27  C   UNL     1       1.456   9.166  18.487  0.00  0.00    +0.000 C 
ATOM     28  O   UNL     1       2.134   9.200  17.472  0.00  0.00    +0.000 OA
BRANCH  27  29
ATOM     29  O   UNL     1       1.764   8.401  19.553  0.00  0.00    +0.000 OA
ATOM     30  H   UNL     1       1.487   7.469  19.509  0.00  0.00    +0.000 HD
ENDBRANCH  27  29
ENDBRANCH   5  27
TORSDOF 6
ENDMDL
MODEL 9
REMARK VINA RESULT:      -7.0     10.946     13.245
REMARK  Name = 
REMARK  7 active torsions:
REMARK  status: ('A' for Active; 'I' for Inactive)
REMARK    1  A    between atoms: C_1  and  N_2
REMARK    2  A    between atoms: N_2  and  C_3
REMARK    3  A    between atoms: N_2  and  C_10
REMARK    4  A    between atoms: C_3  and  C_4
REMARK    5  A    between atoms: C_14  and  C_15
REMARK    6  A    between atoms: C_15  and  O_17
REMARK    7  A    between atoms: C_22  and  C_23
REMARK                            x       y       z     vdW  Elec       q    Type
REMARK                         _______ _______ _______ _____ _____    ______ ____
ROOT
ATOM      1  C   UNL     1      -2.474  12.739  21.544  0.00  0.00    +0.000 A 
ATOM      2  N   UNL     1      -1.338  12.026  21.324  0.00  0.00    +0.000 NA
ATOM      3  C   UNL     1      -1.176  11.415  20.132  0.00  0.00    +0.000 A 
ATOM      4  C   UNL     1      -0.019  10.688  19.863  0.00  0.00    +0.000 A 
ATOM      5  C   UNL     1       0.179  10.060  18.623  0.00  0.00    +0.000 A 
ATOM      6  C   UNL     1      -0.810  10.141  17.646  0.00  0.00    +0.000 A 
ATOM      7  C   UNL     1      -1.972  10.865  17.913  0.00  0.00    +0.000 A 
ATOM      8  C   UNL     1      -2.165  11.500  19.131  0.00  0.00    +0.000 A 
ATOM      9  N   UNL     1      -3.294  12.194  19.323  0.00  0.00    +0.000 NA
ATOM     10  C   UNL     1      -3.440  12.846  20.514  0.00  0.00    +0.000 A 
ENDROOT
BRANCH  10  11
ATOM     11  C   UNL     1      -4.616  13.751  20.535  0.00  0.00    +0.000 A 
ATOM     12  C   UNL     1      -5.923  13.231  20.429  0.00  0.00    +0.000 A 
ATOM     13  C   UNL     1      -7.035  14.072  20.330  0.00  0.00    +0.000 A 
ATOM     14  C   UNL     1      -6.856  15.447  20.349  0.00  0.00    +0.000 A 
ATOM     15  F   UNL     1      -7.916  16.255  20.221  0.00  0.00    +0.000 F 
ATOM     16  C   UNL     1      -5.591  15.997  20.481  0.00  0.00    +0.000 A 
ATOM     17  C   UNL     1      -4.481  15.154  20.563  0.00  0.00    +0.000 A 
ENDBRANCH  10  11
BRANCH   1  19
ATOM     18  C   UNL     1      -1.447  14.039  23.307  0.00  0.00    +0.000 C 
ATOM     19  N   UNL     1      -2.631  13.373  22.781  0.00  0.00    +0.000 N 
BRANCH  19  20
ATOM     20  C   UNL     1      -3.477  12.669  23.762  0.00  0.00    +0.000 C 
BRANCH  20  21
ATOM     21  C   UNL     1      -4.908  13.172  23.855  0.00  0.00    +0.000 A 
ATOM     22  C   UNL     1      -5.171  14.540  23.906  0.00  0.00    +0.000 A 
ATOM     23  C   UNL     1      -6.489  14.968  24.041  0.00  0.00    +0.000 A 
ATOM     24  C   UNL     1      -7.508  14.026  24.113  0.00  0.00    +0.000 A 
ATOM     25  C   UNL     1      -7.165  12.687  24.044  0.00  0.00    +0.000 A 
ATOM     26  N   UNL     1      -5.896  12.240  23.920  0.00  0.00    +0.000 NA
ENDBRANCH  20  21
ENDBRANCH  19  20
ENDBRANCH   1  19
BRANCH   5  27
ATOM     27  C   UNL     1       1.423   9.273  18.427  0.00  0.00    +0.000 C 
ATOM     28  O   UNL     1       1.735   8.348  19.160  0.00  0.00    +0.000 OA
BRANCH  27  29
ATOM     29  O   UNL     1       2.181   9.677  17.388  0.00  0.00    +0.000 OA
ATOM     30  H   UNL     1       2.905   9.081  17.126  0.00  0.00    +0.000 HD
ENDBRANCH  27  29
ENDBRANCH   5  27
TORSDOF 6
ENDMDL
