MODEL 1
REMARK VINA RESULT:      -7.8      0.000      0.000
REMARK  Name = 
REMARK  7 active torsions:
REMARK  status: ('A' for Active; 'I' for Inactive)
REMARK    1  A    between atoms: C_1  and  C_2
REMARK    2  A    between atoms: C_3  and  C_4
REMARK    3  A    between atoms: C_4  and  N_5
REMARK    4  A    between atoms: C_9  and  C_10
REMARK    5  A    between atoms: C_10  and  C_11
REMARK    6  A    between atoms: C_11  and  N_12
REMARK    7  A    between atoms: C_13  and  C_15
REMARK                            x       y       z     vdW  Elec       q    Type
REMARK                         _______ _______ _______ _____ _____    ______ ____
ROOT
ATOM      1  C   UNL     1       6.175   4.454  16.142  0.00  0.00    +0.000 C 
ENDROOT
BRANCH   1   6
ATOM      2  N   UNL     1       5.404   3.997  12.376  0.00  0.00    +0.000 NA
ATOM      3  C   UNL     1       6.790   3.850  11.919  0.00  0.00    +0.000 C 
ATOM      4  C   UNL     1       7.704   4.881  12.578  0.00  0.00    +0.000 C 
ATOM      5  C   UNL     1       7.500   4.939  14.058  0.00  0.00    +0.000 C 
ATOM      6  C   UNL     1       6.402   4.445  14.647  0.00  0.00    +0.000 C 
ATOM      7  C   UNL     1       5.286   3.828  13.837  0.00  0.00    +0.000 C 
BRANCH   2   8
ATOM      8  C   UNL     1       4.560   3.031  11.675  0.00  0.00    +0.000 C 
BRANCH   8  11
ATOM      9  C   UNL     1       2.098   5.006   8.690  0.00  0.00    +0.000 C 
ATOM     10  C   UNL     1       2.959   4.315   9.735  0.00  0.00    +0.000 C 
ATOM     11  C   UNL     1       3.699   3.723  10.630  0.00  0.00    +0.000 C 
ENDBRANCH   8  11
ENDBRANCH   2   8
ENDBRANCH   1   6
BRANCH   1  12
ATOM     12  C   UNL     1       4.740   4.775  16.562  0.00  0.00    +0.000 C 
BRANCH  12  13
ATOM     13  N   UNL     1       4.163   3.710  17.346  0.00  0.00    +0.000 N 
ATOM     14  C   UNL     1       4.164   3.751  18.729  0.00  0.00    +0.000 C 
ATOM     15  O   UNL     1       4.668   4.668  19.370  0.00  0.00    +0.000 OA
ATOM     16  H   UNL     1       3.851   2.879  16.862  0.00  0.00    +0.000 HD
BRANCH  14  17
ATOM     17  C   UNL     1       3.514   2.526  19.371  0.00  0.00    +0.000 C 
ATOM     18  C   UNL     1       3.115   2.750  20.838  0.00  0.00    +0.000 C 
ATOM     19  C   UNL     1       1.843   3.580  21.028  0.00  0.00    +0.000 C 
ATOM     20  C   UNL     1       0.694   3.143  20.125  0.00  0.00    +0.000 C 
ATOM     21  C   UNL     1       1.129   2.994  18.673  0.00  0.00    +0.000 C 
ATOM     22  C   UNL     1       2.312   2.035  18.556  0.00  0.00    +0.000 C 
ENDBRANCH  14  17
ENDBRANCH  12  13
ENDBRANCH   1  12
TORSDOF 6
ENDMDL
MODEL 2
REMARK VINA RESULT:      -7.7      0.844      1.525
REMARK  Name = 
REMARK  7 active torsions:
REMARK  status: ('A' for Active; 'I' for Inactive)
REMARK    1  A    between atoms: C_1  and  C_2
REMARK    2  A    between atoms: C_3  and  C_4
REMARK    3  A    between atoms: C_4  and  N_5
REMARK    4  A    between atoms: C_9  and  C_10
REMARK    5  A    between atoms: C_10  and  C_11
REMARK    6  A    between atoms: C_11  and  N_12
REMARK    7  A    between atoms: C_13  and  C_15
REMARK                            x       y       z     vdW  Elec       q    Type
REMARK                         _______ _______ _______ _____ _____    ______ ____
ROOT
ATOM      1  C   UNL     1       5.545   4.866  15.970  0.00  0.00    +0.000 C 
ENDROOT
BRANCH   1   6
ATOM      2  N   UNL     1       5.296   3.947  12.218  0.00  0.00    +0.000 NA
ATOM      3  C   UNL     1       6.688   3.522  12.038  0.00  0.00    +0.000 C 
ATOM      4  C   UNL     1       7.656   4.493  12.710  0.00  0.00    +0.000 C 
ATOM      5  C   UNL     1       7.239   4.812  14.111  0.00  0.00    +0.000 C 
ATOM      6  C   UNL     1       5.995   4.589  14.553  0.00  0.00    +0.000 C 
ATOM      7  C   UNL     1       4.926   4.028  13.644  0.00  0.00    +0.000 C 
BRANCH   2   8
ATOM      8  C   UNL     1       4.414   3.022  11.508  0.00  0.00    +0.000 C 
BRANCH   8  11
ATOM      9  C   UNL     1       2.002   5.129   8.574  0.00  0.00    +0.000 C 
ATOM     10  C   UNL     1       2.846   4.391   9.600  0.00  0.00    +0.000 C 
ATOM     11  C   UNL     1       3.570   3.758  10.481  0.00  0.00    +0.000 C 
ENDBRANCH   8  11
ENDBRANCH   2   8
ENDBRANCH   1   6
BRANCH   1  12
ATOM     12  C   UNL     1       4.980   3.648  16.704  0.00  0.00    +0.000 C 
BRANCH  12  13
ATOM     13  N   UNL     1       3.668   3.914  17.245  0.00  0.00    +0.000 N 
ATOM     14  C   UNL     1       3.507   4.596  18.437  0.00  0.00    +0.000 C 
ATOM     15  O   UNL     1       4.449   4.993  19.114  0.00  0.00    +0.000 OA
ATOM     16  H   UNL     1       2.871   3.495  16.786  0.00  0.00    +0.000 HD
BRANCH  14  17
ATOM     17  C   UNL     1       2.042   4.766  18.842  0.00  0.00    +0.000 C 
ATOM     18  C   UNL     1       1.168   3.556  18.482  0.00  0.00    +0.000 C 
ATOM     19  C   UNL     1       1.332   2.354  19.416  0.00  0.00    +0.000 C 
ATOM     20  C   UNL     1       1.306   2.730  20.895  0.00  0.00    +0.000 C 
ATOM     21  C   UNL     1       2.234   3.896  21.209  0.00  0.00    +0.000 C 
ATOM     22  C   UNL     1       1.907   5.102  20.332  0.00  0.00    +0.000 C 
ENDBRANCH  14  17
ENDBRANCH  12  13
ENDBRANCH   1  12
TORSDOF 6
ENDMDL
MODEL 3
REMARK VINA RESULT:      -7.5      1.132      1.492
REMARK  Name = 
REMARK  7 active torsions:
REMARK  status: ('A' for Active; 'I' for Inactive)
REMARK    1  A    between atoms: C_1  and  C_2
REMARK    2  A    between atoms: C_3  and  C_4
REMARK    3  A    between atoms: C_4  and  N_5
REMARK    4  A    between atoms: C_9  and  C_10
REMARK    5  A    between atoms: C_10  and  C_11
REMARK    6  A    between atoms: C_11  and  N_12
REMARK    7  A    between atoms: C_13  and  C_15
REMARK                            x       y       z     vdW  Elec       q    Type
REMARK                         _______ _______ _______ _____ _____    ______ ____
ROOT
ATOM      1  C   UNL     1       6.124   4.999  16.191  0.00  0.00    +0.000 C 
ENDROOT
BRANCH   1   6
ATOM      2  N   UNL     1       5.434   4.134  12.482  0.00  0.00    +0.000 NA
ATOM      3  C   UNL     1       6.822   3.863  12.093  0.00  0.00    +0.000 C 
ATOM      4  C   UNL     1       7.772   4.918  12.656  0.00  0.00    +0.000 C 
ATOM      5  C   UNL     1       7.530   5.163  14.111  0.00  0.00    +0.000 C 
ATOM      6  C   UNL     1       6.392   4.800  14.716  0.00  0.00    +0.000 C 
ATOM      7  C   UNL     1       5.267   4.147  13.947  0.00  0.00    +0.000 C 
BRANCH   2   8
ATOM      8  C   UNL     1       4.558   3.135  11.871  0.00  0.00    +0.000 C 
BRANCH   8  11
ATOM      9  C   UNL     1       2.207   4.889   8.668  0.00  0.00    +0.000 C 
ATOM     10  C   UNL     1       3.030   4.276   9.789  0.00  0.00    +0.000 C 
ATOM     11  C   UNL     1       3.736   3.749  10.750  0.00  0.00    +0.000 C 
ENDBRANCH   8  11
ENDBRANCH   2   8
ENDBRANCH   1   6
BRANCH   1  12
ATOM     12  C   UNL     1       5.519   3.782  16.894  0.00  0.00    +0.000 C 
BRANCH  12  13
ATOM     13  N   UNL     1       4.098   3.934  17.093  0.00  0.00    +0.000 N 
ATOM     14  C   UNL     1       3.345   2.942  17.694  0.00  0.00    +0.000 C 
ATOM     15  O   UNL     1       3.822   1.876  18.070  0.00  0.00    +0.000 OA
ATOM     16  H   UNL     1       3.645   4.740  16.685  0.00  0.00    +0.000 HD
BRANCH  14  17
ATOM     17  C   UNL     1       1.861   3.291  17.803  0.00  0.00    +0.000 C 
ATOM     18  C   UNL     1       1.109   2.431  18.831  0.00  0.00    +0.000 C 
ATOM     19  C   UNL     1       1.355   2.827  20.289  0.00  0.00    +0.000 C 
ATOM     20  C   UNL     1       1.254   4.330  20.534  0.00  0.00    +0.000 C 
ATOM     21  C   UNL     1       2.064   5.132  19.524  0.00  0.00    +0.000 C 
ATOM     22  C   UNL     1       1.654   4.782  18.096  0.00  0.00    +0.000 C 
ENDBRANCH  14  17
ENDBRANCH  12  13
ENDBRANCH   1  12
TORSDOF 6
ENDMDL
MODEL 4
REMARK VINA RESULT:      -7.4      3.673      5.653
REMARK  Name = 
REMARK  7 active torsions:
REMARK  status: ('A' for Active; 'I' for Inactive)
REMARK    1  A    between atoms: C_1  and  C_2
REMARK    2  A    between atoms: C_3  and  C_4
REMARK    3  A    between atoms: C_4  and  N_5
REMARK    4  A    between atoms: C_9  and  C_10
REMARK    5  A    between atoms: C_10  and  C_11
REMARK    6  A    between atoms: C_11  and  N_12
REMARK    7  A    between atoms: C_13  and  C_15
REMARK                            x       y       z     vdW  Elec       q    Type
REMARK                         _______ _______ _______ _____ _____    ______ ____
ROOT
ATOM      1  C   UNL     1       3.392   6.792  17.319  0.00  0.00    +0.000 C 
ENDROOT
BRANCH   1   6
ATOM      2  N   UNL     1       6.698   5.006  18.248  0.00  0.00    +0.000 NA
ATOM      3  C   UNL     1       7.056   4.562  16.896  0.00  0.00    +0.000 C 
ATOM      4  C   UNL     1       5.846   3.988  16.162  0.00  0.00    +0.000 C 
ATOM      5  C   UNL     1       4.655   4.886  16.269  0.00  0.00    +0.000 C 
ATOM      6  C   UNL     1       4.564   5.843  17.201  0.00  0.00    +0.000 C 
ATOM      7  C   UNL     1       5.655   6.048  18.226  0.00  0.00    +0.000 C 
BRANCH   2   8
ATOM      8  C   UNL     1       7.898   5.490  18.929  0.00  0.00    +0.000 C 
BRANCH   8  11
ATOM      9  C   UNL     1       8.556   9.703  18.100  0.00  0.00    +0.000 C 
ATOM     10  C   UNL     1       8.326   8.229  18.390  0.00  0.00    +0.000 C 
ATOM     11  C   UNL     1       8.128   6.964  18.639  0.00  0.00    +0.000 C 
ENDBRANCH   8  11
ENDBRANCH   2   8
ENDBRANCH   1   6
BRANCH   1  12
ATOM     12  C   UNL     1       2.572   6.628  18.600  0.00  0.00    +0.000 C 
BRANCH  12  13
ATOM     13  N   UNL     1       2.194   5.252  18.819  0.00  0.00    +0.000 N 
ATOM     14  C   UNL     1       1.843   4.793  20.075  0.00  0.00    +0.000 C 
ATOM     15  O   UNL     1       1.852   5.505  21.074  0.00  0.00    +0.000 OA
ATOM     16  H   UNL     1       2.295   4.604  18.049  0.00  0.00    +0.000 HD
BRANCH  14  17
ATOM     17  C   UNL     1       1.485   3.307  20.097  0.00  0.00    +0.000 C 
ATOM     18  C   UNL     1       1.114   2.751  18.713  0.00  0.00    +0.000 C 
ATOM     19  C   UNL     1       2.311   2.494  17.793  0.00  0.00    +0.000 C 
ATOM     20  C   UNL     1       3.455   1.756  18.480  0.00  0.00    +0.000 C 
ATOM     21  C   UNL     1       3.822   2.383  19.819  0.00  0.00    +0.000 C 
ATOM     22  C   UNL     1       2.601   2.469  20.731  0.00  0.00    +0.000 C 
ENDBRANCH  14  17
ENDBRANCH  12  13
ENDBRANCH   1  12
TORSDOF 6
ENDMDL
MODEL 5
REMARK VINA RESULT:      -7.4      1.483      2.339
REMARK  Name = 
REMARK  7 active torsions:
REMARK  status: ('A' for Active; 'I' for Inactive)
REMARK    1  A    between atoms: C_1  and  C_2
REMARK    2  A    between atoms: C_3  and  C_4
REMARK    3  A    between atoms: C_4  and  N_5
REMARK    4  A    between atoms: C_9  and  C_10
REMARK    5  A    between atoms: C_10  and  C_11
REMARK    6  A    between atoms: C_11  and  N_12
REMARK    7  A    between atoms: C_13  and  C_15
REMARK                            x       y       z     vdW  Elec       q    Type
REMARK                         _______ _______ _______ _____ _____    ______ ____
ROOT
ATOM      1  C   UNL     1       7.270   4.982  18.092  0.00  0.00    +0.000 C 
ENDROOT
BRANCH   1   6
ATOM      2  N   UNL     1       5.770   4.354  14.579  0.00  0.00    +0.000 NA
ATOM      3  C   UNL     1       5.587   5.760  14.201  0.00  0.00    +0.000 C 
ATOM      4  C   UNL     1       4.992   6.571  15.351  0.00  0.00    +0.000 C 
ATOM      5  C   UNL     1       5.714   6.321  16.637  0.00  0.00    +0.000 C 
ATOM      6  C   UNL     1       6.498   5.251  16.819  0.00  0.00    +0.000 C 
ATOM      7  C   UNL     1       6.671   4.210  15.738  0.00  0.00    +0.000 C 
BRANCH   2   8
ATOM      8  C   UNL     1       6.283   3.610  13.430  0.00  0.00    +0.000 C 
BRANCH   8  11
ATOM      9  C   UNL     1       3.242   3.227  10.353  0.00  0.00    +0.000 C 
ATOM     10  C   UNL     1       4.306   3.361  11.429  0.00  0.00    +0.000 C 
ATOM     11  C   UNL     1       5.219   3.476  12.353  0.00  0.00    +0.000 C 
ENDBRANCH   8  11
ENDBRANCH   2   8
ENDBRANCH   1   6
BRANCH   1  12
ATOM     12  C   UNL     1       6.448   5.130  19.373  0.00  0.00    +0.000 C 
BRANCH  12  13
ATOM     13  N   UNL     1       5.642   3.960  19.629  0.00  0.00    +0.000 N 
ATOM     14  C   UNL     1       4.264   4.036  19.700  0.00  0.00    +0.000 C 
ATOM     15  O   UNL     1       3.645   5.088  19.576  0.00  0.00    +0.000 OA
ATOM     16  H   UNL     1       6.118   3.098  19.861  0.00  0.00    +0.000 HD
BRANCH  14  17
ATOM     17  C   UNL     1       3.598   2.690  19.986  0.00  0.00    +0.000 C 
ATOM     18  C   UNL     1       2.311   2.814  20.816  0.00  0.00    +0.000 C 
ATOM     19  C   UNL     1       1.092   3.299  20.027  0.00  0.00    +0.000 C 
ATOM     20  C   UNL     1       0.911   2.583  18.692  0.00  0.00    +0.000 C 
ATOM     21  C   UNL     1       2.201   2.540  17.883  0.00  0.00    +0.000 C 
ATOM     22  C   UNL     1       3.330   1.909  18.694  0.00  0.00    +0.000 C 
ENDBRANCH  14  17
ENDBRANCH  12  13
ENDBRANCH   1  12
TORSDOF 6
ENDMDL
MODEL 6
REMARK VINA RESULT:      -7.3      4.067      6.575
REMARK  Name = 
REMARK  7 active torsions:
REMARK  status: ('A' for Active; 'I' for Inactive)
REMARK    1  A    between atoms: C_1  and  C_2
REMARK    2  A    between atoms: C_3  and  C_4
REMARK    3  A    between atoms: C_4  and  N_5
REMARK    4  A    between atoms: C_9  and  C_10
REMARK    5  A    between atoms: C_10  and  C_11
REMARK    6  A    between atoms: C_11  and  N_12
REMARK    7  A    between atoms: C_13  and  C_15
REMARK                            x       y       z     vdW  Elec       q    Type
REMARK                         _______ _______ _______ _____ _____    ______ ____
ROOT
ATOM      1  C   UNL     1       4.600   6.150  17.765  0.00  0.00    +0.000 C 
ENDROOT
BRANCH   1   6
ATOM      2  N   UNL     1       1.555   8.398  18.576  0.00  0.00    +0.000 NA
ATOM      3  C   UNL     1       1.616   8.274  20.036  0.00  0.00    +0.000 C 
ATOM      4  C   UNL     1       1.862   6.827  20.461  0.00  0.00    +0.000 C 
ATOM      5  C   UNL     1       2.990   6.209  19.698  0.00  0.00    +0.000 C 
ATOM      6  C   UNL     1       3.440   6.726  18.547  0.00  0.00    +0.000 C 
ATOM      7  C   UNL     1       2.805   7.953  17.934  0.00  0.00    +0.000 C 
BRANCH   2   8
ATOM      8  C   UNL     1       1.258   9.785  18.223  0.00  0.00    +0.000 C 
BRANCH   8  11
ATOM      9  C   UNL     1      -2.982  10.309  17.436  0.00  0.00    +0.000 C 
ATOM     10  C   UNL     1      -1.498  10.126  17.711  0.00  0.00    +0.000 C 
ATOM     11  C   UNL     1      -0.225   9.968  17.947  0.00  0.00    +0.000 C 
ENDBRANCH   8  11
ENDBRANCH   2   8
ENDBRANCH   1   6
BRANCH   1  12
ATOM     12  C   UNL     1       4.210   5.056  16.770  0.00  0.00    +0.000 C 
BRANCH  12  13
ATOM     13  N   UNL     1       3.774   3.855  17.442  0.00  0.00    +0.000 N 
ATOM     14  C   UNL     1       2.434   3.526  17.530  0.00  0.00    +0.000 C 
ATOM     15  O   UNL     1       1.540   4.230  17.072  0.00  0.00    +0.000 OA
ATOM     16  H   UNL     1       4.466   3.313  17.942  0.00  0.00    +0.000 HD
BRANCH  14  17
ATOM     17  C   UNL     1       2.180   2.222  18.287  0.00  0.00    +0.000 C 
ATOM     18  C   UNL     1       3.295   1.872  19.284  0.00  0.00    +0.000 C 
ATOM     19  C   UNL     1       3.264   2.684  20.582  0.00  0.00    +0.000 C 
ATOM     20  C   UNL     1       1.873   2.778  21.203  0.00  0.00    +0.000 C 
ATOM     21  C   UNL     1       0.815   3.185  20.186  0.00  0.00    +0.000 C 
ATOM     22  C   UNL     1       0.817   2.237  18.990  0.00  0.00    +0.000 C 
ENDBRANCH  14  17
ENDBRANCH  12  13
ENDBRANCH   1  12
TORSDOF 6
ENDMDL
MODEL 7
REMARK VINA RESULT:      -7.2      1.309      1.746
REMARK  Name = 
REMARK  7 active torsions:
REMARK  status: ('A' for Active; 'I' for Inactive)
REMARK    1  A    between atoms: C_1  and  C_2
REMARK    2  A    between atoms: C_3  and  C_4
REMARK    3  A    between atoms: C_4  and  N_5
REMARK    4  A    between atoms: C_9  and  C_10
REMARK    5  A    between atoms: C_10  and  C_11
REMARK    6  A    between atoms: C_11  and  N_12
REMARK    7  A    between atoms: C_13  and  C_15
REMARK                            x       y       z     vdW  Elec       q    Type
REMARK                         _______ _______ _______ _____ _____    ______ ____
ROOT
ATOM      1  C   UNL     1       5.506   3.933  16.230  0.00  0.00    +0.000 C 
ENDROOT
BRANCH   1   6
ATOM      2  N   UNL     1       5.373   3.875  12.362  0.00  0.00    +0.000 NA
ATOM      3  C   UNL     1       6.821   3.861  12.126  0.00  0.00    +0.000 C 
ATOM      4  C   UNL     1       7.540   4.859  13.032  0.00  0.00    +0.000 C 
ATOM      5  C   UNL     1       7.102   4.732  14.456  0.00  0.00    +0.000 C 
ATOM      6  C   UNL     1       5.966   4.111  14.800  0.00  0.00    +0.000 C 
ATOM      7  C   UNL     1       5.040   3.530  13.756  0.00  0.00    +0.000 C 
BRANCH   2   8
ATOM      8  C   UNL     1       4.725   2.950  11.433  0.00  0.00    +0.000 C 
BRANCH   8  11
ATOM      9  C   UNL     1       2.032   5.071   8.764  0.00  0.00    +0.000 C 
ATOM     10  C   UNL     1       2.974   4.329   9.699  0.00  0.00    +0.000 C 
ATOM     11  C   UNL     1       3.783   3.693  10.499  0.00  0.00    +0.000 C 
ENDBRANCH   8  11
ENDBRANCH   2   8
ENDBRANCH   1   6
BRANCH   1  12
ATOM     12  C   UNL     1       3.990   4.000  16.420  0.00  0.00    +0.000 C 
BRANCH  12  13
ATOM     13  N   UNL     1       3.638   4.409  17.759  0.00  0.00    +0.000 N 
ATOM     14  C   UNL     1       2.331   4.357  18.207  0.00  0.00    +0.000 C 
ATOM     15  O   UNL     1       1.396   3.989  17.503  0.00  0.00    +0.000 OA
ATOM     16  H   UNL     1       4.356   4.837  18.328  0.00  0.00    +0.000 HD
BRANCH  14  17
ATOM     17  C   UNL     1       2.166   4.841  19.648  0.00  0.00    +0.000 C 
ATOM     18  C   UNL     1       0.847   4.388  20.293  0.00  0.00    +0.000 C 
ATOM     19  C   UNL     1       0.828   2.923  20.736  0.00  0.00    +0.000 C 
ATOM     20  C   UNL     1       2.078   2.507  21.505  0.00  0.00    +0.000 C 
ATOM     21  C   UNL     1       3.357   2.927  20.794  0.00  0.00    +0.000 C 
ATOM     22  C   UNL     1       3.359   4.428  20.519  0.00  0.00    +0.000 C 
ENDBRANCH  14  17
ENDBRANCH  12  13
ENDBRANCH   1  12
TORSDOF 6
ENDMDL
MODEL 8
REMARK VINA RESULT:      -7.1      2.046      3.657
REMARK  Name = 
REMARK  7 active torsions:
REMARK  status: ('A' for Active; 'I' for Inactive)
REMARK    1  A    between atoms: C_1  and  C_2
REMARK    2  A    between atoms: C_3  and  C_4
REMARK    3  A    between atoms: C_4  and  N_5
REMARK    4  A    between atoms: C_9  and  C_10
REMARK    5  A    between atoms: C_10  and  C_11
REMARK    6  A    between atoms: C_11  and  N_12
REMARK    7  A    between atoms: C_13  and  C_15
REMARK                            x       y       z     vdW  Elec       q    Type
REMARK                         _______ _______ _______ _____ _____    ______ ____
ROOT
ATOM      1  C   UNL     1       3.625   7.406  17.025  0.00  0.00    +0.000 C 
ENDROOT
BRANCH   1   6
ATOM      2  N   UNL     1       6.503   5.146  15.765  0.00  0.00    +0.000 NA
ATOM      3  C   UNL     1       7.352   5.244  16.957  0.00  0.00    +0.000 C 
ATOM      4  C   UNL     1       7.433   6.682  17.463  0.00  0.00    +0.000 C 
ATOM      5  C   UNL     1       6.081   7.313  17.562  0.00  0.00    +0.000 C 
ATOM      6  C   UNL     1       5.014   6.817  16.923  0.00  0.00    +0.000 C 
ATOM      7  C   UNL     1       5.126   5.601  16.032  0.00  0.00    +0.000 C 
BRANCH   2   8
ATOM      8  C   UNL     1       6.505   3.765  15.284  0.00  0.00    +0.000 C 
BRANCH   8  11
ATOM      9  C   UNL     1       4.473   3.456  11.457  0.00  0.00    +0.000 C 
ATOM     10  C   UNL     1       5.184   3.564  12.796  0.00  0.00    +0.000 C 
ATOM     11  C   UNL     1       5.794   3.657  13.944  0.00  0.00    +0.000 C 
ENDBRANCH   8  11
ENDBRANCH   2   8
ENDBRANCH   1   6
BRANCH   1  12
ATOM     12  C   UNL     1       2.917   7.129  18.353  0.00  0.00    +0.000 C 
BRANCH  12  13
ATOM     13  N   UNL     1       2.344   5.805  18.387  0.00  0.00    +0.000 N 
ATOM     14  C   UNL     1       1.957   5.218  19.577  0.00  0.00    +0.000 C 
ATOM     15  O   UNL     1       2.092   5.764  20.667  0.00  0.00    +0.000 OA
ATOM     16  H   UNL     1       2.331   5.272  17.528  0.00  0.00    +0.000 HD
BRANCH  14  17
ATOM     17  C   UNL     1       1.382   3.813  19.400  0.00  0.00    +0.000 C 
ATOM     18  C   UNL     1       1.570   3.255  17.980  0.00  0.00    +0.000 C 
ATOM     19  C   UNL     1       2.987   2.763  17.675  0.00  0.00    +0.000 C 
ATOM     20  C   UNL     1       3.573   1.885  18.777  0.00  0.00    +0.000 C 
ATOM     21  C   UNL     1       3.414   2.511  20.156  0.00  0.00    +0.000 C 
ATOM     22  C   UNL     1       1.950   2.838  20.439  0.00  0.00    +0.000 C 
ENDBRANCH  14  17
ENDBRANCH  12  13
ENDBRANCH   1  12
TORSDOF 6
ENDMDL
MODEL 9
REMARK VINA RESULT:      -7.0      1.607      2.451
REMARK  Name = 
REMARK  7 active torsions:
REMARK  status: ('A' for Active; 'I' for Inactive)
REMARK    1  A    between atoms: C_1  and  C_2
REMARK    2  A    between atoms: C_3  and  C_4
REMARK    3  A    between atoms: C_4  and  N_5
REMARK    4  A    between atoms: C_9  and  C_10
REMARK    5  A    between atoms: C_10  and  C_11
REMARK    6  A    between atoms: C_11  and  N_12
REMARK    7  A    between atoms: C_13  and  C_15
REMARK                            x       y       z     vdW  Elec       q    Type
REMARK                         _______ _______ _______ _____ _____    ______ ____
ROOT
ATOM      1  C   UNL     1       6.965   4.835  18.347  0.00  0.00    +0.000 C 
ENDROOT
BRANCH   1   6
ATOM      2  N   UNL     1       5.698   4.360  14.721  0.00  0.00    +0.000 NA
ATOM      3  C   UNL     1       5.665   5.778  14.348  0.00  0.00    +0.000 C 
ATOM      4  C   UNL     1       5.052   6.629  15.459  0.00  0.00    +0.000 C 
ATOM      5  C   UNL     1       5.647   6.311  16.794  0.00  0.00    +0.000 C 
ATOM      6  C   UNL     1       6.321   5.176  17.022  0.00  0.00    +0.000 C 
ATOM      7  C   UNL     1       6.490   4.132  15.944  0.00  0.00    +0.000 C 
BRANCH   2   8
ATOM      8  C   UNL     1       6.235   3.581  13.606  0.00  0.00    +0.000 C 
BRANCH   8  11
ATOM      9  C   UNL     1       3.340   3.300  10.380  0.00  0.00    +0.000 C 
ATOM     10  C   UNL     1       4.353   3.398  11.508  0.00  0.00    +0.000 C 
ATOM     11  C   UNL     1       5.222   3.482  12.477  0.00  0.00    +0.000 C 
ENDBRANCH   8  11
ENDBRANCH   2   8
ENDBRANCH   1   6
BRANCH   1  12
ATOM     12  C   UNL     1       6.008   4.859  19.541  0.00  0.00    +0.000 C 
BRANCH  12  13
ATOM     13  N   UNL     1       4.712   4.324  19.196  0.00  0.00    +0.000 N 
ATOM     14  C   UNL     1       4.343   3.041  19.560  0.00  0.00    +0.000 C 
ATOM     15  O   UNL     1       5.087   2.279  20.168  0.00  0.00    +0.000 OA
ATOM     16  H   UNL     1       4.119   4.871  18.588  0.00  0.00    +0.000 HD
BRANCH  14  17
ATOM     17  C   UNL     1       2.938   2.661  19.093  0.00  0.00    +0.000 C 
ATOM     18  C   UNL     1       2.043   2.140  20.228  0.00  0.00    +0.000 C 
ATOM     19  C   UNL     1       1.490   3.229  21.151  0.00  0.00    +0.000 C 
ATOM     20  C   UNL     1       0.917   4.426  20.398  0.00  0.00    +0.000 C 
ATOM     21  C   UNL     1       1.868   4.941  19.326  0.00  0.00    +0.000 C 
ATOM     22  C   UNL     1       2.256   3.823  18.361  0.00  0.00    +0.000 C 
ENDBRANCH  14  17
ENDBRANCH  12  13
ENDBRANCH   1  12
TORSDOF 6
ENDMDL
