MODEL 1
REMARK VINA RESULT:      -7.0      0.000      0.000
REMARK  Name = 
REMARK  10 active torsions:
REMARK  status: ('A' for Active; 'I' for Inactive)
REMARK    1  A    between atoms: C_1  and  C_2
REMARK    2  A    between atoms: C_2  and  C_3
REMARK    3  A    between atoms: C_5  and  N_6
REMARK    4  A    between atoms: N_6  and  C_7
REMARK    5  A    between atoms: C_7  and  N_9
REMARK    6  A    between atoms: N_9  and  N_10
REMARK    7  A    between atoms: C_11  and  C_12
REMARK    8  A    between atoms: C_19  and  O_20
REMARK    9  A    between atoms: C_21  and  O_22
REMARK   10  A    between atoms: C_23  and  O_24
REMARK                            x       y       z     vdW  Elec       q    Type
REMARK                         _______ _______ _______ _____ _____    ______ ____
ROOT
ATOM      1  N   UNL     1       3.926   3.281  18.563  0.00  0.00    +0.000 N 
ATOM      2  H   UNL     1       4.382   2.433  18.880  0.00  0.00    +0.000 HD
ENDROOT
BRANCH   1   5
ATOM      3  C   UNL     1       5.792   4.352  15.699  0.00  0.00    +0.000 C 
ATOM      4  O   UNL     1       5.149   3.494  16.644  0.00  0.00    +0.000 OA
ATOM      5  C   UNL     1       4.723   4.206  17.799  0.00  0.00    +0.000 C 
ATOM      6  C   UNL     1       5.970   4.703  18.581  0.00  0.00    +0.000 C 
ATOM      7  C   UNL     1       6.760   5.650  17.649  0.00  0.00    +0.000 C 
ATOM      8  C   UNL     1       7.068   4.968  16.300  0.00  0.00    +0.000 C 
BRANCH   3  10
ATOM      9  C   UNL     1       5.435   4.105  13.200  0.00  0.00    +0.000 C 
ATOM     10  C   UNL     1       6.114   3.537  14.437  0.00  0.00    +0.000 C 
ENDBRANCH   3  10
BRANCH   6  11
ATOM     11  O   UNL     1       5.661   5.371  19.803  0.00  0.00    +0.000 OA
ATOM     12  H   UNL     1       5.054   6.114  19.611  0.00  0.00    +0.000 HD
ENDBRANCH   6  11
BRANCH   7  13
ATOM     13  O   UNL     1       7.976   6.107  18.255  0.00  0.00    +0.000 OA
ATOM     14  H   UNL     1       8.269   6.911  17.788  0.00  0.00    +0.000 HD
ENDBRANCH   7  13
BRANCH   8  15
ATOM     15  O   UNL     1       7.652   5.891  15.376  0.00  0.00    +0.000 OA
ATOM     16  H   UNL     1       8.565   6.079  15.654  0.00  0.00    +0.000 HD
ENDBRANCH   8  15
ENDBRANCH   1   5
BRANCH   1  17
ATOM     17  C   UNL     1       2.706   3.493  19.151  0.00  0.00    +0.000 C 
ATOM     18  S   UNL     1       1.255   2.821  18.686  0.00  0.00    +0.000 S 
BRANCH  17  19
ATOM     19  N   UNL     1       2.754   4.383  20.210  0.00  0.00    +0.000 N 
ATOM     20  H   UNL     1       2.971   4.019  21.131  0.00  0.00    +0.000 HD
BRANCH  19  21
ATOM     21  N   UNL     1       2.071   5.554  20.081  0.00  0.00    +0.000 NA
ATOM     22  C   UNL     1       2.671   6.536  19.479  0.00  0.00    +0.000 C 
BRANCH  22  23
ATOM     23  C   UNL     1       1.987   7.838  19.391  0.00  0.00    +0.000 A 
ATOM     24  C   UNL     1       1.361   8.373  20.525  0.00  0.00    +0.000 A 
ATOM     25  C   UNL     1       0.616   9.548  20.443  0.00  0.00    +0.000 A 
ATOM     26  C   UNL     1       0.507  10.191  19.214  0.00  0.00    +0.000 A 
ATOM     27 BR   UNL     1      -0.565  11.750  19.078  0.00  0.00    +0.000 Br
ATOM     28  C   UNL     1       1.164   9.700  18.088  0.00  0.00    +0.000 A 
ATOM     29  C   UNL     1       1.912   8.517  18.165  0.00  0.00    +0.000 A 
ENDBRANCH  22  23
ENDBRANCH  19  21
ENDBRANCH  17  19
ENDBRANCH   1  17
TORSDOF 9
ENDMDL
MODEL 2
REMARK VINA RESULT:      -7.0      0.202      1.010
REMARK  Name = 
REMARK  10 active torsions:
REMARK  status: ('A' for Active; 'I' for Inactive)
REMARK    1  A    between atoms: C_1  and  C_2
REMARK    2  A    between atoms: C_2  and  C_3
REMARK    3  A    between atoms: C_5  and  N_6
REMARK    4  A    between atoms: N_6  and  C_7
REMARK    5  A    between atoms: C_7  and  N_9
REMARK    6  A    between atoms: N_9  and  N_10
REMARK    7  A    between atoms: C_11  and  C_12
REMARK    8  A    between atoms: C_19  and  O_20
REMARK    9  A    between atoms: C_21  and  O_22
REMARK   10  A    between atoms: C_23  and  O_24
REMARK                            x       y       z     vdW  Elec       q    Type
REMARK                         _______ _______ _______ _____ _____    ______ ____
ROOT
ATOM      1  N   UNL     1       3.921   3.219  18.580  0.00  0.00    +0.000 N 
ATOM      2  H   UNL     1       4.392   2.382  18.905  0.00  0.00    +0.000 HD
ENDROOT
BRANCH   1   5
ATOM      3  C   UNL     1       5.781   4.359  15.738  0.00  0.00    +0.000 C 
ATOM      4  O   UNL     1       5.146   3.478  16.668  0.00  0.00    +0.000 OA
ATOM      5  C   UNL     1       4.710   4.165  17.834  0.00  0.00    +0.000 C 
ATOM      6  C   UNL     1       5.950   4.662  18.626  0.00  0.00    +0.000 C 
ATOM      7  C   UNL     1       6.731   5.634  17.713  0.00  0.00    +0.000 C 
ATOM      8  C   UNL     1       7.049   4.979  16.353  0.00  0.00    +0.000 C 
BRANCH   3  10
ATOM      9  C   UNL     1       5.355   4.090  13.252  0.00  0.00    +0.000 C 
ATOM     10  C   UNL     1       6.115   3.570  14.463  0.00  0.00    +0.000 C 
ENDBRANCH   3  10
BRANCH   6  11
ATOM     11  O   UNL     1       5.631   5.306  19.859  0.00  0.00    +0.000 OA
ATOM     12  H   UNL     1       4.659   5.314  19.969  0.00  0.00    +0.000 HD
ENDBRANCH   6  11
BRANCH   7  13
ATOM     13  O   UNL     1       7.941   6.094  18.329  0.00  0.00    +0.000 OA
ATOM     14  H   UNL     1       7.721   6.454  19.207  0.00  0.00    +0.000 HD
ENDBRANCH   7  13
BRANCH   8  15
ATOM     15  O   UNL     1       7.625   5.924  15.446  0.00  0.00    +0.000 OA
ATOM     16  H   UNL     1       8.594   5.866  15.506  0.00  0.00    +0.000 HD
ENDBRANCH   8  15
ENDBRANCH   1   5
BRANCH   1  17
ATOM     17  C   UNL     1       2.685   3.398  19.143  0.00  0.00    +0.000 C 
ATOM     18  S   UNL     1       1.272   2.642  18.688  0.00  0.00    +0.000 S 
BRANCH  17  19
ATOM     19  N   UNL     1       2.676   4.332  20.164  0.00  0.00    +0.000 N 
ATOM     20  H   UNL     1       2.855   4.009  21.109  0.00  0.00    +0.000 HD
BRANCH  19  21
ATOM     21  N   UNL     1       1.989   5.489  19.957  0.00  0.00    +0.000 NA
ATOM     22  C   UNL     1       2.667   6.532  19.586  0.00  0.00    +0.000 C 
BRANCH  22  23
ATOM     23  C   UNL     1       1.962   7.816  19.426  0.00  0.00    +0.000 A 
ATOM     24  C   UNL     1       1.965   8.461  18.182  0.00  0.00    +0.000 A 
ATOM     25  C   UNL     1       1.398   9.726  18.031  0.00  0.00    +0.000 A 
ATOM     26  C   UNL     1       0.820  10.340  19.137  0.00  0.00    +0.000 A 
ATOM     27 BR   UNL     1       0.112  12.090  18.957  0.00  0.00    +0.000 Br
ATOM     28  C   UNL     1       0.763   9.692  20.369  0.00  0.00    +0.000 A 
ATOM     29  C   UNL     1       1.334   8.421  20.527  0.00  0.00    +0.000 A 
ENDBRANCH  22  23
ENDBRANCH  19  21
ENDBRANCH  17  19
ENDBRANCH   1  17
TORSDOF 9
ENDMDL
MODEL 3
REMARK VINA RESULT:      -6.9      2.875      4.523
REMARK  Name = 
REMARK  10 active torsions:
REMARK  status: ('A' for Active; 'I' for Inactive)
REMARK    1  A    between atoms: C_1  and  C_2
REMARK    2  A    between atoms: C_2  and  C_3
REMARK    3  A    between atoms: C_5  and  N_6
REMARK    4  A    between atoms: N_6  and  C_7
REMARK    5  A    between atoms: C_7  and  N_9
REMARK    6  A    between atoms: N_9  and  N_10
REMARK    7  A    between atoms: C_11  and  C_12
REMARK    8  A    between atoms: C_19  and  O_20
REMARK    9  A    between atoms: C_21  and  O_22
REMARK   10  A    between atoms: C_23  and  O_24
REMARK                            x       y       z     vdW  Elec       q    Type
REMARK                         _______ _______ _______ _____ _____    ______ ____
ROOT
ATOM      1  N   UNL     1       1.968   5.973  18.193  0.00  0.00    +0.000 N 
ATOM      2  H   UNL     1       1.029   5.840  17.833  0.00  0.00    +0.000 HD
ENDROOT
BRANCH   1   5
ATOM      3  C   UNL     1       3.149   3.060  19.912  0.00  0.00    +0.000 C 
ATOM      4  O   UNL     1       2.551   4.337  19.679  0.00  0.00    +0.000 OA
ATOM      5  C   UNL     1       2.780   4.794  18.352  0.00  0.00    +0.000 C 
ATOM      6  C   UNL     1       4.294   5.085  18.167  0.00  0.00    +0.000 C 
ATOM      7  C   UNL     1       5.058   3.762  18.399  0.00  0.00    +0.000 C 
ATOM      8  C   UNL     1       4.678   3.136  19.757  0.00  0.00    +0.000 C 
BRANCH   3  10
ATOM      9  C   UNL     1       1.281   2.799  21.609  0.00  0.00    +0.000 C 
ATOM     10  C   UNL     1       2.759   2.585  21.320  0.00  0.00    +0.000 C 
ENDBRANCH   3  10
BRANCH   6  11
ATOM     11  O   UNL     1       4.630   5.621  16.887  0.00  0.00    +0.000 OA
ATOM     12  H   UNL     1       4.120   5.143  16.202  0.00  0.00    +0.000 HD
ENDBRANCH   6  11
BRANCH   7  13
ATOM     13  O   UNL     1       6.478   3.941  18.324  0.00  0.00    +0.000 OA
ATOM     14  H   UNL     1       6.724   4.689  18.898  0.00  0.00    +0.000 HD
ENDBRANCH   7  13
BRANCH   8  15
ATOM     15  O   UNL     1       5.253   1.834  19.905  0.00  0.00    +0.000 OA
ATOM     16  H   UNL     1       5.041   1.497  20.793  0.00  0.00    +0.000 HD
ENDBRANCH   8  15
ENDBRANCH   1   5
BRANCH   1  17
ATOM     17  C   UNL     1       2.182   7.228  18.700  0.00  0.00    +0.000 C 
ATOM     18  S   UNL     1       2.425   8.621  17.819  0.00  0.00    +0.000 S 
BRANCH  17  19
ATOM     19  N   UNL     1       2.215   7.264  20.083  0.00  0.00    +0.000 N 
ATOM     20  H   UNL     1       2.174   6.384  20.585  0.00  0.00    +0.000 HD
BRANCH  19  21
ATOM     21  N   UNL     1       1.828   8.417  20.694  0.00  0.00    +0.000 NA
ATOM     22  C   UNL     1       0.577   8.531  21.025  0.00  0.00    +0.000 C 
BRANCH  22  23
ATOM     23  C   UNL     1       0.114   9.797  21.620  0.00  0.00    +0.000 A 
ATOM     24  C   UNL     1      -0.702   9.772  22.759  0.00  0.00    +0.000 A 
ATOM     25  C   UNL     1      -1.241  10.949  23.278  0.00  0.00    +0.000 A 
ATOM     26  C   UNL     1      -0.952  12.156  22.650  0.00  0.00    +0.000 A 
ATOM     27 BR   UNL     1      -1.740  13.751  23.305  0.00  0.00    +0.000 Br
ATOM     28  C   UNL     1      -0.101  12.204  21.547  0.00  0.00    +0.000 A 
ATOM     29  C   UNL     1       0.441  11.023  21.020  0.00  0.00    +0.000 A 
ENDBRANCH  22  23
ENDBRANCH  19  21
ENDBRANCH  17  19
ENDBRANCH   1  17
TORSDOF 9
ENDMDL
MODEL 4
REMARK VINA RESULT:      -6.8      1.749      3.014
REMARK  Name = 
REMARK  10 active torsions:
REMARK  status: ('A' for Active; 'I' for Inactive)
REMARK    1  A    between atoms: C_1  and  C_2
REMARK    2  A    between atoms: C_2  and  C_3
REMARK    3  A    between atoms: C_5  and  N_6
REMARK    4  A    between atoms: N_6  and  C_7
REMARK    5  A    between atoms: C_7  and  N_9
REMARK    6  A    between atoms: N_9  and  N_10
REMARK    7  A    between atoms: C_11  and  C_12
REMARK    8  A    between atoms: C_19  and  O_20
REMARK    9  A    between atoms: C_21  and  O_22
REMARK   10  A    between atoms: C_23  and  O_24
REMARK                            x       y       z     vdW  Elec       q    Type
REMARK                         _______ _______ _______ _____ _____    ______ ____
ROOT
ATOM      1  N   UNL     1       3.912   4.183  19.970  0.00  0.00    +0.000 N 
ATOM      2  H   UNL     1       4.163   3.847  20.893  0.00  0.00    +0.000 HD
ENDROOT
BRANCH   1   5
ATOM      3  C   UNL     1       6.924   5.142  18.285  0.00  0.00    +0.000 C 
ATOM      4  O   UNL     1       5.767   5.213  19.120  0.00  0.00    +0.000 OA
ATOM      5  C   UNL     1       4.916   4.087  18.943  0.00  0.00    +0.000 C 
ATOM      6  C   UNL     1       4.310   4.126  17.513  0.00  0.00    +0.000 C 
ATOM      7  C   UNL     1       5.481   4.056  16.506  0.00  0.00    +0.000 C 
ATOM      8  C   UNL     1       6.527   5.152  16.798  0.00  0.00    +0.000 C 
BRANCH   3  10
ATOM      9  C   UNL     1       7.549   7.543  17.756  0.00  0.00    +0.000 C 
ATOM     10  C   UNL     1       7.845   6.325  18.619  0.00  0.00    +0.000 C 
ENDBRANCH   3  10
BRANCH   6  11
ATOM     11  O   UNL     1       3.380   3.076  17.249  0.00  0.00    +0.000 OA
ATOM     12  H   UNL     1       3.379   2.457  18.006  0.00  0.00    +0.000 HD
ENDBRANCH   6  11
BRANCH   7  13
ATOM     13  O   UNL     1       5.029   4.160  15.149  0.00  0.00    +0.000 OA
ATOM     14  H   UNL     1       5.766   4.492  14.605  0.00  0.00    +0.000 HD
ENDBRANCH   7  13
BRANCH   8  15
ATOM     15  O   UNL     1       7.688   4.990  15.977  0.00  0.00    +0.000 OA
ATOM     16  H   UNL     1       8.464   4.873  16.551  0.00  0.00    +0.000 HD
ENDBRANCH   8  15
ENDBRANCH   1   5
BRANCH   1  17
ATOM     17  C   UNL     1       2.745   4.902  19.954  0.00  0.00    +0.000 C 
ATOM     18  S   UNL     1       1.202   4.284  20.059  0.00  0.00    +0.000 S 
BRANCH  17  19
ATOM     19  N   UNL     1       2.940   6.264  19.806  0.00  0.00    +0.000 N 
ATOM     20  H   UNL     1       3.851   6.585  19.495  0.00  0.00    +0.000 HD
BRANCH  19  21
ATOM     21  N   UNL     1       2.125   7.099  20.507  0.00  0.00    +0.000 NA
ATOM     22  C   UNL     1       1.740   8.193  19.923  0.00  0.00    +0.000 C 
BRANCH  22  23
ATOM     23  C   UNL     1       0.919   9.151  20.683  0.00  0.00    +0.000 A 
ATOM     24  C   UNL     1       0.715   8.957  22.056  0.00  0.00    +0.000 A 
ATOM     25  C   UNL     1      -0.144   9.786  22.775  0.00  0.00    +0.000 A 
ATOM     26  C   UNL     1      -0.796  10.820  22.110  0.00  0.00    +0.000 A 
ATOM     27 BR   UNL     1      -2.023  11.906  23.064  0.00  0.00    +0.000 Br
ATOM     28  C   UNL     1      -0.566  11.058  20.756  0.00  0.00    +0.000 A 
ATOM     29  C   UNL     1       0.295  10.225  20.028  0.00  0.00    +0.000 A 
ENDBRANCH  22  23
ENDBRANCH  19  21
ENDBRANCH  17  19
ENDBRANCH   1  17
TORSDOF 9
ENDMDL
MODEL 5
REMARK VINA RESULT:      -6.8      1.097      1.206
REMARK  Name = 
REMARK  10 active torsions:
REMARK  status: ('A' for Active; 'I' for Inactive)
REMARK    1  A    between atoms: C_1  and  C_2
REMARK    2  A    between atoms: C_2  and  C_3
REMARK    3  A    between atoms: C_5  and  N_6
REMARK    4  A    between atoms: N_6  and  C_7
REMARK    5  A    between atoms: C_7  and  N_9
REMARK    6  A    between atoms: N_9  and  N_10
REMARK    7  A    between atoms: C_11  and  C_12
REMARK    8  A    between atoms: C_19  and  O_20
REMARK    9  A    between atoms: C_21  and  O_22
REMARK   10  A    between atoms: C_23  and  O_24
REMARK                            x       y       z     vdW  Elec       q    Type
REMARK                         _______ _______ _______ _____ _____    ______ ____
ROOT
ATOM      1  N   UNL     1       4.681   3.180  17.749  0.00  0.00    +0.000 N 
ATOM      2  H   UNL     1       5.322   2.454  18.049  0.00  0.00    +0.000 HD
ENDROOT
BRANCH   1   5
ATOM      3  C   UNL     1       5.873   4.074  14.491  0.00  0.00    +0.000 C 
ATOM      4  O   UNL     1       5.560   3.286  15.642  0.00  0.00    +0.000 OA
ATOM      5  C   UNL     1       5.153   4.093  16.740  0.00  0.00    +0.000 C 
ATOM      6  C   UNL     1       6.361   4.942  17.224  0.00  0.00    +0.000 C 
ATOM      7  C   UNL     1       6.798   5.846  16.049  0.00  0.00    +0.000 C 
ATOM      8  C   UNL     1       7.058   5.013  14.777  0.00  0.00    +0.000 C 
BRANCH   3  10
ATOM      9  C   UNL     1       5.256   3.354  12.138  0.00  0.00    +0.000 C 
ATOM     10  C   UNL     1       6.186   3.130  13.320  0.00  0.00    +0.000 C 
ENDBRANCH   3  10
BRANCH   6  11
ATOM     11  O   UNL     1       6.085   5.740  18.374  0.00  0.00    +0.000 OA
ATOM     12  H   UNL     1       5.214   5.481  18.736  0.00  0.00    +0.000 HD
ENDBRANCH   6  11
BRANCH   7  13
ATOM     13  O   UNL     1       7.961   6.621  16.372  0.00  0.00    +0.000 OA
ATOM     14  H   UNL     1       7.931   7.449  15.859  0.00  0.00    +0.000 HD
ENDBRANCH   7  13
BRANCH   8  15
ATOM     15  O   UNL     1       7.302   5.856  13.647  0.00  0.00    +0.000 OA
ATOM     16  H   UNL     1       6.479   5.942  13.137  0.00  0.00    +0.000 HD
ENDBRANCH   8  15
ENDBRANCH   1   5
BRANCH   1  17
ATOM     17  C   UNL     1       3.582   3.301  18.558  0.00  0.00    +0.000 C 
ATOM     18  S   UNL     1       2.097   2.582  18.322  0.00  0.00    +0.000 S 
BRANCH  17  19
ATOM     19  N   UNL     1       3.786   4.137  19.642  0.00  0.00    +0.000 N 
ATOM     20  H   UNL     1       3.776   3.728  20.569  0.00  0.00    +0.000 HD
BRANCH  19  21
ATOM     21  N   UNL     1       3.518   5.462  19.477  0.00  0.00    +0.000 NA
ATOM     22  C   UNL     1       2.372   5.901  19.902  0.00  0.00    +0.000 C 
BRANCH  22  23
ATOM     23  C   UNL     1       2.024   7.313  19.671  0.00  0.00    +0.000 A 
ATOM     24  C   UNL     1       1.419   8.056  20.694  0.00  0.00    +0.000 A 
ATOM     25  C   UNL     1       0.982   9.361  20.467  0.00  0.00    +0.000 A 
ATOM     26  C   UNL     1       1.161   9.921  19.206  0.00  0.00    +0.000 A 
ATOM     27 BR   UNL     1       0.504  11.667  18.868  0.00  0.00    +0.000 Br
ATOM     28  C   UNL     1       1.806   9.214  18.193  0.00  0.00    +0.000 A 
ATOM     29  C   UNL     1       2.244   7.900  18.416  0.00  0.00    +0.000 A 
ENDBRANCH  22  23
ENDBRANCH  19  21
ENDBRANCH  17  19
ENDBRANCH   1  17
TORSDOF 9
ENDMDL
MODEL 6
REMARK VINA RESULT:      -6.8      2.190      3.658
REMARK  Name = 
REMARK  10 active torsions:
REMARK  status: ('A' for Active; 'I' for Inactive)
REMARK    1  A    between atoms: C_1  and  C_2
REMARK    2  A    between atoms: C_2  and  C_3
REMARK    3  A    between atoms: C_5  and  N_6
REMARK    4  A    between atoms: N_6  and  C_7
REMARK    5  A    between atoms: C_7  and  N_9
REMARK    6  A    between atoms: N_9  and  N_10
REMARK    7  A    between atoms: C_11  and  C_12
REMARK    8  A    between atoms: C_19  and  O_20
REMARK    9  A    between atoms: C_21  and  O_22
REMARK   10  A    between atoms: C_23  and  O_24
REMARK                            x       y       z     vdW  Elec       q    Type
REMARK                         _______ _______ _______ _____ _____    ______ ____
ROOT
ATOM      1  N   UNL     1       3.265   5.122  19.505  0.00  0.00    +0.000 N 
ATOM      2  H   UNL     1       2.926   4.533  20.257  0.00  0.00    +0.000 HD
ENDROOT
BRANCH   1   5
ATOM      3  C   UNL     1       6.693   5.182  18.465  0.00  0.00    +0.000 C 
ATOM      4  O   UNL     1       5.433   5.619  18.980  0.00  0.00    +0.000 OA
ATOM      5  C   UNL     1       4.412   4.651  18.772  0.00  0.00    +0.000 C 
ATOM      6  C   UNL     1       4.133   4.524  17.250  0.00  0.00    +0.000 C 
ATOM      7  C   UNL     1       5.440   4.053  16.572  0.00  0.00    +0.000 C 
ATOM      8  C   UNL     1       6.618   4.979  16.941  0.00  0.00    +0.000 C 
BRANCH   3  10
ATOM      9  C   UNL     1       7.727   7.430  17.907  0.00  0.00    +0.000 C 
ATOM     10  C   UNL     1       7.761   6.223  18.832  0.00  0.00    +0.000 C 
ENDBRANCH   3  10
BRANCH   6  11
ATOM     11  O   UNL     1       3.070   3.628  16.927  0.00  0.00    +0.000 OA
ATOM     12  H   UNL     1       3.194   2.798  17.431  0.00  0.00    +0.000 HD
ENDBRANCH   6  11
BRANCH   7  13
ATOM     13  O   UNL     1       5.308   3.976  15.146  0.00  0.00    +0.000 OA
ATOM     14  H   UNL     1       5.798   4.719  14.751  0.00  0.00    +0.000 HD
ENDBRANCH   7  13
BRANCH   8  15
ATOM     15  O   UNL     1       7.858   4.457  16.453  0.00  0.00    +0.000 OA
ATOM     16  H   UNL     1       8.067   4.886  15.605  0.00  0.00    +0.000 HD
ENDBRANCH   8  15
ENDBRANCH   1   5
BRANCH   1  17
ATOM     17  C   UNL     1       2.713   6.376  19.509  0.00  0.00    +0.000 C 
ATOM     18  S   UNL     1       2.662   7.437  18.225  0.00  0.00    +0.000 S 
BRANCH  17  19
ATOM     19  N   UNL     1       2.191   6.744  20.737  0.00  0.00    +0.000 N 
ATOM     20  H   UNL     1       2.187   6.054  21.480  0.00  0.00    +0.000 HD
BRANCH  19  21
ATOM     21  N   UNL     1       1.311   7.782  20.763  0.00  0.00    +0.000 NA
ATOM     22  C   UNL     1       1.377   8.600  21.770  0.00  0.00    +0.000 C 
BRANCH  22  23
ATOM     23  C   UNL     1       0.390   9.689  21.864  0.00  0.00    +0.000 A 
ATOM     24  C   UNL     1       0.277  10.618  20.820  0.00  0.00    +0.000 A 
ATOM     25  C   UNL     1      -0.572  11.718  20.931  0.00  0.00    +0.000 A 
ATOM     26  C   UNL     1      -1.315  11.880  22.096  0.00  0.00    +0.000 A 
ATOM     27 BR   UNL     1      -2.416  13.413  22.286  0.00  0.00    +0.000 Br
ATOM     28  C   UNL     1      -1.253  10.940  23.123  0.00  0.00    +0.000 A 
ATOM     29  C   UNL     1      -0.398   9.833  23.017  0.00  0.00    +0.000 A 
ENDBRANCH  22  23
ENDBRANCH  19  21
ENDBRANCH  17  19
ENDBRANCH   1  17
TORSDOF 9
ENDMDL
MODEL 7
REMARK VINA RESULT:      -6.8      2.182      3.522
REMARK  Name = 
REMARK  10 active torsions:
REMARK  status: ('A' for Active; 'I' for Inactive)
REMARK    1  A    between atoms: C_1  and  C_2
REMARK    2  A    between atoms: C_2  and  C_3
REMARK    3  A    between atoms: C_5  and  N_6
REMARK    4  A    between atoms: N_6  and  C_7
REMARK    5  A    between atoms: C_7  and  N_9
REMARK    6  A    between atoms: N_9  and  N_10
REMARK    7  A    between atoms: C_11  and  C_12
REMARK    8  A    between atoms: C_19  and  O_20
REMARK    9  A    between atoms: C_21  and  O_22
REMARK   10  A    between atoms: C_23  and  O_24
REMARK                            x       y       z     vdW  Elec       q    Type
REMARK                         _______ _______ _______ _____ _____    ______ ____
ROOT
ATOM      1  N   UNL     1       3.384   5.193  19.647  0.00  0.00    +0.000 N 
ATOM      2  H   UNL     1       3.147   4.677  20.487  0.00  0.00    +0.000 HD
ENDROOT
BRANCH   1   5
ATOM      3  C   UNL     1       6.771   5.231  18.481  0.00  0.00    +0.000 C 
ATOM      4  O   UNL     1       5.533   5.678  19.037  0.00  0.00    +0.000 OA
ATOM      5  C   UNL     1       4.502   4.711  18.877  0.00  0.00    +0.000 C 
ATOM      6  C   UNL     1       4.167   4.567  17.368  0.00  0.00    +0.000 C 
ATOM      7  C   UNL     1       5.447   4.086  16.648  0.00  0.00    +0.000 C 
ATOM      8  C   UNL     1       6.640   5.011  16.963  0.00  0.00    +0.000 C 
BRANCH   3  10
ATOM      9  C   UNL     1       7.730   7.513  17.927  0.00  0.00    +0.000 C 
ATOM     10  C   UNL     1       7.855   6.272  18.797  0.00  0.00    +0.000 C 
ENDBRANCH   3  10
BRANCH   6  11
ATOM     11  O   UNL     1       3.091   3.672  17.094  0.00  0.00    +0.000 OA
ATOM     12  H   UNL     1       2.337   4.184  16.737  0.00  0.00    +0.000 HD
ENDBRANCH   6  11
BRANCH   7  13
ATOM     13  O   UNL     1       5.263   3.993  15.229  0.00  0.00    +0.000 OA
ATOM     14  H   UNL     1       4.555   3.346  15.053  0.00  0.00    +0.000 HD
ENDBRANCH   7  13
BRANCH   8  15
ATOM     15  O   UNL     1       7.860   4.480  16.436  0.00  0.00    +0.000 OA
ATOM     16  H   UNL     1       8.605   4.839  16.948  0.00  0.00    +0.000 HD
ENDBRANCH   8  15
ENDBRANCH   1   5
BRANCH   1  17
ATOM     17  C   UNL     1       2.746   6.402  19.554  0.00  0.00    +0.000 C 
ATOM     18  S   UNL     1       2.669   7.378  18.207  0.00  0.00    +0.000 S 
BRANCH  17  19
ATOM     19  N   UNL     1       2.151   6.802  20.738  0.00  0.00    +0.000 N 
ATOM     20  H   UNL     1       1.974   6.097  21.446  0.00  0.00    +0.000 HD
BRANCH  19  21
ATOM     21  N   UNL     1       1.424   7.952  20.723  0.00  0.00    +0.000 NA
ATOM     22  C   UNL     1       1.159   8.512  21.865  0.00  0.00    +0.000 C 
BRANCH  22  23
ATOM     23  C   UNL     1       0.312   9.716  21.885  0.00  0.00    +0.000 A 
ATOM     24  C   UNL     1      -0.418  10.034  23.039  0.00  0.00    +0.000 A 
ATOM     25  C   UNL     1      -1.309  11.106  23.048  0.00  0.00    +0.000 A 
ATOM     26  C   UNL     1      -1.461  11.865  21.892  0.00  0.00    +0.000 A 
ATOM     27 BR   UNL     1      -2.725  13.279  21.874  0.00  0.00    +0.000 Br
ATOM     28  C   UNL     1      -0.707  11.594  20.752  0.00  0.00    +0.000 A 
ATOM     29  C   UNL     1       0.188  10.514  20.737  0.00  0.00    +0.000 A 
ENDBRANCH  22  23
ENDBRANCH  19  21
ENDBRANCH  17  19
ENDBRANCH   1  17
TORSDOF 9
ENDMDL
MODEL 8
REMARK VINA RESULT:      -6.7      2.930      4.801
REMARK  Name = 
REMARK  10 active torsions:
REMARK  status: ('A' for Active; 'I' for Inactive)
REMARK    1  A    between atoms: C_1  and  C_2
REMARK    2  A    between atoms: C_2  and  C_3
REMARK    3  A    between atoms: C_5  and  N_6
REMARK    4  A    between atoms: N_6  and  C_7
REMARK    5  A    between atoms: C_7  and  N_9
REMARK    6  A    between atoms: N_9  and  N_10
REMARK    7  A    between atoms: C_11  and  C_12
REMARK    8  A    between atoms: C_19  and  O_20
REMARK    9  A    between atoms: C_21  and  O_22
REMARK   10  A    between atoms: C_23  and  O_24
REMARK                            x       y       z     vdW  Elec       q    Type
REMARK                         _______ _______ _______ _____ _____    ______ ____
ROOT
ATOM      1  N   UNL     1       4.613   5.671  18.500  0.00  0.00    +0.000 N 
ATOM      2  H   UNL     1       5.248   5.622  19.288  0.00  0.00    +0.000 HD
ENDROOT
BRANCH   1   5
ATOM      3  C   UNL     1       1.852   3.568  19.388  0.00  0.00    +0.000 C 
ATOM      4  O   UNL     1       2.927   4.502  19.508  0.00  0.00    +0.000 OA
ATOM      5  C   UNL     1       3.707   4.566  18.320  0.00  0.00    +0.000 C 
ATOM      6  C   UNL     1       4.448   3.215  18.123  0.00  0.00    +0.000 C 
ATOM      7  C   UNL     1       3.377   2.110  17.982  0.00  0.00    +0.000 C 
ATOM      8  C   UNL     1       2.390   2.142  19.168  0.00  0.00    +0.000 C 
BRANCH   3  10
ATOM      9  C   UNL     1       1.628   2.903  21.826  0.00  0.00    +0.000 C 
ATOM     10  C   UNL     1       0.993   3.643  20.659  0.00  0.00    +0.000 C 
ENDBRANCH   3  10
BRANCH   6  11
ATOM     11  O   UNL     1       5.321   3.191  16.994  0.00  0.00    +0.000 OA
ATOM     12  H   UNL     1       5.696   2.292  16.905  0.00  0.00    +0.000 HD
ENDBRANCH   6  11
BRANCH   7  13
ATOM     13  O   UNL     1       3.963   0.806  17.870  0.00  0.00    +0.000 OA
ATOM     14  H   UNL     1       4.928   0.893  17.977  0.00  0.00    +0.000 HD
ENDBRANCH   7  13
BRANCH   8  15
ATOM     15  O   UNL     1       1.304   1.233  18.961  0.00  0.00    +0.000 OA
ATOM     16  H   UNL     1       0.573   1.710  18.532  0.00  0.00    +0.000 HD
ENDBRANCH   8  15
ENDBRANCH   1   5
BRANCH   1  17
ATOM     17  C   UNL     1       4.926   6.667  17.612  0.00  0.00    +0.000 C 
ATOM     18  S   UNL     1       6.433   6.988  16.978  0.00  0.00    +0.000 S 
BRANCH  17  19
ATOM     19  N   UNL     1       3.845   7.461  17.272  0.00  0.00    +0.000 N 
ATOM     20  H   UNL     1       3.863   7.935  16.376  0.00  0.00    +0.000 HD
BRANCH  19  21
ATOM     21  N   UNL     1       3.073   7.943  18.285  0.00  0.00    +0.000 NA
ATOM     22  C   UNL     1       2.026   8.641  17.962  0.00  0.00    +0.000 C 
BRANCH  22  23
ATOM     23  C   UNL     1       1.214   9.238  19.036  0.00  0.00    +0.000 A 
ATOM     24  C   UNL     1       0.475  10.403  18.784  0.00  0.00    +0.000 A 
ATOM     25  C   UNL     1      -0.215  11.047  19.810  0.00  0.00    +0.000 A 
ATOM     26  C   UNL     1      -0.167  10.512  21.093  0.00  0.00    +0.000 A 
ATOM     27 BR   UNL     1      -1.042  11.422  22.508  0.00  0.00    +0.000 Br
ATOM     28  C   UNL     1       0.521   9.328  21.351  0.00  0.00    +0.000 A 
ATOM     29  C   UNL     1       1.219   8.678  20.323  0.00  0.00    +0.000 A 
ENDBRANCH  22  23
ENDBRANCH  19  21
ENDBRANCH  17  19
ENDBRANCH   1  17
TORSDOF 9
ENDMDL
MODEL 9
REMARK VINA RESULT:      -6.7      1.729      3.100
REMARK  Name = 
REMARK  10 active torsions:
REMARK  status: ('A' for Active; 'I' for Inactive)
REMARK    1  A    between atoms: C_1  and  C_2
REMARK    2  A    between atoms: C_2  and  C_3
REMARK    3  A    between atoms: C_5  and  N_6
REMARK    4  A    between atoms: N_6  and  C_7
REMARK    5  A    between atoms: C_7  and  N_9
REMARK    6  A    between atoms: N_9  and  N_10
REMARK    7  A    between atoms: C_11  and  C_12
REMARK    8  A    between atoms: C_19  and  O_20
REMARK    9  A    between atoms: C_21  and  O_22
REMARK   10  A    between atoms: C_23  and  O_24
REMARK                            x       y       z     vdW  Elec       q    Type
REMARK                         _______ _______ _______ _____ _____    ______ ____
ROOT
ATOM      1  N   UNL     1       3.167   5.523  19.054  0.00  0.00    +0.000 N 
ATOM      2  H   UNL     1       2.740   6.197  18.429  0.00  0.00    +0.000 HD
ENDROOT
BRANCH   1   5
ATOM      3  C   UNL     1       6.703   5.237  18.554  0.00  0.00    +0.000 C 
ATOM      4  O   UNL     1       5.419   5.817  18.789  0.00  0.00    +0.000 OA
ATOM      5  C   UNL     1       4.370   4.876  18.596  0.00  0.00    +0.000 C 
ATOM      6  C   UNL     1       4.302   4.491  17.092  0.00  0.00    +0.000 C 
ATOM      7  C   UNL     1       5.654   3.846  16.712  0.00  0.00    +0.000 C 
ATOM      8  C   UNL     1       6.831   4.767  17.094  0.00  0.00    +0.000 C 
BRANCH   3  10
ATOM      9  C   UNL     1       7.764   7.458  17.940  0.00  0.00    +0.000 C 
ATOM     10  C   UNL     1       7.781   6.276  18.897  0.00  0.00    +0.000 C 
ENDBRANCH   3  10
BRANCH   6  11
ATOM     11  O   UNL     1       3.233   3.602  16.769  0.00  0.00    +0.000 OA
ATOM     12  H   UNL     1       3.496   2.691  17.011  0.00  0.00    +0.000 HD
ENDBRANCH   6  11
BRANCH   7  13
ATOM     13  O   UNL     1       5.720   3.521  15.318  0.00  0.00    +0.000 OA
ATOM     14  H   UNL     1       6.658   3.472  15.057  0.00  0.00    +0.000 HD
ENDBRANCH   7  13
BRANCH   8  15
ATOM     15  O   UNL     1       8.087   4.110  16.897  0.00  0.00    +0.000 OA
ATOM     16  H   UNL     1       8.702   4.393  17.595  0.00  0.00    +0.000 HD
ENDBRANCH   8  15
ENDBRANCH   1   5
BRANCH   1  17
ATOM     17  C   UNL     1       2.364   5.175  20.108  0.00  0.00    +0.000 C 
ATOM     18  S   UNL     1       1.691   3.676  20.386  0.00  0.00    +0.000 S 
BRANCH  17  19
ATOM     19  N   UNL     1       2.104   6.225  20.972  0.00  0.00    +0.000 N 
ATOM     20  H   UNL     1       1.823   6.005  21.921  0.00  0.00    +0.000 HD
BRANCH  19  21
ATOM     21  N   UNL     1       1.777   7.427  20.424  0.00  0.00    +0.000 NA
ATOM     22  C   UNL     1       1.178   8.292  21.186  0.00  0.00    +0.000 C 
BRANCH  22  23
ATOM     23  C   UNL     1       0.745   9.572  20.601  0.00  0.00    +0.000 A 
ATOM     24  C   UNL     1       0.979   9.831  19.243  0.00  0.00    +0.000 A 
ATOM     25  C   UNL     1       0.677  11.075  18.690  0.00  0.00    +0.000 A 
ATOM     26  C   UNL     1       0.131  12.060  19.507  0.00  0.00    +0.000 A 
ATOM     27 BR   UNL     1      -0.214  13.777  18.780  0.00  0.00    +0.000 Br
ATOM     28  C   UNL     1      -0.154  11.803  20.847  0.00  0.00    +0.000 A 
ATOM     29  C   UNL     1       0.151  10.555  21.408  0.00  0.00    +0.000 A 
ENDBRANCH  22  23
ENDBRANCH  19  21
ENDBRANCH  17  19
ENDBRANCH   1  17
TORSDOF 9
ENDMDL
