MODEL 1
REMARK VINA RESULT:      -7.9      0.000      0.000
REMARK  Name = 
REMARK  11 active torsions:
REMARK  status: ('A' for Active; 'I' for Inactive)
REMARK    1  A    between atoms: C_1  and  C_2
REMARK    2  A    between atoms: C_5  and  C_6
REMARK    3  A    between atoms: C_7  and  C_8
REMARK    4  A    between atoms: C_8  and  S_9
REMARK    5  A    between atoms: S_9  and  C_10
REMARK    6  A    between atoms: C_12  and  C_13
REMARK    7  A    between atoms: C_13  and  C_14
REMARK    8  A    between atoms: C_13  and  C_15
REMARK    9  A    between atoms: C_13  and  C_16
REMARK   10  A    between atoms: N_22  and  C_23
REMARK   11  A    between atoms: N_26  and  C_27
REMARK                            x       y       z     vdW  Elec       q    Type
REMARK                         _______ _______ _______ _____ _____    ______ ____
ROOT
ATOM      1  C   UNL     1       3.012   6.893  18.484  0.00  0.00    +0.000 A 
ATOM      2  N   UNL     1       3.000   5.636  19.003  0.00  0.00    +0.000 NA
ATOM      3  C   UNL     1       2.170   5.355  20.023  0.00  0.00    +0.000 A 
ATOM      4  N   UNL     1       1.441   6.292  20.644  0.00  0.00    +0.000 NA
ATOM      5  C   UNL     1       1.470   7.543  20.139  0.00  0.00    +0.000 A 
ATOM      6  C   UNL     1       2.197   7.874  19.017  0.00  0.00    +0.000 A 
ATOM      7  C   UNL     1       1.944   9.195  18.453  0.00  0.00    +0.000 A 
ATOM      8  O   UNL     1       2.008   9.374  17.242  0.00  0.00    +0.000 OA
ATOM      9  N   UNL     1       1.570  10.171  19.355  0.00  0.00    +0.000 N 
ATOM     10  C   UNL     1       1.576  11.550  18.901  0.00  0.00    +0.000 C 
ATOM     11  C   UNL     1       0.784   9.873  20.459  0.00  0.00    +0.000 A 
ATOM     12  O   UNL     1       0.168  10.748  21.070  0.00  0.00    +0.000 OA
ATOM     13  N   UNL     1       0.704   8.533  20.799  0.00  0.00    +0.000 N 
ATOM     14  C   UNL     1      -0.146   8.114  21.902  0.00  0.00    +0.000 C 
ENDROOT
BRANCH   3  15
ATOM     15  C   UNL     1       2.063   3.912  20.522  0.00  0.00    +0.000 C 
ATOM     16  C   UNL     1       0.683   3.347  20.150  0.00  0.00    +0.000 C 
ATOM     17  C   UNL     1       3.156   3.026  19.881  0.00  0.00    +0.000 C 
ATOM     18  C   UNL     1       2.247   3.838  22.051  0.00  0.00    +0.000 C 
ENDBRANCH   3  15
BRANCH   1  19
ATOM     19  S   UNL     1       4.111   6.996  17.075  0.00  0.00    +0.000 S 
BRANCH  19  20
ATOM     20  C   UNL     1       4.453   5.267  16.581  0.00  0.00    +0.000 C 
BRANCH  20  27
ATOM     21  C   UNL     1       6.192   5.184  19.346  0.00  0.00    +0.000 C 
ATOM     22  C   UNL     1       6.648   4.889  17.966  0.00  0.00    +0.000 A 
ATOM     23  N   UNL     1       7.914   4.514  17.749  0.00  0.00    +0.000 NA
ATOM     24  O   UNL     1       8.027   4.338  16.388  0.00  0.00    +0.000 OA
ATOM     25  C   UNL     1       6.834   4.600  15.792  0.00  0.00    +0.000 A 
ATOM     26  C   UNL     1       6.809   4.461  14.324  0.00  0.00    +0.000 C 
ATOM     27  C   UNL     1       5.903   4.946  16.749  0.00  0.00    +0.000 A 
ENDBRANCH  20  27
ENDBRANCH  19  20
ENDBRANCH   1  19
TORSDOF 4
ENDMDL
MODEL 2
REMARK VINA RESULT:      -7.8      0.806      1.103
REMARK  Name = 
REMARK  11 active torsions:
REMARK  status: ('A' for Active; 'I' for Inactive)
REMARK    1  A    between atoms: C_1  and  C_2
REMARK    2  A    between atoms: C_5  and  C_6
REMARK    3  A    between atoms: C_7  and  C_8
REMARK    4  A    between atoms: C_8  and  S_9
REMARK    5  A    between atoms: S_9  and  C_10
REMARK    6  A    between atoms: C_12  and  C_13
REMARK    7  A    between atoms: C_13  and  C_14
REMARK    8  A    between atoms: C_13  and  C_15
REMARK    9  A    between atoms: C_13  and  C_16
REMARK   10  A    between atoms: N_22  and  C_23
REMARK   11  A    between atoms: N_26  and  C_27
REMARK                            x       y       z     vdW  Elec       q    Type
REMARK                         _______ _______ _______ _____ _____    ______ ____
ROOT
ATOM      1  C   UNL     1       3.222   6.638  18.194  0.00  0.00    +0.000 A 
ATOM      2  N   UNL     1       3.256   5.383  18.717  0.00  0.00    +0.000 NA
ATOM      3  C   UNL     1       2.487   5.095  19.781  0.00  0.00    +0.000 A 
ATOM      4  N   UNL     1       1.780   6.025  20.438  0.00  0.00    +0.000 NA
ATOM      5  C   UNL     1       1.764   7.274  19.929  0.00  0.00    +0.000 A 
ATOM      6  C   UNL     1       2.424   7.611  18.768  0.00  0.00    +0.000 A 
ATOM      7  C   UNL     1       2.124   8.926  18.215  0.00  0.00    +0.000 A 
ATOM      8  O   UNL     1       2.119   9.102  17.002  0.00  0.00    +0.000 OA
ATOM      9  N   UNL     1       1.786   9.900  19.133  0.00  0.00    +0.000 N 
ATOM     10  C   UNL     1       1.748  11.278  18.675  0.00  0.00    +0.000 C 
ATOM     11  C   UNL     1       1.065   9.596  20.278  0.00  0.00    +0.000 A 
ATOM     12  O   UNL     1       0.471  10.464  20.920  0.00  0.00    +0.000 OA
ATOM     13  N   UNL     1       1.021   8.256  20.627  0.00  0.00    +0.000 N 
ATOM     14  C   UNL     1       0.239   7.829  21.775  0.00  0.00    +0.000 C 
ENDROOT
BRANCH   3  15
ATOM     15  C   UNL     1       2.427   3.653  20.289  0.00  0.00    +0.000 C 
ATOM     16  C   UNL     1       2.194   3.659  21.809  0.00  0.00    +0.000 C 
ATOM     17  C   UNL     1       1.275   2.878  19.610  0.00  0.00    +0.000 C 
ATOM     18  C   UNL     1       3.736   2.900  19.980  0.00  0.00    +0.000 C 
ENDBRANCH   3  15
BRANCH   1  19
ATOM     19  S   UNL     1       4.242   6.752  16.727  0.00  0.00    +0.000 S 
BRANCH  19  20
ATOM     20  C   UNL     1       5.934   7.117  17.323  0.00  0.00    +0.000 C 
BRANCH  20  27
ATOM     21  C   UNL     1       7.793   5.734  19.627  0.00  0.00    +0.000 C 
ATOM     22  C   UNL     1       7.599   5.301  18.222  0.00  0.00    +0.000 A 
ATOM     23  N   UNL     1       8.214   4.200  17.774  0.00  0.00    +0.000 NA
ATOM     24  O   UNL     1       7.855   4.081  16.449  0.00  0.00    +0.000 OA
ATOM     25  C   UNL     1       7.025   5.101  16.106  0.00  0.00    +0.000 A 
ATOM     26  C   UNL     1       6.566   5.106  14.705  0.00  0.00    +0.000 C 
ATOM     27  C   UNL     1       6.809   5.912  17.201  0.00  0.00    +0.000 A 
ENDBRANCH  20  27
ENDBRANCH  19  20
ENDBRANCH   1  19
TORSDOF 4
ENDMDL
MODEL 3
REMARK VINA RESULT:      -7.7      0.394      1.561
REMARK  Name = 
REMARK  11 active torsions:
REMARK  status: ('A' for Active; 'I' for Inactive)
REMARK    1  A    between atoms: C_1  and  C_2
REMARK    2  A    between atoms: C_5  and  C_6
REMARK    3  A    between atoms: C_7  and  C_8
REMARK    4  A    between atoms: C_8  and  S_9
REMARK    5  A    between atoms: S_9  and  C_10
REMARK    6  A    between atoms: C_12  and  C_13
REMARK    7  A    between atoms: C_13  and  C_14
REMARK    8  A    between atoms: C_13  and  C_15
REMARK    9  A    between atoms: C_13  and  C_16
REMARK   10  A    between atoms: N_22  and  C_23
REMARK   11  A    between atoms: N_26  and  C_27
REMARK                            x       y       z     vdW  Elec       q    Type
REMARK                         _______ _______ _______ _____ _____    ______ ____
ROOT
ATOM      1  C   UNL     1       2.976   6.931  18.490  0.00  0.00    +0.000 A 
ATOM      2  N   UNL     1       2.970   5.671  19.001  0.00  0.00    +0.000 NA
ATOM      3  C   UNL     1       2.145   5.382  20.022  0.00  0.00    +0.000 A 
ATOM      4  N   UNL     1       1.415   6.313  20.651  0.00  0.00    +0.000 NA
ATOM      5  C   UNL     1       1.439   7.567  20.155  0.00  0.00    +0.000 A 
ATOM      6  C   UNL     1       2.161   7.907  19.032  0.00  0.00    +0.000 A 
ATOM      7  C   UNL     1       1.903   9.231  18.478  0.00  0.00    +0.000 A 
ATOM      8  O   UNL     1       1.962   9.418  17.268  0.00  0.00    +0.000 OA
ATOM      9  N   UNL     1       1.530  10.200  19.387  0.00  0.00    +0.000 N 
ATOM     10  C   UNL     1       1.530  11.582  18.941  0.00  0.00    +0.000 C 
ATOM     11  C   UNL     1       0.749   9.894  20.491  0.00  0.00    +0.000 A 
ATOM     12  O   UNL     1       0.133  10.763  21.110  0.00  0.00    +0.000 OA
ATOM     13  N   UNL     1       0.673   8.551  20.824  0.00  0.00    +0.000 N 
ATOM     14  C   UNL     1      -0.172   8.123  21.927  0.00  0.00    +0.000 C 
ENDROOT
BRANCH   3  15
ATOM     15  C   UNL     1       2.043   3.936  20.513  0.00  0.00    +0.000 C 
ATOM     16  C   UNL     1       0.656   3.376  20.159  0.00  0.00    +0.000 C 
ATOM     17  C   UNL     1       3.123   3.053  19.848  0.00  0.00    +0.000 C 
ATOM     18  C   UNL     1       2.251   3.851  22.037  0.00  0.00    +0.000 C 
ENDBRANCH   3  15
BRANCH   1  19
ATOM     19  S   UNL     1       4.070   7.046  17.077  0.00  0.00    +0.000 S 
BRANCH  19  20
ATOM     20  C   UNL     1       4.370   5.323  16.537  0.00  0.00    +0.000 C 
BRANCH  20  27
ATOM     21  C   UNL     1       6.476   4.318  14.249  0.00  0.00    +0.000 C 
ATOM     22  C   UNL     1       6.728   4.545  15.693  0.00  0.00    +0.000 A 
ATOM     23  N   UNL     1       7.955   4.354  16.192  0.00  0.00    +0.000 NA
ATOM     24  O   UNL     1       7.859   4.621  17.540  0.00  0.00    +0.000 OA
ATOM     25  C   UNL     1       6.583   4.975  17.847  0.00  0.00    +0.000 A 
ATOM     26  C   UNL     1       6.329   5.281  19.267  0.00  0.00    +0.000 C 
ATOM     27  C   UNL     1       5.810   4.959  16.704  0.00  0.00    +0.000 A 
ENDBRANCH  20  27
ENDBRANCH  19  20
ENDBRANCH   1  19
TORSDOF 4
ENDMDL
MODEL 4
REMARK VINA RESULT:      -7.0      1.055      1.111
REMARK  Name = 
REMARK  11 active torsions:
REMARK  status: ('A' for Active; 'I' for Inactive)
REMARK    1  A    between atoms: C_1  and  C_2
REMARK    2  A    between atoms: C_5  and  C_6
REMARK    3  A    between atoms: C_7  and  C_8
REMARK    4  A    between atoms: C_8  and  S_9
REMARK    5  A    between atoms: S_9  and  C_10
REMARK    6  A    between atoms: C_12  and  C_13
REMARK    7  A    between atoms: C_13  and  C_14
REMARK    8  A    between atoms: C_13  and  C_15
REMARK    9  A    between atoms: C_13  and  C_16
REMARK   10  A    between atoms: N_22  and  C_23
REMARK   11  A    between atoms: N_26  and  C_27
REMARK                            x       y       z     vdW  Elec       q    Type
REMARK                         _______ _______ _______ _____ _____    ______ ____
ROOT
ATOM      1  C   UNL     1       2.955   6.913  18.455  0.00  0.00    +0.000 A 
ATOM      2  N   UNL     1       2.964   5.649  18.957  0.00  0.00    +0.000 NA
ATOM      3  C   UNL     1       2.165   5.349  19.995  0.00  0.00    +0.000 A 
ATOM      4  N   UNL     1       1.449   6.274  20.649  0.00  0.00    +0.000 NA
ATOM      5  C   UNL     1       1.457   7.531  20.162  0.00  0.00    +0.000 A 
ATOM      6  C   UNL     1       2.151   7.882  19.025  0.00  0.00    +0.000 A 
ATOM      7  C   UNL     1       1.876   9.210  18.487  0.00  0.00    +0.000 A 
ATOM      8  O   UNL     1       1.905   9.407  17.278  0.00  0.00    +0.000 OA
ATOM      9  N   UNL     1       1.522  10.171  19.413  0.00  0.00    +0.000 N 
ATOM     10  C   UNL     1       1.508  11.556  18.979  0.00  0.00    +0.000 C 
ATOM     11  C   UNL     1       0.769   9.853  20.534  0.00  0.00    +0.000 A 
ATOM     12  O   UNL     1       0.166  10.716  21.174  0.00  0.00    +0.000 OA
ATOM     13  N   UNL     1       0.705   8.508  20.857  0.00  0.00    +0.000 N 
ATOM     14  C   UNL     1      -0.111   8.069  21.977  0.00  0.00    +0.000 C 
ENDROOT
BRANCH   3  15
ATOM     15  C   UNL     1       2.080   3.899  20.476  0.00  0.00    +0.000 C 
ATOM     16  C   UNL     1       0.708   3.318  20.096  0.00  0.00    +0.000 C 
ATOM     17  C   UNL     1       3.185   3.038  19.825  0.00  0.00    +0.000 C 
ATOM     18  C   UNL     1       2.264   3.809  22.004  0.00  0.00    +0.000 C 
ENDBRANCH   3  15
BRANCH   1  19
ATOM     19  S   UNL     1       4.014   7.042  17.017  0.00  0.00    +0.000 S 
BRANCH  19  20
ATOM     20  C   UNL     1       4.571   5.337  16.653  0.00  0.00    +0.000 C 
BRANCH  20  27
ATOM     21  C   UNL     1       7.447   6.737  17.318  0.00  0.00    +0.000 C 
ATOM     22  C   UNL     1       7.066   5.947  16.123  0.00  0.00    +0.000 A 
ATOM     23  N   UNL     1       7.968   5.719  15.160  0.00  0.00    +0.000 NA
ATOM     24  O   UNL     1       7.311   4.989  14.194  0.00  0.00    +0.000 OA
ATOM     25  C   UNL     1       6.024   4.776  14.577  0.00  0.00    +0.000 A 
ATOM     26  C   UNL     1       5.194   4.011  13.628  0.00  0.00    +0.000 C 
ATOM     27  C   UNL     1       5.805   5.353  15.811  0.00  0.00    +0.000 A 
ENDBRANCH  20  27
ENDBRANCH  19  20
ENDBRANCH   1  19
TORSDOF 4
ENDMDL
MODEL 5
REMARK VINA RESULT:      -6.9      5.984      9.159
REMARK  Name = 
REMARK  11 active torsions:
REMARK  status: ('A' for Active; 'I' for Inactive)
REMARK    1  A    between atoms: C_1  and  C_2
REMARK    2  A    between atoms: C_5  and  C_6
REMARK    3  A    between atoms: C_7  and  C_8
REMARK    4  A    between atoms: C_8  and  S_9
REMARK    5  A    between atoms: S_9  and  C_10
REMARK    6  A    between atoms: C_12  and  C_13
REMARK    7  A    between atoms: C_13  and  C_14
REMARK    8  A    between atoms: C_13  and  C_15
REMARK    9  A    between atoms: C_13  and  C_16
REMARK   10  A    between atoms: N_22  and  C_23
REMARK   11  A    between atoms: N_26  and  C_27
REMARK                            x       y       z     vdW  Elec       q    Type
REMARK                         _______ _______ _______ _____ _____    ______ ____
ROOT
ATOM      1  C   UNL     1      -2.314  13.215  20.443  0.00  0.00    +0.000 A 
ATOM      2  N   UNL     1      -2.474  13.688  21.708  0.00  0.00    +0.000 NA
ATOM      3  C   UNL     1      -3.626  13.448  22.358  0.00  0.00    +0.000 A 
ATOM      4  N   UNL     1      -4.684  12.874  21.769  0.00  0.00    +0.000 NA
ATOM      5  C   UNL     1      -4.530  12.423  20.507  0.00  0.00    +0.000 A 
ATOM      6  C   UNL     1      -3.337  12.519  19.826  0.00  0.00    +0.000 A 
ATOM      7  C   UNL     1      -3.252  11.781  18.570  0.00  0.00    +0.000 A 
ATOM      8  O   UNL     1      -2.189  11.286  18.213  0.00  0.00    +0.000 OA
ATOM      9  N   UNL     1      -4.439  11.630  17.881  0.00  0.00    +0.000 N 
ATOM     10  C   UNL     1      -4.370  11.154  16.512  0.00  0.00    +0.000 C 
ATOM     11  C   UNL     1      -5.646  11.468  18.546  0.00  0.00    +0.000 A 
ATOM     12  O   UNL     1      -6.637  11.002  17.983  0.00  0.00    +0.000 OA
ATOM     13  N   UNL     1      -5.650  11.822  19.885  0.00  0.00    +0.000 N 
ATOM     14  C   UNL     1      -6.850  11.629  20.683  0.00  0.00    +0.000 C 
ENDROOT
BRANCH   3  15
ATOM     15  C   UNL     1      -3.757  13.867  23.824  0.00  0.00    +0.000 C 
ATOM     16  C   UNL     1      -4.179  12.651  24.663  0.00  0.00    +0.000 C 
ATOM     17  C   UNL     1      -2.413  14.405  24.364  0.00  0.00    +0.000 C 
ATOM     18  C   UNL     1      -4.803  14.987  23.990  0.00  0.00    +0.000 C 
ENDBRANCH   3  15
BRANCH   1  19
ATOM     19  S   UNL     1      -0.670  13.564  19.828  0.00  0.00    +0.000 S 
BRANCH  19  20
ATOM     20  C   UNL     1       0.481  12.714  20.971  0.00  0.00    +0.000 C 
BRANCH  20  27
ATOM     21  C   UNL     1      -0.969  10.668  23.066  0.00  0.00    +0.000 C 
ATOM     22  C   UNL     1      -0.322  10.349  21.771  0.00  0.00    +0.000 A 
ATOM     23  N   UNL     1      -0.308   9.086  21.327  0.00  0.00    +0.000 NA
ATOM     24  O   UNL     1       0.374   9.115  20.130  0.00  0.00    +0.000 OA
ATOM     25  C   UNL     1       0.763  10.388  19.855  0.00  0.00    +0.000 A 
ATOM     26  C   UNL     1       1.517  10.568  18.601  0.00  0.00    +0.000 C 
ATOM     27  C   UNL     1       0.336  11.231  20.861  0.00  0.00    +0.000 A 
ENDBRANCH  20  27
ENDBRANCH  19  20
ENDBRANCH   1  19
TORSDOF 4
ENDMDL
MODEL 6
REMARK VINA RESULT:      -6.9      6.116      9.401
REMARK  Name = 
REMARK  11 active torsions:
REMARK  status: ('A' for Active; 'I' for Inactive)
REMARK    1  A    between atoms: C_1  and  C_2
REMARK    2  A    between atoms: C_5  and  C_6
REMARK    3  A    between atoms: C_7  and  C_8
REMARK    4  A    between atoms: C_8  and  S_9
REMARK    5  A    between atoms: S_9  and  C_10
REMARK    6  A    between atoms: C_12  and  C_13
REMARK    7  A    between atoms: C_13  and  C_14
REMARK    8  A    between atoms: C_13  and  C_15
REMARK    9  A    between atoms: C_13  and  C_16
REMARK   10  A    between atoms: N_22  and  C_23
REMARK   11  A    between atoms: N_26  and  C_27
REMARK                            x       y       z     vdW  Elec       q    Type
REMARK                         _______ _______ _______ _____ _____    ______ ____
ROOT
ATOM      1  C   UNL     1      -2.431  13.292  20.468  0.00  0.00    +0.000 A 
ATOM      2  N   UNL     1      -2.600  13.744  21.739  0.00  0.00    +0.000 NA
ATOM      3  C   UNL     1      -3.742  13.464  22.390  0.00  0.00    +0.000 A 
ATOM      4  N   UNL     1      -4.785  12.865  21.798  0.00  0.00    +0.000 NA
ATOM      5  C   UNL     1      -4.623  12.435  20.530  0.00  0.00    +0.000 A 
ATOM      6  C   UNL     1      -3.436  12.574  19.846  0.00  0.00    +0.000 A 
ATOM      7  C   UNL     1      -3.334  11.854  18.581  0.00  0.00    +0.000 A 
ATOM      8  O   UNL     1      -2.258  11.395  18.214  0.00  0.00    +0.000 OA
ATOM      9  N   UNL     1      -4.518  11.677  17.894  0.00  0.00    +0.000 N 
ATOM     10  C   UNL     1      -4.441  11.221  16.518  0.00  0.00    +0.000 C 
ATOM     11  C   UNL     1      -5.717  11.472  18.561  0.00  0.00    +0.000 A 
ATOM     12  O   UNL     1      -6.697  10.984  17.996  0.00  0.00    +0.000 OA
ATOM     13  N   UNL     1      -5.727  11.809  19.905  0.00  0.00    +0.000 N 
ATOM     14  C   UNL     1      -6.918  11.571  20.704  0.00  0.00    +0.000 C 
ENDROOT
BRANCH   3  15
ATOM     15  C   UNL     1      -3.880  13.861  23.862  0.00  0.00    +0.000 C 
ATOM     16  C   UNL     1      -2.536  14.411  24.366  0.00  0.00    +0.000 C 
ATOM     17  C   UNL     1      -4.964  14.948  24.039  0.00  0.00    +0.000 C 
ATOM     18  C   UNL     1      -4.291  12.653  24.726  0.00  0.00    +0.000 C 
ENDBRANCH   3  15
BRANCH   1  19
ATOM     19  S   UNL     1      -0.800  13.696  19.852  0.00  0.00    +0.000 S 
BRANCH  19  20
ATOM     20  C   UNL     1       0.380  12.881  20.991  0.00  0.00    +0.000 C 
BRANCH  20  27
ATOM     21  C   UNL     1       1.430  10.822  18.681  0.00  0.00    +0.000 C 
ATOM     22  C   UNL     1       0.708  10.502  19.936  0.00  0.00    +0.000 A 
ATOM     23  N   UNL     1       0.435   9.228  20.240  0.00  0.00    +0.000 NA
ATOM     24  O   UNL     1      -0.249   9.264  21.435  0.00  0.00    +0.000 OA
ATOM     25  C   UNL     1      -0.380  10.553  21.848  0.00  0.00    +0.000 A 
ATOM     26  C   UNL     1      -1.106  10.745  23.118  0.00  0.00    +0.000 C 
ATOM     27  C   UNL     1       0.224  11.396  20.939  0.00  0.00    +0.000 A 
ENDBRANCH  20  27
ENDBRANCH  19  20
ENDBRANCH   1  19
TORSDOF 4
ENDMDL
MODEL 7
REMARK VINA RESULT:      -6.4      5.912      9.103
REMARK  Name = 
REMARK  11 active torsions:
REMARK  status: ('A' for Active; 'I' for Inactive)
REMARK    1  A    between atoms: C_1  and  C_2
REMARK    2  A    between atoms: C_5  and  C_6
REMARK    3  A    between atoms: C_7  and  C_8
REMARK    4  A    between atoms: C_8  and  S_9
REMARK    5  A    between atoms: S_9  and  C_10
REMARK    6  A    between atoms: C_12  and  C_13
REMARK    7  A    between atoms: C_13  and  C_14
REMARK    8  A    between atoms: C_13  and  C_15
REMARK    9  A    between atoms: C_13  and  C_16
REMARK   10  A    between atoms: N_22  and  C_23
REMARK   11  A    between atoms: N_26  and  C_27
REMARK                            x       y       z     vdW  Elec       q    Type
REMARK                         _______ _______ _______ _____ _____    ______ ____
ROOT
ATOM      1  C   UNL     1      -2.468  13.283  20.534  0.00  0.00    +0.000 A 
ATOM      2  N   UNL     1      -2.653  13.737  21.803  0.00  0.00    +0.000 NA
ATOM      3  C   UNL     1      -3.806  13.463  22.437  0.00  0.00    +0.000 A 
ATOM      4  N   UNL     1      -4.843  12.869  21.832  0.00  0.00    +0.000 NA
ATOM      5  C   UNL     1      -4.665  12.437  20.567  0.00  0.00    +0.000 A 
ATOM      6  C   UNL     1      -3.467  12.569  19.899  0.00  0.00    +0.000 A 
ATOM      7  C   UNL     1      -3.352  11.847  18.637  0.00  0.00    +0.000 A 
ATOM      8  O   UNL     1      -2.273  11.382  18.286  0.00  0.00    +0.000 OA
ATOM      9  N   UNL     1      -4.527  11.675  17.933  0.00  0.00    +0.000 N 
ATOM     10  C   UNL     1      -4.432  11.216  16.559  0.00  0.00    +0.000 C 
ATOM     11  C   UNL     1      -5.736  11.477  18.583  0.00  0.00    +0.000 A 
ATOM     12  O   UNL     1      -6.710  10.993  18.005  0.00  0.00    +0.000 OA
ATOM     13  N   UNL     1      -5.763  11.815  19.926  0.00  0.00    +0.000 N 
ATOM     14  C   UNL     1      -6.966  11.585  20.709  0.00  0.00    +0.000 C 
ENDROOT
BRANCH   3  15
ATOM     15  C   UNL     1      -3.962  13.863  23.906  0.00  0.00    +0.000 C 
ATOM     16  C   UNL     1      -5.096  14.892  24.034  0.00  0.00    +0.000 C 
ATOM     17  C   UNL     1      -4.302  12.633  24.777  0.00  0.00    +0.000 C 
ATOM     18  C   UNL     1      -2.658  14.472  24.457  0.00  0.00    +0.000 C 
ENDBRANCH   3  15
BRANCH   1  19
ATOM     19  S   UNL     1      -0.827  13.678  19.941  0.00  0.00    +0.000 S 
BRANCH  19  20
ATOM     20  C   UNL     1       0.311  12.555  20.834  0.00  0.00    +0.000 C 
BRANCH  20  27
ATOM     21  C   UNL     1       2.193  12.772  18.172  0.00  0.00    +0.000 C 
ATOM     22  C   UNL     1       1.617  11.554  18.792  0.00  0.00    +0.000 A 
ATOM     23  N   UNL     1       1.875  10.352  18.263  0.00  0.00    +0.000 NA
ATOM     24  O   UNL     1       1.191   9.444  19.040  0.00  0.00    +0.000 OA
ATOM     25  C   UNL     1       0.532  10.097  20.034  0.00  0.00    +0.000 A 
ATOM     26  C   UNL     1      -0.257   9.245  20.944  0.00  0.00    +0.000 C 
ATOM     27  C   UNL     1       0.774  11.451  19.940  0.00  0.00    +0.000 A 
ENDBRANCH  20  27
ENDBRANCH  19  20
ENDBRANCH   1  19
TORSDOF 4
ENDMDL
MODEL 8
REMARK VINA RESULT:      -6.2      6.930     10.448
REMARK  Name = 
REMARK  11 active torsions:
REMARK  status: ('A' for Active; 'I' for Inactive)
REMARK    1  A    between atoms: C_1  and  C_2
REMARK    2  A    between atoms: C_5  and  C_6
REMARK    3  A    between atoms: C_7  and  C_8
REMARK    4  A    between atoms: C_8  and  S_9
REMARK    5  A    between atoms: S_9  and  C_10
REMARK    6  A    between atoms: C_12  and  C_13
REMARK    7  A    between atoms: C_13  and  C_14
REMARK    8  A    between atoms: C_13  and  C_15
REMARK    9  A    between atoms: C_13  and  C_16
REMARK   10  A    between atoms: N_22  and  C_23
REMARK   11  A    between atoms: N_26  and  C_27
REMARK                            x       y       z     vdW  Elec       q    Type
REMARK                         _______ _______ _______ _____ _____    ______ ____
ROOT
ATOM      1  C   UNL     1      -1.133  14.212  20.028  0.00  0.00    +0.000 A 
ATOM      2  N   UNL     1      -1.117  12.878  19.760  0.00  0.00    +0.000 NA
ATOM      3  C   UNL     1      -0.014  12.331  19.219  0.00  0.00    +0.000 A 
ATOM      4  N   UNL     1       1.031  13.062  18.808  0.00  0.00    +0.000 NA
ATOM      5  C   UNL     1       1.004  14.387  19.057  0.00  0.00    +0.000 A 
ATOM      6  C   UNL     1      -0.037  14.997  19.723  0.00  0.00    +0.000 A 
ATOM      7  C   UNL     1       0.181  16.381  20.127  0.00  0.00    +0.000 A 
ATOM      8  O   UNL     1      -0.312  16.808  21.165  0.00  0.00    +0.000 OA
ATOM      9  N   UNL     1       1.015  17.120  19.313  0.00  0.00    +0.000 N 
ATOM     10  C   UNL     1       1.048  18.559  19.505  0.00  0.00    +0.000 C 
ATOM     11  C   UNL     1       2.108  16.542  18.682  0.00  0.00    +0.000 A 
ATOM     12  O   UNL     1       3.036  17.223  18.244  0.00  0.00    +0.000 OA
ATOM     13  N   UNL     1       2.105  15.159  18.617  0.00  0.00    +0.000 N 
ATOM     14  C   UNL     1       3.237  14.458  18.031  0.00  0.00    +0.000 C 
ENDROOT
BRANCH   3  15
ATOM     15  C   UNL     1       0.053  10.813  19.038  0.00  0.00    +0.000 C 
ATOM     16  C   UNL     1       1.407  10.436  18.416  0.00  0.00    +0.000 C 
ATOM     17  C   UNL     1      -0.093  10.090  20.396  0.00  0.00    +0.000 C 
ATOM     18  C   UNL     1      -1.083  10.313  18.124  0.00  0.00    +0.000 C 
ENDBRANCH   3  15
BRANCH   1  19
ATOM     19  S   UNL     1      -2.657  14.686  20.838  0.00  0.00    +0.000 S 
BRANCH  19  20
ATOM     20  C   UNL     1      -3.741  13.212  20.767  0.00  0.00    +0.000 C 
BRANCH  20  27
ATOM     21  C   UNL     1      -1.904  11.921  23.141  0.00  0.00    +0.000 C 
ATOM     22  C   UNL     1      -3.347  12.260  23.179  0.00  0.00    +0.000 A 
ATOM     23  N   UNL     1      -4.050  12.058  24.300  0.00  0.00    +0.000 NA
ATOM     24  O   UNL     1      -5.340  12.444  24.011  0.00  0.00    +0.000 OA
ATOM     25  C   UNL     1      -5.410  12.880  22.725  0.00  0.00    +0.000 A 
ATOM     26  C   UNL     1      -6.743  13.318  22.272  0.00  0.00    +0.000 C 
ATOM     27  C   UNL     1      -4.164  12.801  22.139  0.00  0.00    +0.000 A 
ENDBRANCH  20  27
ENDBRANCH  19  20
ENDBRANCH   1  19
TORSDOF 4
ENDMDL
MODEL 9
REMARK VINA RESULT:      -6.2      6.856      9.188
REMARK  Name = 
REMARK  11 active torsions:
REMARK  status: ('A' for Active; 'I' for Inactive)
REMARK    1  A    between atoms: C_1  and  C_2
REMARK    2  A    between atoms: C_5  and  C_6
REMARK    3  A    between atoms: C_7  and  C_8
REMARK    4  A    between atoms: C_8  and  S_9
REMARK    5  A    between atoms: S_9  and  C_10
REMARK    6  A    between atoms: C_12  and  C_13
REMARK    7  A    between atoms: C_13  and  C_14
REMARK    8  A    between atoms: C_13  and  C_15
REMARK    9  A    between atoms: C_13  and  C_16
REMARK   10  A    between atoms: N_22  and  C_23
REMARK   11  A    between atoms: N_26  and  C_27
REMARK                            x       y       z     vdW  Elec       q    Type
REMARK                         _______ _______ _______ _____ _____    ______ ____
ROOT
ATOM      1  C   UNL     1      -3.255  12.300  19.561  0.00  0.00    +0.000 A 
ATOM      2  N   UNL     1      -4.451  11.739  19.238  0.00  0.00    +0.000 NA
ATOM      3  C   UNL     1      -5.488  11.874  20.082  0.00  0.00    +0.000 A 
ATOM      4  N   UNL     1      -5.368  12.428  21.296  0.00  0.00    +0.000 NA
ATOM      5  C   UNL     1      -4.175  12.967  21.622  0.00  0.00    +0.000 A 
ATOM      6  C   UNL     1      -3.105  12.979  20.756  0.00  0.00    +0.000 A 
ATOM      7  C   UNL     1      -1.966  13.800  21.152  0.00  0.00    +0.000 A 
ATOM      8  O   UNL     1      -1.291  14.373  20.304  0.00  0.00    +0.000 OA
ATOM      9  N   UNL     1      -1.764  13.931  22.511  0.00  0.00    +0.000 N 
ATOM     10  C   UNL     1      -0.504  14.498  22.957  0.00  0.00    +0.000 C 
ATOM     11  C   UNL     1      -2.829  13.986  23.398  0.00  0.00    +0.000 A 
ATOM     12  O   UNL     1      -2.700  14.433  24.539  0.00  0.00    +0.000 OA
ATOM     13  N   UNL     1      -4.048  13.546  22.907  0.00  0.00    +0.000 N 
ATOM     14  C   UNL     1      -5.237  13.623  23.740  0.00  0.00    +0.000 C 
ENDROOT
BRANCH   3  15
ATOM     15  C   UNL     1      -6.865  11.355  19.661  0.00  0.00    +0.000 C 
ATOM     16  C   UNL     1      -7.747  11.187  20.908  0.00  0.00    +0.000 C 
ATOM     17  C   UNL     1      -7.552  12.343  18.692  0.00  0.00    +0.000 C 
ATOM     18  C   UNL     1      -6.749  10.000  18.935  0.00  0.00    +0.000 C 
ENDBRANCH   3  15
BRANCH   1  19
ATOM     19  S   UNL     1      -2.064  12.080  18.243  0.00  0.00    +0.000 S 
BRANCH  19  20
ATOM     20  C   UNL     1      -0.990  10.693  18.767  0.00  0.00    +0.000 C 
BRANCH  20  27
ATOM     21  C   UNL     1       1.493  12.788  18.418  0.00  0.00    +0.000 C 
ATOM     22  C   UNL     1       1.056  12.079  19.645  0.00  0.00    +0.000 A 
ATOM     23  N   UNL     1       1.698  12.289  20.800  0.00  0.00    +0.000 NA
ATOM     24  O   UNL     1       1.078  11.483  21.729  0.00  0.00    +0.000 OA
ATOM     25  C   UNL     1       0.065  10.797  21.135  0.00  0.00    +0.000 A 
ATOM     26  C   UNL     1      -0.685   9.881  22.014  0.00  0.00    +0.000 C 
ATOM     27  C   UNL     1      -0.012  11.143  19.802  0.00  0.00    +0.000 A 
ENDBRANCH  20  27
ENDBRANCH  19  20
ENDBRANCH   1  19
TORSDOF 4
ENDMDL
