MODEL 1
REMARK VINA RESULT:      -8.5      0.000      0.000
REMARK  Name = 
REMARK  6 active torsions:
REMARK  status: ('A' for Active; 'I' for Inactive)
REMARK    1  A    between atoms: C_2  and  O_3
REMARK    2  A    between atoms: C_2  and  C_4
REMARK    3  A    between atoms: C_9  and  C_10
REMARK    4  A    between atoms: C_13  and  C_14
REMARK    5  A    between atoms: N_18  and  C_19
REMARK    6  A    between atoms: N_27  and  C_28
REMARK                            x       y       z     vdW  Elec       q    Type
REMARK                         _______ _______ _______ _____ _____    ______ ____
ROOT
ATOM      1  C   UNL     1       1.338   8.961  20.541  0.00  0.00    +0.000 C 
ATOM      2  C   UNL     1       0.315   9.809  20.278  0.00  0.00    +0.000 C 
ATOM      3  C   UNL     1      -0.372   9.874  18.973  0.00  0.00    +0.000 C 
ATOM      4  O   UNL     1       0.099   9.313  17.983  0.00  0.00    +0.000 OA
ATOM      5  N   UNL     1      -1.537  10.652  18.940  0.00  0.00    +0.000 N 
ATOM      6  C   UNL     1      -1.995  11.518  19.976  0.00  0.00    +0.000 C 
ATOM      7  S   UNL     1      -3.522  12.294  19.929  0.00  0.00    +0.000 S 
ATOM      8  N   UNL     1      -1.134  11.600  21.111  0.00  0.00    +0.000 N 
ATOM      9  C   UNL     1      -0.041  10.758  21.358  0.00  0.00    +0.000 C 
ATOM     10  O   UNL     1       0.654  10.808  22.376  0.00  0.00    +0.000 OA
ENDROOT
BRANCH   5  11
ATOM     11  C   UNL     1      -2.252  10.572  17.689  0.00  0.00    +0.000 A 
ATOM     12  C   UNL     1      -2.104  11.585  16.728  0.00  0.00    +0.000 A 
ATOM     13  C   UNL     1      -2.814  11.530  15.529  0.00  0.00    +0.000 A 
ATOM     14  C   UNL     1      -3.681  10.466  15.281  0.00  0.00    +0.000 A 
ATOM     15  C   UNL     1      -3.849   9.465  16.235  0.00  0.00    +0.000 A 
ATOM     16  C   UNL     1      -3.149   9.521  17.439  0.00  0.00    +0.000 A 
ENDBRANCH   5  11
BRANCH   8  17
ATOM     17  C   UNL     1      -1.418  12.562  22.156  0.00  0.00    +0.000 A 
ATOM     18  C   UNL     1      -0.711  13.773  22.231  0.00  0.00    +0.000 A 
ATOM     19  C   UNL     1      -1.019  14.715  23.217  0.00  0.00    +0.000 A 
ATOM     20  C   UNL     1      -2.039  14.461  24.131  0.00  0.00    +0.000 A 
ATOM     21  C   UNL     1      -2.737  13.257  24.074  0.00  0.00    +0.000 A 
ATOM     22  C   UNL     1      -2.420  12.305  23.102  0.00  0.00    +0.000 A 
ENDBRANCH   8  17
BRANCH   1  26
ATOM     23  C   UNL     1       2.541   6.208  18.570  0.00  0.00    +0.000 A 
ATOM     24  C   UNL     1       2.913   7.233  17.731  0.00  0.00    +0.000 A 
ATOM     25  C   UNL     1       2.569   8.432  18.394  0.00  0.00    +0.000 A 
ATOM     26  C   UNL     1       1.931   8.096  19.582  0.00  0.00    +0.000 A 
ATOM     27  O   UNL     1       1.969   6.727  19.694  0.00  0.00    +0.000 OA
BRANCH  23  33
ATOM     28  C   UNL     1       3.831   4.047  18.299  0.00  0.00    +0.000 A 
ATOM     29  C   UNL     1       3.795   2.648  18.125  0.00  0.00    +0.000 A 
ATOM     30  C   UNL     1       2.591   1.944  18.174  0.00  0.00    +0.000 A 
ATOM     31  C   UNL     1       1.408   2.628  18.416  0.00  0.00    +0.000 A 
ATOM     32  C   UNL     1       1.428   4.015  18.578  0.00  0.00    +0.000 A 
ATOM     33  C   UNL     1       2.629   4.755  18.490  0.00  0.00    +0.000 A 
BRANCH  28  35
ATOM     34  O   UNL     1       5.658   5.101  17.221  0.00  0.00    +0.000 OA
ATOM     35  C   UNL     1       5.190   4.659  18.255  0.00  0.00    +0.000 C 
BRANCH  35  36
ATOM     36  O   UNL     1       5.934   4.541  19.377  0.00  0.00    +0.000 OA
ATOM     37  H   UNL     1       6.214   3.634  19.619  0.00  0.00    +0.000 HD
ENDBRANCH  35  36
ENDBRANCH  28  35
ENDBRANCH  23  33
ENDBRANCH   1  26
TORSDOF 6
ENDMDL
MODEL 2
REMARK VINA RESULT:      -8.4      0.407      1.204
REMARK  Name = 
REMARK  6 active torsions:
REMARK  status: ('A' for Active; 'I' for Inactive)
REMARK    1  A    between atoms: C_2  and  O_3
REMARK    2  A    between atoms: C_2  and  C_4
REMARK    3  A    between atoms: C_9  and  C_10
REMARK    4  A    between atoms: C_13  and  C_14
REMARK    5  A    between atoms: N_18  and  C_19
REMARK    6  A    between atoms: N_27  and  C_28
REMARK                            x       y       z     vdW  Elec       q    Type
REMARK                         _______ _______ _______ _____ _____    ______ ____
ROOT
ATOM      1  C   UNL     1       1.235   9.320  20.451  0.00  0.00    +0.000 C 
ATOM      2  C   UNL     1       0.160  10.097  20.182  0.00  0.00    +0.000 C 
ATOM      3  C   UNL     1      -0.533  10.105  18.878  0.00  0.00    +0.000 C 
ATOM      4  O   UNL     1      -0.029   9.564  17.893  0.00  0.00    +0.000 OA
ATOM      5  N   UNL     1      -1.744  10.808  18.840  0.00  0.00    +0.000 N 
ATOM      6  C   UNL     1      -2.254  11.653  19.869  0.00  0.00    +0.000 C 
ATOM      7  S   UNL     1      -3.827  12.331  19.818  0.00  0.00    +0.000 S 
ATOM      8  N   UNL     1      -1.397  11.802  21.001  0.00  0.00    +0.000 N 
ATOM      9  C   UNL     1      -0.253  11.034  21.253  0.00  0.00    +0.000 C 
ATOM     10  O   UNL     1       0.440  11.138  22.268  0.00  0.00    +0.000 OA
ENDROOT
BRANCH   5  11
ATOM     11  C   UNL     1      -2.456  10.669  17.592  0.00  0.00    +0.000 A 
ATOM     12  C   UNL     1      -3.297   9.565  17.382  0.00  0.00    +0.000 A 
ATOM     13  C   UNL     1      -3.965   9.408  16.167  0.00  0.00    +0.000 A 
ATOM     14  C   UNL     1      -3.795  10.349  15.152  0.00  0.00    +0.000 A 
ATOM     15  C   UNL     1      -2.948  11.438  15.344  0.00  0.00    +0.000 A 
ATOM     16  C   UNL     1      -2.271  11.594  16.553  0.00  0.00    +0.000 A 
ENDBRANCH   5  11
BRANCH   8  17
ATOM     17  C   UNL     1      -1.739  12.755  22.036  0.00  0.00    +0.000 A 
ATOM     18  C   UNL     1      -2.589  12.396  23.094  0.00  0.00    +0.000 A 
ATOM     19  C   UNL     1      -2.882  13.308  24.112  0.00  0.00    +0.000 A 
ATOM     20  C   UNL     1      -2.324  14.585  24.086  0.00  0.00    +0.000 A 
ATOM     21  C   UNL     1      -1.491  14.957  23.033  0.00  0.00    +0.000 A 
ATOM     22  C   UNL     1      -1.211  14.054  22.005  0.00  0.00    +0.000 A 
ENDBRANCH   8  17
BRANCH   1  26
ATOM     23  C   UNL     1       2.587   6.626  18.493  0.00  0.00    +0.000 A 
ATOM     24  C   UNL     1       2.927   7.669  17.661  0.00  0.00    +0.000 A 
ATOM     25  C   UNL     1       2.521   8.850  18.323  0.00  0.00    +0.000 A 
ATOM     26  C   UNL     1       1.880   8.483  19.499  0.00  0.00    +0.000 A 
ATOM     27  O   UNL     1       1.976   7.117  19.609  0.00  0.00    +0.000 OA
BRANCH  23  33
ATOM     28  C   UNL     1       3.980   4.519  18.335  0.00  0.00    +0.000 A 
ATOM     29  C   UNL     1       4.017   3.122  18.147  0.00  0.00    +0.000 A 
ATOM     30  C   UNL     1       2.843   2.372  18.071  0.00  0.00    +0.000 A 
ATOM     31  C   UNL     1       1.615   3.008  18.200  0.00  0.00    +0.000 A 
ATOM     32  C   UNL     1       1.565   4.393  18.374  0.00  0.00    +0.000 A 
ATOM     33  C   UNL     1       2.739   5.178  18.411  0.00  0.00    +0.000 A 
BRANCH  28  35
ATOM     34  O   UNL     1       5.952   5.476  17.435  0.00  0.00    +0.000 OA
ATOM     35  C   UNL     1       5.312   5.183  18.429  0.00  0.00    +0.000 C 
BRANCH  35  36
ATOM     36  O   UNL     1       5.842   5.284  19.669  0.00  0.00    +0.000 OA
ATOM     37  H   UNL     1       5.315   4.898  20.399  0.00  0.00    +0.000 HD
ENDBRANCH  35  36
ENDBRANCH  28  35
ENDBRANCH  23  33
ENDBRANCH   1  26
TORSDOF 6
ENDMDL
MODEL 3
REMARK VINA RESULT:      -8.3      1.017      1.415
REMARK  Name = 
REMARK  6 active torsions:
REMARK  status: ('A' for Active; 'I' for Inactive)
REMARK    1  A    between atoms: C_2  and  O_3
REMARK    2  A    between atoms: C_2  and  C_4
REMARK    3  A    between atoms: C_9  and  C_10
REMARK    4  A    between atoms: C_13  and  C_14
REMARK    5  A    between atoms: N_18  and  C_19
REMARK    6  A    between atoms: N_27  and  C_28
REMARK                            x       y       z     vdW  Elec       q    Type
REMARK                         _______ _______ _______ _____ _____    ______ ____
ROOT
ATOM      1  C   UNL     1       0.719   9.319  21.385  0.00  0.00    +0.000 C 
ATOM      2  C   UNL     1      -0.249  10.163  20.956  0.00  0.00    +0.000 C 
ATOM      3  C   UNL     1      -0.783  10.155  19.580  0.00  0.00    +0.000 C 
ATOM      4  O   UNL     1      -0.215   9.526  18.686  0.00  0.00    +0.000 OA
ATOM      5  N   UNL     1      -1.919  10.947  19.366  0.00  0.00    +0.000 N 
ATOM      6  C   UNL     1      -2.472  11.883  20.289  0.00  0.00    +0.000 C 
ATOM      7  S   UNL     1      -3.967  12.676  20.020  0.00  0.00    +0.000 S 
ATOM      8  N   UNL     1      -1.743  12.024  21.508  0.00  0.00    +0.000 N 
ATOM      9  C   UNL     1      -0.704  11.184  21.929  0.00  0.00    +0.000 C 
ATOM     10  O   UNL     1      -0.128  11.287  23.014  0.00  0.00    +0.000 OA
ENDROOT
BRANCH   5  11
ATOM     11  C   UNL     1      -2.490  10.798  18.049  0.00  0.00    +0.000 A 
ATOM     12  C   UNL     1      -3.347   9.721  17.773  0.00  0.00    +0.000 A 
ATOM     13  C   UNL     1      -3.879   9.553  16.494  0.00  0.00    +0.000 A 
ATOM     14  C   UNL     1      -3.557  10.456  15.481  0.00  0.00    +0.000 A 
ATOM     15  C   UNL     1      -2.693  11.518  15.741  0.00  0.00    +0.000 A 
ATOM     16  C   UNL     1      -2.151  11.683  17.014  0.00  0.00    +0.000 A 
ENDBRANCH   5  11
BRANCH   8  17
ATOM     17  C   UNL     1      -2.123  13.054  22.452  0.00  0.00    +0.000 A 
ATOM     18  C   UNL     1      -1.571  14.343  22.372  0.00  0.00    +0.000 A 
ATOM     19  C   UNL     1      -1.972  15.344  23.261  0.00  0.00    +0.000 A 
ATOM     20  C   UNL     1      -2.933  15.070  24.233  0.00  0.00    +0.000 A 
ATOM     21  C   UNL     1      -3.477  13.792  24.329  0.00  0.00    +0.000 A 
ATOM     22  C   UNL     1      -3.065  12.783  23.455  0.00  0.00    +0.000 A 
ENDBRANCH   8  17
BRANCH   1  26
ATOM     23  C   UNL     1       2.122   6.431  19.771  0.00  0.00    +0.000 A 
ATOM     24  C   UNL     1       2.526   7.385  18.864  0.00  0.00    +0.000 A 
ATOM     25  C   UNL     1       2.108   8.630  19.386  0.00  0.00    +0.000 A 
ATOM     26  C   UNL     1       1.398   8.386  20.555  0.00  0.00    +0.000 A 
ATOM     27  O   UNL     1       1.461   7.036  20.800  0.00  0.00    +0.000 OA
BRANCH  23  33
ATOM     28  C   UNL     1       3.384   4.269  19.402  0.00  0.00    +0.000 A 
ATOM     29  C   UNL     1       3.366   2.859  19.405  0.00  0.00    +0.000 A 
ATOM     30  C   UNL     1       2.254   2.152  19.864  0.00  0.00    +0.000 A 
ATOM     31  C   UNL     1       1.152   2.846  20.345  0.00  0.00    +0.000 A 
ATOM     32  C   UNL     1       1.153   4.243  20.335  0.00  0.00    +0.000 A 
ATOM     33  C   UNL     1       2.250   4.980  19.836  0.00  0.00    +0.000 A 
BRANCH  28  35
ATOM     34  O   UNL     1       5.474   5.348  19.685  0.00  0.00    +0.000 OA
ATOM     35  C   UNL     1       4.651   4.887  18.915  0.00  0.00    +0.000 C 
BRANCH  35  36
ATOM     36  O   UNL     1       4.755   5.060  17.578  0.00  0.00    +0.000 OA
ATOM     37  H   UNL     1       5.016   5.955  17.276  0.00  0.00    +0.000 HD
ENDBRANCH  35  36
ENDBRANCH  28  35
ENDBRANCH  23  33
ENDBRANCH   1  26
TORSDOF 6
ENDMDL
MODEL 4
REMARK VINA RESULT:      -8.1      1.408      1.738
REMARK  Name = 
REMARK  6 active torsions:
REMARK  status: ('A' for Active; 'I' for Inactive)
REMARK    1  A    between atoms: C_2  and  O_3
REMARK    2  A    between atoms: C_2  and  C_4
REMARK    3  A    between atoms: C_9  and  C_10
REMARK    4  A    between atoms: C_13  and  C_14
REMARK    5  A    between atoms: N_18  and  C_19
REMARK    6  A    between atoms: N_27  and  C_28
REMARK                            x       y       z     vdW  Elec       q    Type
REMARK                         _______ _______ _______ _____ _____    ______ ____
ROOT
ATOM      1  C   UNL     1       0.713   9.198  21.537  0.00  0.00    +0.000 C 
ATOM      2  C   UNL     1      -0.207  10.067  21.055  0.00  0.00    +0.000 C 
ATOM      3  C   UNL     1      -0.712  10.032  19.668  0.00  0.00    +0.000 C 
ATOM      4  O   UNL     1      -0.155   9.343  18.811  0.00  0.00    +0.000 OA
ATOM      5  N   UNL     1      -1.807  10.864  19.400  0.00  0.00    +0.000 N 
ATOM      6  C   UNL     1      -2.335  11.859  20.275  0.00  0.00    +0.000 C 
ATOM      7  S   UNL     1      -3.787  12.708  19.943  0.00  0.00    +0.000 S 
ATOM      8  N   UNL     1      -1.626  12.013  21.503  0.00  0.00    +0.000 N 
ATOM      9  C   UNL     1      -0.635  11.144  21.978  0.00  0.00    +0.000 C 
ATOM     10  O   UNL     1      -0.077  11.263  23.071  0.00  0.00    +0.000 OA
ENDROOT
BRANCH   5  11
ATOM     11  C   UNL     1      -2.356  10.691  18.077  0.00  0.00    +0.000 A 
ATOM     12  C   UNL     1      -2.056  11.616  17.065  0.00  0.00    +0.000 A 
ATOM     13  C   UNL     1      -2.608  11.472  15.791  0.00  0.00    +0.000 A 
ATOM     14  C   UNL     1      -3.465  10.407  15.519  0.00  0.00    +0.000 A 
ATOM     15  C   UNL     1      -3.783   9.493  16.522  0.00  0.00    +0.000 A 
ATOM     16  C   UNL     1      -3.243   9.639  17.799  0.00  0.00    +0.000 A 
ENDBRANCH   5  11
BRANCH   8  17
ATOM     17  C   UNL     1      -1.977  13.095  22.400  0.00  0.00    +0.000 A 
ATOM     18  C   UNL     1      -1.376  14.358  22.275  0.00  0.00    +0.000 A 
ATOM     19  C   UNL     1      -1.750  15.409  23.118  0.00  0.00    +0.000 A 
ATOM     20  C   UNL     1      -2.732  15.211  24.086  0.00  0.00    +0.000 A 
ATOM     21  C   UNL     1      -3.325  13.959  24.227  0.00  0.00    +0.000 A 
ATOM     22  C   UNL     1      -2.941  12.901  23.400  0.00  0.00    +0.000 A 
ENDBRANCH   8  17
BRANCH   1  26
ATOM     23  C   UNL     1       2.008   6.190  20.056  0.00  0.00    +0.000 A 
ATOM     24  C   UNL     1       2.488   7.092  19.133  0.00  0.00    +0.000 A 
ATOM     25  C   UNL     1       2.121   8.373  19.603  0.00  0.00    +0.000 A 
ATOM     26  C   UNL     1       1.365   8.205  20.757  0.00  0.00    +0.000 A 
ATOM     27  O   UNL     1       1.351   6.862  21.045  0.00  0.00    +0.000 OA
BRANCH  23  33
ATOM     28  C   UNL     1       1.993   3.858  19.074  0.00  0.00    +0.000 A 
ATOM     29  C   UNL     1       1.937   2.467  19.300  0.00  0.00    +0.000 A 
ATOM     30  C   UNL     1       1.980   1.942  20.591  0.00  0.00    +0.000 A 
ATOM     31  C   UNL     1       2.099   2.800  21.676  0.00  0.00    +0.000 A 
ATOM     32  C   UNL     1       2.143   4.181  21.467  0.00  0.00    +0.000 A 
ATOM     33  C   UNL     1       2.058   4.738  20.171  0.00  0.00    +0.000 A 
BRANCH  28  35
ATOM     34  O   UNL     1       0.925   4.387  17.027  0.00  0.00    +0.000 OA
ATOM     35  C   UNL     1       1.970   4.271  17.642  0.00  0.00    +0.000 C 
BRANCH  35  36
ATOM     36  O   UNL     1       3.168   4.343  17.022  0.00  0.00    +0.000 OA
ATOM     37  H   UNL     1       3.682   5.165  17.163  0.00  0.00    +0.000 HD
ENDBRANCH  35  36
ENDBRANCH  28  35
ENDBRANCH  23  33
ENDBRANCH   1  26
TORSDOF 6
ENDMDL
MODEL 5
REMARK VINA RESULT:      -8.0      3.654      5.854
REMARK  Name = 
REMARK  6 active torsions:
REMARK  status: ('A' for Active; 'I' for Inactive)
REMARK    1  A    between atoms: C_2  and  O_3
REMARK    2  A    between atoms: C_2  and  C_4
REMARK    3  A    between atoms: C_9  and  C_10
REMARK    4  A    between atoms: C_13  and  C_14
REMARK    5  A    between atoms: N_18  and  C_19
REMARK    6  A    between atoms: N_27  and  C_28
REMARK                            x       y       z     vdW  Elec       q    Type
REMARK                         _______ _______ _______ _____ _____    ______ ____
ROOT
ATOM      1  C   UNL     1      -1.712  11.382  22.863  0.00  0.00    +0.000 C 
ATOM      2  C   UNL     1      -1.602  12.713  22.642  0.00  0.00    +0.000 C 
ATOM      3  C   UNL     1      -0.430  13.337  21.996  0.00  0.00    +0.000 C 
ATOM      4  O   UNL     1       0.609  12.699  21.824  0.00  0.00    +0.000 OA
ATOM      5  N   UNL     1      -0.573  14.690  21.659  0.00  0.00    +0.000 N 
ATOM      6  C   UNL     1      -1.648  15.541  22.051  0.00  0.00    +0.000 C 
ATOM      7  S   UNL     1      -1.837  17.133  21.445  0.00  0.00    +0.000 S 
ATOM      8  N   UNL     1      -2.619  14.928  22.898  0.00  0.00    +0.000 N 
ATOM      9  C   UNL     1      -2.701  13.556  23.171  0.00  0.00    +0.000 C 
ATOM     10  O   UNL     1      -3.584  13.039  23.858  0.00  0.00    +0.000 OA
ENDROOT
BRANCH   5  11
ATOM     11  C   UNL     1       0.537  15.218  20.903  0.00  0.00    +0.000 A 
ATOM     12  C   UNL     1       0.531  15.144  19.501  0.00  0.00    +0.000 A 
ATOM     13  C   UNL     1       1.613  15.626  18.764  0.00  0.00    +0.000 A 
ATOM     14  C   UNL     1       2.711  16.182  19.421  0.00  0.00    +0.000 A 
ATOM     15  C   UNL     1       2.734  16.244  20.812  0.00  0.00    +0.000 A 
ATOM     16  C   UNL     1       1.660  15.754  21.553  0.00  0.00    +0.000 A 
ENDBRANCH   5  11
BRANCH   8  17
ATOM     17  C   UNL     1      -3.669  15.735  23.483  0.00  0.00    +0.000 A 
ATOM     18  C   UNL     1      -3.459  16.431  24.684  0.00  0.00    +0.000 A 
ATOM     19  C   UNL     1      -4.463  17.242  25.220  0.00  0.00    +0.000 A 
ATOM     20  C   UNL     1      -5.684  17.370  24.560  0.00  0.00    +0.000 A 
ATOM     21  C   UNL     1      -5.907  16.673  23.375  0.00  0.00    +0.000 A 
ATOM     22  C   UNL     1      -4.913  15.847  22.845  0.00  0.00    +0.000 A 
ENDBRANCH   8  17
BRANCH   1  26
ATOM     23  C   UNL     1       0.753   9.207  21.409  0.00  0.00    +0.000 A 
ATOM     24  C   UNL     1       1.025   8.961  22.736  0.00  0.00    +0.000 A 
ATOM     25  C   UNL     1       0.078   9.703  23.478  0.00  0.00    +0.000 A 
ATOM     26  C   UNL     1      -0.690  10.434  22.581  0.00  0.00    +0.000 A 
ATOM     27  O   UNL     1      -0.294  10.077  21.315  0.00  0.00    +0.000 OA
BRANCH  23  33
ATOM     28  C   UNL     1       1.253   9.454  18.941  0.00  0.00    +0.000 A 
ATOM     29  C   UNL     1       1.757   8.872  17.760  0.00  0.00    +0.000 A 
ATOM     30  C   UNL     1       2.373   7.620  17.777  0.00  0.00    +0.000 A 
ATOM     31  C   UNL     1       2.510   6.942  18.980  0.00  0.00    +0.000 A 
ATOM     32  C   UNL     1       2.004   7.502  20.155  0.00  0.00    +0.000 A 
ATOM     33  C   UNL     1       1.338   8.748  20.155  0.00  0.00    +0.000 A 
BRANCH  28  35
ATOM     34  O   UNL     1      -0.389  10.974  18.162  0.00  0.00    +0.000 OA
ATOM     35  C   UNL     1       0.651  10.808  18.775  0.00  0.00    +0.000 C 
BRANCH  35  36
ATOM     36  O   UNL     1       1.403  11.851  19.191  0.00  0.00    +0.000 OA
ATOM     37  H   UNL     1       1.103  12.305  20.006  0.00  0.00    +0.000 HD
ENDBRANCH  35  36
ENDBRANCH  28  35
ENDBRANCH  23  33
ENDBRANCH   1  26
TORSDOF 6
ENDMDL
MODEL 6
REMARK VINA RESULT:      -8.0      3.740      6.534
REMARK  Name = 
REMARK  6 active torsions:
REMARK  status: ('A' for Active; 'I' for Inactive)
REMARK    1  A    between atoms: C_2  and  O_3
REMARK    2  A    between atoms: C_2  and  C_4
REMARK    3  A    between atoms: C_9  and  C_10
REMARK    4  A    between atoms: C_13  and  C_14
REMARK    5  A    between atoms: N_18  and  C_19
REMARK    6  A    between atoms: N_27  and  C_28
REMARK                            x       y       z     vdW  Elec       q    Type
REMARK                         _______ _______ _______ _____ _____    ______ ____
ROOT
ATOM      1  C   UNL     1       4.623   7.711  16.961  0.00  0.00    +0.000 C 
ATOM      2  C   UNL     1       3.568   7.540  17.791  0.00  0.00    +0.000 C 
ATOM      3  C   UNL     1       3.196   6.236  18.376  0.00  0.00    +0.000 C 
ATOM      4  O   UNL     1       3.699   5.191  17.959  0.00  0.00    +0.000 OA
ATOM      5  N   UNL     1       2.211   6.276  19.372  0.00  0.00    +0.000 N 
ATOM      6  C   UNL     1       1.422   7.411  19.721  0.00  0.00    +0.000 C 
ATOM      7  S   UNL     1       0.367   7.426  21.073  0.00  0.00    +0.000 S 
ATOM      8  N   UNL     1       1.660   8.574  18.929  0.00  0.00    +0.000 N 
ATOM      9  C   UNL     1       2.722   8.733  18.028  0.00  0.00    +0.000 C 
ATOM     10  O   UNL     1       2.944   9.769  17.398  0.00  0.00    +0.000 OA
ENDROOT
BRANCH   5  11
ATOM     11  C   UNL     1       1.984   5.005  20.014  0.00  0.00    +0.000 A 
ATOM     12  C   UNL     1       1.104   4.074  19.438  0.00  0.00    +0.000 A 
ATOM     13  C   UNL     1       0.855   2.854  20.068  0.00  0.00    +0.000 A 
ATOM     14  C   UNL     1       1.479   2.555  21.279  0.00  0.00    +0.000 A 
ATOM     15  C   UNL     1       2.340   3.479  21.868  0.00  0.00    +0.000 A 
ATOM     16  C   UNL     1       2.583   4.704  21.247  0.00  0.00    +0.000 A 
ENDBRANCH   5  11
BRANCH   8  17
ATOM     17  C   UNL     1       0.811   9.736  19.091  0.00  0.00    +0.000 A 
ATOM     18  C   UNL     1      -0.294   9.943  18.249  0.00  0.00    +0.000 A 
ATOM     19  C   UNL     1      -1.133  11.045  18.438  0.00  0.00    +0.000 A 
ATOM     20  C   UNL     1      -0.882  11.945  19.471  0.00  0.00    +0.000 A 
ATOM     21  C   UNL     1       0.219  11.756  20.303  0.00  0.00    +0.000 A 
ATOM     22  C   UNL     1       1.071  10.667  20.106  0.00  0.00    +0.000 A 
ENDBRANCH   8  17
BRANCH   1  26
ATOM     23  C   UNL     1       6.303   5.142  15.092  0.00  0.00    +0.000 A 
ATOM     24  C   UNL     1       7.089   5.115  16.222  0.00  0.00    +0.000 A 
ATOM     25  C   UNL     1       6.518   6.042  17.123  0.00  0.00    +0.000 A 
ATOM     26  C   UNL     1       5.449   6.657  16.483  0.00  0.00    +0.000 A 
ATOM     27  O   UNL     1       5.303   6.056  15.257  0.00  0.00    +0.000 OA
BRANCH  23  33
ATOM     28  C   UNL     1       7.202   4.751  12.758  0.00  0.00    +0.000 A 
ATOM     29  C   UNL     1       7.079   4.071  11.529  0.00  0.00    +0.000 A 
ATOM     30  C   UNL     1       6.136   3.058  11.355  0.00  0.00    +0.000 A 
ATOM     31  C   UNL     1       5.316   2.697  12.414  0.00  0.00    +0.000 A 
ATOM     32  C   UNL     1       5.419   3.371  13.633  0.00  0.00    +0.000 A 
ATOM     33  C   UNL     1       6.336   4.429  13.820  0.00  0.00    +0.000 A 
BRANCH  28  35
ATOM     34  O   UNL     1       8.994   5.914  13.781  0.00  0.00    +0.000 OA
ATOM     35  C   UNL     1       8.274   5.787  12.808  0.00  0.00    +0.000 C 
BRANCH  35  36
ATOM     36  O   UNL     1       8.289   6.679  11.793  0.00  0.00    +0.000 OA
ATOM     37  H   UNL     1       8.290   7.626  12.047  0.00  0.00    +0.000 HD
ENDBRANCH  35  36
ENDBRANCH  28  35
ENDBRANCH  23  33
ENDBRANCH   1  26
TORSDOF 6
ENDMDL
MODEL 7
REMARK VINA RESULT:      -8.0      3.655      5.894
REMARK  Name = 
REMARK  6 active torsions:
REMARK  status: ('A' for Active; 'I' for Inactive)
REMARK    1  A    between atoms: C_2  and  O_3
REMARK    2  A    between atoms: C_2  and  C_4
REMARK    3  A    between atoms: C_9  and  C_10
REMARK    4  A    between atoms: C_13  and  C_14
REMARK    5  A    between atoms: N_18  and  C_19
REMARK    6  A    between atoms: N_27  and  C_28
REMARK                            x       y       z     vdW  Elec       q    Type
REMARK                         _______ _______ _______ _____ _____    ______ ____
ROOT
ATOM      1  C   UNL     1      -1.733  11.433  22.850  0.00  0.00    +0.000 C 
ATOM      2  C   UNL     1      -1.606  12.762  22.625  0.00  0.00    +0.000 C 
ATOM      3  C   UNL     1      -0.425  13.369  21.978  0.00  0.00    +0.000 C 
ATOM      4  O   UNL     1       0.606  12.717  21.810  0.00  0.00    +0.000 OA
ATOM      5  N   UNL     1      -0.550  14.722  21.637  0.00  0.00    +0.000 N 
ATOM      6  C   UNL     1      -1.614  15.588  22.024  0.00  0.00    +0.000 C 
ATOM      7  S   UNL     1      -1.782  17.180  21.413  0.00  0.00    +0.000 S 
ATOM      8  N   UNL     1      -2.594  14.990  22.872  0.00  0.00    +0.000 N 
ATOM      9  C   UNL     1      -2.694  13.620  23.149  0.00  0.00    +0.000 C 
ATOM     10  O   UNL     1      -3.585  13.117  23.837  0.00  0.00    +0.000 OA
ENDROOT
BRANCH   5  11
ATOM     11  C   UNL     1       0.567  15.234  20.880  0.00  0.00    +0.000 A 
ATOM     12  C   UNL     1       1.650  15.832  21.544  0.00  0.00    +0.000 A 
ATOM     13  C   UNL     1       2.720  16.356  20.818  0.00  0.00    +0.000 A 
ATOM     14  C   UNL     1       2.716  16.291  19.425  0.00  0.00    +0.000 A 
ATOM     15  C   UNL     1       1.638  15.715  18.756  0.00  0.00    +0.000 A 
ATOM     16  C   UNL     1       0.561  15.200  19.477  0.00  0.00    +0.000 A 
ENDBRANCH   5  11
BRANCH   8  17
ATOM     17  C   UNL     1      -3.635  15.813  23.453  0.00  0.00    +0.000 A 
ATOM     18  C   UNL     1      -4.899  15.906  22.851  0.00  0.00    +0.000 A 
ATOM     19  C   UNL     1      -5.912  16.669  23.439  0.00  0.00    +0.000 A 
ATOM     20  C   UNL     1      -5.674  17.341  24.637  0.00  0.00    +0.000 A 
ATOM     21  C   UNL     1      -4.418  17.266  25.235  0.00  0.00    +0.000 A 
ATOM     22  C   UNL     1      -3.398  16.520  24.641  0.00  0.00    +0.000 A 
ENDBRANCH   8  17
BRANCH   1  26
ATOM     23  C   UNL     1       0.713   9.229  21.407  0.00  0.00    +0.000 A 
ATOM     24  C   UNL     1       0.966   8.969  22.735  0.00  0.00    +0.000 A 
ATOM     25  C   UNL     1       0.023   9.721  23.472  0.00  0.00    +0.000 A 
ATOM     26  C   UNL     1      -0.723  10.471  22.572  0.00  0.00    +0.000 A 
ATOM     27  O   UNL     1      -0.319  10.117  21.308  0.00  0.00    +0.000 OA
BRANCH  23  33
ATOM     28  C   UNL     1       1.196   9.459  18.934  0.00  0.00    +0.000 A 
ATOM     29  C   UNL     1       1.711   8.876  17.758  0.00  0.00    +0.000 A 
ATOM     30  C   UNL     1       2.359   7.641  17.788  0.00  0.00    +0.000 A 
ATOM     31  C   UNL     1       2.519   6.981  18.998  0.00  0.00    +0.000 A 
ATOM     32  C   UNL     1       2.003   7.542  20.169  0.00  0.00    +0.000 A 
ATOM     33  C   UNL     1       1.305   8.771  20.157  0.00  0.00    +0.000 A 
BRANCH  28  35
ATOM     34  O   UNL     1      -0.497  10.924  18.159  0.00  0.00    +0.000 OA
ATOM     35  C   UNL     1       0.558  10.795  18.754  0.00  0.00    +0.000 C 
BRANCH  35  36
ATOM     36  O   UNL     1       1.293  11.863  19.133  0.00  0.00    +0.000 OA
ATOM     37  H   UNL     1       1.856  12.271  18.442  0.00  0.00    +0.000 HD
ENDBRANCH  35  36
ENDBRANCH  28  35
ENDBRANCH  23  33
ENDBRANCH   1  26
TORSDOF 6
ENDMDL
MODEL 8
REMARK VINA RESULT:      -7.6      3.491      5.530
REMARK  Name = 
REMARK  6 active torsions:
REMARK  status: ('A' for Active; 'I' for Inactive)
REMARK    1  A    between atoms: C_2  and  O_3
REMARK    2  A    between atoms: C_2  and  C_4
REMARK    3  A    between atoms: C_9  and  C_10
REMARK    4  A    between atoms: C_13  and  C_14
REMARK    5  A    between atoms: N_18  and  C_19
REMARK    6  A    between atoms: N_27  and  C_28
REMARK                            x       y       z     vdW  Elec       q    Type
REMARK                         _______ _______ _______ _____ _____    ______ ____
ROOT
ATOM      1  C   UNL     1      -1.407  11.486  21.732  0.00  0.00    +0.000 C 
ATOM      2  C   UNL     1      -1.118  12.774  21.429  0.00  0.00    +0.000 C 
ATOM      3  C   UNL     1       0.222  13.228  21.006  0.00  0.00    +0.000 C 
ATOM      4  O   UNL     1       1.204  12.493  21.122  0.00  0.00    +0.000 OA
ATOM      5  N   UNL     1       0.294  14.545  20.532  0.00  0.00    +0.000 N 
ATOM      6  C   UNL     1      -0.746  15.517  20.603  0.00  0.00    +0.000 C 
ATOM      7  S   UNL     1      -0.639  17.047  19.838  0.00  0.00    +0.000 S 
ATOM      8  N   UNL     1      -1.932  15.078  21.265  0.00  0.00    +0.000 N 
ATOM      9  C   UNL     1      -2.210  13.754  21.628  0.00  0.00    +0.000 C 
ATOM     10  O   UNL     1      -3.267  13.386  22.146  0.00  0.00    +0.000 OA
ENDROOT
BRANCH   5  11
ATOM     11  C   UNL     1       1.586  14.898  19.997  0.00  0.00    +0.000 A 
ATOM     12  C   UNL     1       1.912  14.569  18.671  0.00  0.00    +0.000 A 
ATOM     13  C   UNL     1       3.171  14.880  18.156  0.00  0.00    +0.000 A 
ATOM     14  C   UNL     1       4.115  15.519  18.959  0.00  0.00    +0.000 A 
ATOM     15  C   UNL     1       3.807  15.834  20.281  0.00  0.00    +0.000 A 
ATOM     16  C   UNL     1       2.555  15.515  20.804  0.00  0.00    +0.000 A 
ENDBRANCH   5  11
BRANCH   8  17
ATOM     17  C   UNL     1      -2.994  16.026  21.533  0.00  0.00    +0.000 A 
ATOM     18  C   UNL     1      -4.049  16.202  20.623  0.00  0.00    +0.000 A 
ATOM     19  C   UNL     1      -5.091  17.088  20.908  0.00  0.00    +0.000 A 
ATOM     20  C   UNL     1      -5.094  17.802  22.105  0.00  0.00    +0.000 A 
ATOM     21  C   UNL     1      -4.045  17.645  23.008  0.00  0.00    +0.000 A 
ATOM     22  C   UNL     1      -2.992  16.774  22.719  0.00  0.00    +0.000 A 
ENDBRANCH   8  17
BRANCH   1  26
ATOM     23  C   UNL     1       0.981   8.893  21.034  0.00  0.00    +0.000 A 
ATOM     24  C   UNL     1       1.102   8.913  22.405  0.00  0.00    +0.000 A 
ATOM     25  C   UNL     1       0.158   9.857  22.871  0.00  0.00    +0.000 A 
ATOM     26  C   UNL     1      -0.452  10.434  21.764  0.00  0.00    +0.000 A 
ATOM     27  O   UNL     1       0.030   9.793  20.649  0.00  0.00    +0.000 OA
BRANCH  23  33
ATOM     28  C   UNL     1       1.816   8.622  18.660  0.00  0.00    +0.000 A 
ATOM     29  C   UNL     1       2.369   7.775  17.678  0.00  0.00    +0.000 A 
ATOM     30  C   UNL     1       2.778   6.478  17.988  0.00  0.00    +0.000 A 
ATOM     31  C   UNL     1       2.658   6.016  19.292  0.00  0.00    +0.000 A 
ATOM     32  C   UNL     1       2.101   6.841  20.272  0.00  0.00    +0.000 A 
ATOM     33  C   UNL     1       1.641   8.143  19.972  0.00  0.00    +0.000 A 
BRANCH  28  35
ATOM     34  O   UNL     1       2.232  10.923  18.283  0.00  0.00    +0.000 OA
ATOM     35  C   UNL     1       1.455   9.990  18.190  0.00  0.00    +0.000 C 
BRANCH  35  36
ATOM     36  O   UNL     1       0.169  10.173  17.817  0.00  0.00    +0.000 OA
ATOM     37  H   UNL     1      -0.461  10.404  18.531  0.00  0.00    +0.000 HD
ENDBRANCH  35  36
ENDBRANCH  28  35
ENDBRANCH  23  33
ENDBRANCH   1  26
TORSDOF 6
ENDMDL
MODEL 9
REMARK VINA RESULT:      -7.6      3.566      5.727
REMARK  Name = 
REMARK  6 active torsions:
REMARK  status: ('A' for Active; 'I' for Inactive)
REMARK    1  A    between atoms: C_2  and  O_3
REMARK    2  A    between atoms: C_2  and  C_4
REMARK    3  A    between atoms: C_9  and  C_10
REMARK    4  A    between atoms: C_13  and  C_14
REMARK    5  A    between atoms: N_18  and  C_19
REMARK    6  A    between atoms: N_27  and  C_28
REMARK                            x       y       z     vdW  Elec       q    Type
REMARK                         _______ _______ _______ _____ _____    ______ ____
ROOT
ATOM      1  C   UNL     1      -1.251  11.828  21.541  0.00  0.00    +0.000 C 
ATOM      2  C   UNL     1      -0.790  13.066  21.244  0.00  0.00    +0.000 C 
ATOM      3  C   UNL     1       0.617  13.348  20.895  0.00  0.00    +0.000 C 
ATOM      4  O   UNL     1       1.493  12.500  21.072  0.00  0.00    +0.000 OA
ATOM      5  N   UNL     1       0.876  14.639  20.415  0.00  0.00    +0.000 N 
ATOM      6  C   UNL     1      -0.040  15.732  20.419  0.00  0.00    +0.000 C 
ATOM      7  S   UNL     1       0.296  17.225  19.648  0.00  0.00    +0.000 S 
ATOM      8  N   UNL     1      -1.306  15.450  21.015  0.00  0.00    +0.000 N 
ATOM      9  C   UNL     1      -1.764  14.175  21.373  0.00  0.00    +0.000 C 
ATOM     10  O   UNL     1      -2.885  13.947  21.832  0.00  0.00    +0.000 OA
ENDROOT
BRANCH   5  11
ATOM     11  C   UNL     1       2.229  14.824  19.951  0.00  0.00    +0.000 A 
ATOM     12  C   UNL     1       3.200  15.357  20.814  0.00  0.00    +0.000 A 
ATOM     13  C   UNL     1       4.504  15.568  20.364  0.00  0.00    +0.000 A 
ATOM     14  C   UNL     1       4.848  15.251  19.050  0.00  0.00    +0.000 A 
ATOM     15  C   UNL     1       3.887  14.739  18.181  0.00  0.00    +0.000 A 
ATOM     16  C   UNL     1       2.581  14.537  18.623  0.00  0.00    +0.000 A 
ENDBRANCH   5  11
BRANCH   8  17
ATOM     17  C   UNL     1      -2.257  16.524  21.214  0.00  0.00    +0.000 A 
ATOM     18  C   UNL     1      -3.224  16.819  20.241  0.00  0.00    +0.000 A 
ATOM     19  C   UNL     1      -4.165  17.830  20.458  0.00  0.00    +0.000 A 
ATOM     20  C   UNL     1      -4.153  18.550  21.651  0.00  0.00    +0.000 A 
ATOM     21  C   UNL     1      -3.189  18.274  22.617  0.00  0.00    +0.000 A 
ATOM     22  C   UNL     1      -2.235  17.278  22.397  0.00  0.00    +0.000 A 
ENDBRANCH   8  17
BRANCH   1  26
ATOM     23  C   UNL     1       0.890   8.992  21.008  0.00  0.00    +0.000 A 
ATOM     24  C   UNL     1       0.840   8.951  22.383  0.00  0.00    +0.000 A 
ATOM     25  C   UNL     1      -0.038   9.984  22.778  0.00  0.00    +0.000 A 
ATOM     26  C   UNL     1      -0.435  10.668  21.635  0.00  0.00    +0.000 A 
ATOM     27  O   UNL     1       0.105  10.012  20.556  0.00  0.00    +0.000 OA
BRANCH  23  33
ATOM     28  C   UNL     1       1.811   8.637  18.677  0.00  0.00    +0.000 A 
ATOM     29  C   UNL     1       2.397   7.756  17.745  0.00  0.00    +0.000 A 
ATOM     30  C   UNL     1       2.791   6.470  18.115  0.00  0.00    +0.000 A 
ATOM     31  C   UNL     1       2.622   6.054  19.429  0.00  0.00    +0.000 A 
ATOM     32  C   UNL     1       2.032   6.913  20.359  0.00  0.00    +0.000 A 
ATOM     33  C   UNL     1       1.586   8.204  19.997  0.00  0.00    +0.000 A 
BRANCH  28  35
ATOM     34  O   UNL     1       2.270  10.908  18.182  0.00  0.00    +0.000 OA
ATOM     35  C   UNL     1       1.472   9.989  18.147  0.00  0.00    +0.000 C 
BRANCH  35  36
ATOM     36  O   UNL     1       0.183  10.183  17.788  0.00  0.00    +0.000 OA
ATOM     37  H   UNL     1      -0.285  10.921  18.231  0.00  0.00    +0.000 HD
ENDBRANCH  35  36
ENDBRANCH  28  35
ENDBRANCH  23  33
ENDBRANCH   1  26
TORSDOF 6
ENDMDL
