MODEL 1
REMARK VINA RESULT:      -7.9      0.000      0.000
REMARK  Name = 
REMARK  5 active torsions:
REMARK  status: ('A' for Active; 'I' for Inactive)
REMARK    1  A    between atoms: C_1  and  C_2
REMARK    2  A    between atoms: N_4  and  C_5
REMARK    3  A    between atoms: C_8  and  C_9
REMARK    4  A    between atoms: N_13  and  N_14
REMARK    5  A    between atoms: C_15  and  C_16
REMARK                            x       y       z     vdW  Elec       q    Type
REMARK                         _______ _______ _______ _____ _____    ______ ____
ROOT
ATOM      1  C   UNL     1       2.865   5.873  19.692  0.00  0.00    +0.000 A 
ATOM      2  C   UNL     1       2.227   4.676  19.964  0.00  0.00    +0.000 A 
ATOM      3  S   UNL     1       3.335   3.381  19.847  0.00  0.00    +0.000 S 
ATOM      4  C   UNL     1       4.594   4.499  19.469  0.00  0.00    +0.000 A 
ATOM      5  N   UNL     1       5.847   4.026  19.231  0.00  0.00    +0.000 N 
ATOM      6  N   UNL     1       4.210   5.753  19.393  0.00  0.00    +0.000 NA
ATOM      7  H   UNL     1       5.969   3.024  19.359  0.00  0.00    +0.000 HD
ENDROOT
BRANCH   1  11
ATOM      8  C   UNL     1       0.865   9.657  19.624  0.00  0.00    +0.000 A 
ATOM      9  C   UNL     1       0.857   8.869  20.776  0.00  0.00    +0.000 A 
ATOM     10  C   UNL     1       1.514   7.637  20.804  0.00  0.00    +0.000 A 
ATOM     11  C   UNL     1       2.193   7.162  19.678  0.00  0.00    +0.000 A 
ATOM     12  C   UNL     1       2.209   7.955  18.523  0.00  0.00    +0.000 A 
ATOM     13  C   UNL     1       1.538   9.185  18.491  0.00  0.00    +0.000 A 
BRANCH   8  17
ATOM     14  C   UNL     1      -1.397  12.598  18.956  0.00  0.00    +0.000 C 
ATOM     15  C   UNL     1      -1.034  11.137  18.981  0.00  0.00    +0.000 C 
ATOM     16  O   UNL     1      -1.805  10.300  18.525  0.00  0.00    +0.000 OA
ATOM     17  N   UNL     1       0.210  10.904  19.545  0.00  0.00    +0.000 N 
ATOM     18  H   UNL     1       0.660  11.679  20.013  0.00  0.00    +0.000 HD
ENDBRANCH   8  17
ENDBRANCH   1  11
BRANCH   5  19
ATOM     19  N   UNL     1       6.962   4.797  19.341  0.00  0.00    +0.000 NA
ATOM     20  C   UNL     1       7.447   5.324  18.257  0.00  0.00    +0.000 C 
BRANCH  20  21
ATOM     21  C   UNL     1       6.872   5.347  16.897  0.00  0.00    +0.000 A 
ATOM     22  C   UNL     1       7.187   4.377  15.948  0.00  0.00    +0.000 A 
ATOM     23  C   UNL     1       6.598   4.475  14.703  0.00  0.00    +0.000 A 
ATOM     24  N   UNL     1       5.716   5.441  14.370  0.00  0.00    +0.000 NA
ATOM     25  C   UNL     1       5.396   6.341  15.325  0.00  0.00    +0.000 A 
ATOM     26  C   UNL     1       5.938   6.336  16.597  0.00  0.00    +0.000 A 
ENDBRANCH  20  21
ENDBRANCH   5  19
TORSDOF 4
ENDMDL
MODEL 2
REMARK VINA RESULT:      -7.9      0.319      1.013
REMARK  Name = 
REMARK  5 active torsions:
REMARK  status: ('A' for Active; 'I' for Inactive)
REMARK    1  A    between atoms: C_1  and  C_2
REMARK    2  A    between atoms: N_4  and  C_5
REMARK    3  A    between atoms: C_8  and  C_9
REMARK    4  A    between atoms: N_13  and  N_14
REMARK    5  A    between atoms: C_15  and  C_16
REMARK                            x       y       z     vdW  Elec       q    Type
REMARK                         _______ _______ _______ _____ _____    ______ ____
ROOT
ATOM      1  C   UNL     1       2.884   5.948  19.607  0.00  0.00    +0.000 A 
ATOM      2  C   UNL     1       2.227   4.797  20.002  0.00  0.00    +0.000 A 
ATOM      3  S   UNL     1       3.298   3.467  19.966  0.00  0.00    +0.000 S 
ATOM      4  C   UNL     1       4.571   4.514  19.453  0.00  0.00    +0.000 A 
ATOM      5  N   UNL     1       5.804   3.989  19.219  0.00  0.00    +0.000 N 
ATOM      6  N   UNL     1       4.215   5.767  19.279  0.00  0.00    +0.000 NA
ATOM      7  H   UNL     1       5.906   2.999  19.431  0.00  0.00    +0.000 HD
ENDROOT
BRANCH   1  11
ATOM      8  C   UNL     1       0.975   9.764  19.268  0.00  0.00    +0.000 A 
ATOM      9  C   UNL     1       0.972   9.073  20.480  0.00  0.00    +0.000 A 
ATOM     10  C   UNL     1       1.599   7.830  20.596  0.00  0.00    +0.000 A 
ATOM     11  C   UNL     1       2.244   7.249  19.500  0.00  0.00    +0.000 A 
ATOM     12  C   UNL     1       2.255   7.945  18.284  0.00  0.00    +0.000 A 
ATOM     13  C   UNL     1       1.614   9.186  18.165  0.00  0.00    +0.000 A 
BRANCH   8  17
ATOM     14  C   UNL     1      -1.241  12.695  18.426  0.00  0.00    +0.000 C 
ATOM     15  C   UNL     1      -0.915  11.234  18.575  0.00  0.00    +0.000 C 
ATOM     16  O   UNL     1      -1.730  10.380  18.240  0.00  0.00    +0.000 OA
ATOM     17  N   UNL     1       0.349  11.018  19.099  0.00  0.00    +0.000 N 
ATOM     18  H   UNL     1       0.842  11.820  19.467  0.00  0.00    +0.000 HD
ENDBRANCH   8  17
ENDBRANCH   1  11
BRANCH   5  19
ATOM     19  N   UNL     1       6.940   4.736  19.227  0.00  0.00    +0.000 NA
ATOM     20  C   UNL     1       7.383   5.182  18.090  0.00  0.00    +0.000 C 
BRANCH  20  21
ATOM     21  C   UNL     1       6.742   5.135  16.760  0.00  0.00    +0.000 A 
ATOM     22  C   UNL     1       5.848   6.117  16.339  0.00  0.00    +0.000 A 
ATOM     23  C   UNL     1       5.301   5.994  15.077  0.00  0.00    +0.000 A 
ATOM     24  N   UNL     1       5.607   4.993  14.225  0.00  0.00    +0.000 NA
ATOM     25  C   UNL     1       6.510   4.081  14.645  0.00  0.00    +0.000 A 
ATOM     26  C   UNL     1       7.106   4.109  15.892  0.00  0.00    +0.000 A 
ENDBRANCH  20  21
ENDBRANCH   5  19
TORSDOF 4
ENDMDL
MODEL 3
REMARK VINA RESULT:      -7.9      1.171      1.172
REMARK  Name = 
REMARK  5 active torsions:
REMARK  status: ('A' for Active; 'I' for Inactive)
REMARK    1  A    between atoms: C_1  and  C_2
REMARK    2  A    between atoms: N_4  and  C_5
REMARK    3  A    between atoms: C_8  and  C_9
REMARK    4  A    between atoms: N_13  and  N_14
REMARK    5  A    between atoms: C_15  and  C_16
REMARK                            x       y       z     vdW  Elec       q    Type
REMARK                         _______ _______ _______ _____ _____    ______ ____
ROOT
ATOM      1  C   UNL     1       2.786   6.127  19.568  0.00  0.00    +0.000 A 
ATOM      2  C   UNL     1       2.104   4.986  19.951  0.00  0.00    +0.000 A 
ATOM      3  S   UNL     1       3.168   3.650  19.986  0.00  0.00    +0.000 S 
ATOM      4  C   UNL     1       4.470   4.680  19.517  0.00  0.00    +0.000 A 
ATOM      5  N   UNL     1       5.709   4.145  19.350  0.00  0.00    +0.000 N 
ATOM      6  N   UNL     1       4.130   5.932  19.306  0.00  0.00    +0.000 NA
ATOM      7  H   UNL     1       5.794   3.158  19.582  0.00  0.00    +0.000 HD
ENDROOT
BRANCH   1  11
ATOM      8  C   UNL     1       0.918   9.947  19.079  0.00  0.00    +0.000 A 
ATOM      9  C   UNL     1       0.903   9.301  20.316  0.00  0.00    +0.000 A 
ATOM     10  C   UNL     1       1.517   8.058  20.482  0.00  0.00    +0.000 A 
ATOM     11  C   UNL     1       2.160   7.429  19.411  0.00  0.00    +0.000 A 
ATOM     12  C   UNL     1       2.182   8.079  18.170  0.00  0.00    +0.000 A 
ATOM     13  C   UNL     1       1.554   9.321  18.001  0.00  0.00    +0.000 A 
BRANCH   8  17
ATOM     14  C   UNL     1       0.004  13.577  18.632  0.00  0.00    +0.000 C 
ATOM     15  C   UNL     1       0.956  12.417  18.748  0.00  0.00    +0.000 C 
ATOM     16  O   UNL     1       2.168  12.607  18.743  0.00  0.00    +0.000 OA
ATOM     17  N   UNL     1       0.306  11.199  18.862  0.00  0.00    +0.000 N 
ATOM     18  H   UNL     1      -0.692  11.189  18.697  0.00  0.00    +0.000 HD
ENDBRANCH   8  17
ENDBRANCH   1  11
BRANCH   5  19
ATOM     19  N   UNL     1       6.847   4.885  19.399  0.00  0.00    +0.000 NA
ATOM     20  C   UNL     1       7.359   5.292  18.275  0.00  0.00    +0.000 C 
BRANCH  20  21
ATOM     21  C   UNL     1       6.795   5.204  16.912  0.00  0.00    +0.000 A 
ATOM     22  C   UNL     1       7.075   4.133  16.067  0.00  0.00    +0.000 A 
ATOM     23  C   UNL     1       6.500   4.133  14.812  0.00  0.00    +0.000 A 
ATOM     24  N   UNL     1       5.663   5.097  14.375  0.00  0.00    +0.000 NA
ATOM     25  C   UNL     1       5.375   6.100  15.233  0.00  0.00    +0.000 A 
ATOM     26  C   UNL     1       5.908   6.197  16.506  0.00  0.00    +0.000 A 
ENDBRANCH  20  21
ENDBRANCH   5  19
TORSDOF 4
ENDMDL
MODEL 4
REMARK VINA RESULT:      -7.8      1.177      1.806
REMARK  Name = 
REMARK  5 active torsions:
REMARK  status: ('A' for Active; 'I' for Inactive)
REMARK    1  A    between atoms: C_1  and  C_2
REMARK    2  A    between atoms: N_4  and  C_5
REMARK    3  A    between atoms: C_8  and  C_9
REMARK    4  A    between atoms: N_13  and  N_14
REMARK    5  A    between atoms: C_15  and  C_16
REMARK                            x       y       z     vdW  Elec       q    Type
REMARK                         _______ _______ _______ _____ _____    ______ ____
ROOT
ATOM      1  C   UNL     1       2.832   6.030  19.510  0.00  0.00    +0.000 A 
ATOM      2  C   UNL     1       2.166   4.893  19.932  0.00  0.00    +0.000 A 
ATOM      3  S   UNL     1       3.236   3.562  19.962  0.00  0.00    +0.000 S 
ATOM      4  C   UNL     1       4.520   4.589  19.438  0.00  0.00    +0.000 A 
ATOM      5  N   UNL     1       5.757   4.056  19.247  0.00  0.00    +0.000 N 
ATOM      6  N   UNL     1       4.169   5.836  19.215  0.00  0.00    +0.000 NA
ATOM      7  H   UNL     1       5.853   3.074  19.495  0.00  0.00    +0.000 HD
ENDROOT
BRANCH   1  11
ATOM      8  C   UNL     1       0.981   9.862  19.052  0.00  0.00    +0.000 A 
ATOM      9  C   UNL     1       1.594   9.234  17.967  0.00  0.00    +0.000 A 
ATOM     10  C   UNL     1       2.193   7.980  18.111  0.00  0.00    +0.000 A 
ATOM     11  C   UNL     1       2.196   7.326  19.346  0.00  0.00    +0.000 A 
ATOM     12  C   UNL     1       1.574   7.951  20.435  0.00  0.00    +0.000 A 
ATOM     13  C   UNL     1       0.985   9.215  20.293  0.00  0.00    +0.000 A 
BRANCH   8  17
ATOM     14  C   UNL     1       0.089  13.518  18.844  0.00  0.00    +0.000 C 
ATOM     15  C   UNL     1       1.024  12.341  18.795  0.00  0.00    +0.000 C 
ATOM     16  O   UNL     1       2.227  12.512  18.631  0.00  0.00    +0.000 OA
ATOM     17  N   UNL     1       0.370  11.130  18.958  0.00  0.00    +0.000 N 
ATOM     18  H   UNL     1      -0.641  11.142  18.929  0.00  0.00    +0.000 HD
ENDBRANCH   8  17
ENDBRANCH   1  11
BRANCH   5  19
ATOM     19  N   UNL     1       6.893   4.802  19.251  0.00  0.00    +0.000 NA
ATOM     20  C   UNL     1       7.349   5.224  18.109  0.00  0.00    +0.000 C 
BRANCH  20  21
ATOM     21  C   UNL     1       6.722   5.149  16.774  0.00  0.00    +0.000 A 
ATOM     22  C   UNL     1       5.854   6.134  16.312  0.00  0.00    +0.000 A 
ATOM     23  C   UNL     1       5.319   5.984  15.048  0.00  0.00    +0.000 A 
ATOM     24  N   UNL     1       5.614   4.950  14.231  0.00  0.00    +0.000 NA
ATOM     25  C   UNL     1       6.493   4.034  14.690  0.00  0.00    +0.000 A 
ATOM     26  C   UNL     1       7.076   4.088  15.943  0.00  0.00    +0.000 A 
ENDBRANCH  20  21
ENDBRANCH   5  19
TORSDOF 4
ENDMDL
MODEL 5
REMARK VINA RESULT:      -7.8      1.188      1.542
REMARK  Name = 
REMARK  5 active torsions:
REMARK  status: ('A' for Active; 'I' for Inactive)
REMARK    1  A    between atoms: C_1  and  C_2
REMARK    2  A    between atoms: N_4  and  C_5
REMARK    3  A    between atoms: C_8  and  C_9
REMARK    4  A    between atoms: N_13  and  N_14
REMARK    5  A    between atoms: C_15  and  C_16
REMARK                            x       y       z     vdW  Elec       q    Type
REMARK                         _______ _______ _______ _____ _____    ______ ____
ROOT
ATOM      1  C   UNL     1       2.734   6.189  19.555  0.00  0.00    +0.000 A 
ATOM      2  C   UNL     1       2.043   5.032  19.867  0.00  0.00    +0.000 A 
ATOM      3  S   UNL     1       3.120   3.708  19.944  0.00  0.00    +0.000 S 
ATOM      4  C   UNL     1       4.436   4.764  19.584  0.00  0.00    +0.000 A 
ATOM      5  N   UNL     1       5.691   4.247  19.488  0.00  0.00    +0.000 N 
ATOM      6  N   UNL     1       4.095   6.016  19.378  0.00  0.00    +0.000 NA
ATOM      7  H   UNL     1       5.774   3.256  19.704  0.00  0.00    +0.000 HD
ENDROOT
BRANCH   1  11
ATOM      8  C   UNL     1       0.897  10.025  19.076  0.00  0.00    +0.000 A 
ATOM      9  C   UNL     1       1.500   9.385  17.993  0.00  0.00    +0.000 A 
ATOM     10  C   UNL     1       2.095   8.131  18.143  0.00  0.00    +0.000 A 
ATOM     11  C   UNL     1       2.102   7.486  19.384  0.00  0.00    +0.000 A 
ATOM     12  C   UNL     1       1.490   8.124  20.472  0.00  0.00    +0.000 A 
ATOM     13  C   UNL     1       0.905   9.389  20.323  0.00  0.00    +0.000 A 
BRANCH   8  17
ATOM     14  C   UNL     1       0.019  13.683  18.834  0.00  0.00    +0.000 C 
ATOM     15  C   UNL     1       0.947  12.500  18.784  0.00  0.00    +0.000 C 
ATOM     16  O   UNL     1       2.148  12.662  18.597  0.00  0.00    +0.000 OA
ATOM     17  N   UNL     1       0.290  11.295  18.975  0.00  0.00    +0.000 N 
ATOM     18  H   UNL     1      -0.721  11.311  18.964  0.00  0.00    +0.000 HD
ENDBRANCH   8  17
ENDBRANCH   1  11
BRANCH   5  19
ATOM     19  N   UNL     1       6.814   5.000  19.628  0.00  0.00    +0.000 NA
ATOM     20  C   UNL     1       7.378   5.459  18.551  0.00  0.00    +0.000 C 
BRANCH  20  21
ATOM     21  C   UNL     1       6.889   5.420  17.157  0.00  0.00    +0.000 A 
ATOM     22  C   UNL     1       7.229   4.387  16.287  0.00  0.00    +0.000 A 
ATOM     23  C   UNL     1       6.721   4.431  15.003  0.00  0.00    +0.000 A 
ATOM     24  N   UNL     1       5.896   5.402  14.560  0.00  0.00    +0.000 NA
ATOM     25  C   UNL     1       5.549   6.366  15.440  0.00  0.00    +0.000 A 
ATOM     26  C   UNL     1       6.011   6.418  16.743  0.00  0.00    +0.000 A 
ENDBRANCH  20  21
ENDBRANCH   5  19
TORSDOF 4
ENDMDL
MODEL 6
REMARK VINA RESULT:      -7.7      1.135      1.490
REMARK  Name = 
REMARK  5 active torsions:
REMARK  status: ('A' for Active; 'I' for Inactive)
REMARK    1  A    between atoms: C_1  and  C_2
REMARK    2  A    between atoms: N_4  and  C_5
REMARK    3  A    between atoms: C_8  and  C_9
REMARK    4  A    between atoms: N_13  and  N_14
REMARK    5  A    between atoms: C_15  and  C_16
REMARK                            x       y       z     vdW  Elec       q    Type
REMARK                         _______ _______ _______ _____ _____    ______ ____
ROOT
ATOM      1  C   UNL     1       2.662   6.185  19.721  0.00  0.00    +0.000 A 
ATOM      2  C   UNL     1       1.950   5.028  19.979  0.00  0.00    +0.000 A 
ATOM      3  S   UNL     1       2.993   3.676  19.943  0.00  0.00    +0.000 S 
ATOM      4  C   UNL     1       4.327   4.721  19.613  0.00  0.00    +0.000 A 
ATOM      5  N   UNL     1       5.564   4.181  19.450  0.00  0.00    +0.000 N 
ATOM      6  N   UNL     1       4.013   5.991  19.496  0.00  0.00    +0.000 NA
ATOM      7  H   UNL     1       5.627   3.176  19.601  0.00  0.00    +0.000 HD
ENDROOT
BRANCH   1  11
ATOM      8  C   UNL     1       0.865  10.063  19.486  0.00  0.00    +0.000 A 
ATOM      9  C   UNL     1       0.858   9.348  20.684  0.00  0.00    +0.000 A 
ATOM     10  C   UNL     1       1.449   8.085  20.767  0.00  0.00    +0.000 A 
ATOM     11  C   UNL     1       2.060   7.506  19.649  0.00  0.00    +0.000 A 
ATOM     12  C   UNL     1       2.074   8.226  18.447  0.00  0.00    +0.000 A 
ATOM     13  C   UNL     1       1.469   9.487  18.362  0.00  0.00    +0.000 A 
BRANCH   8  17
ATOM     14  C   UNL     1      -0.443  13.579  19.859  0.00  0.00    +0.000 C 
ATOM     15  C   UNL     1       0.406  12.395  20.237  0.00  0.00    +0.000 C 
ATOM     16  O   UNL     1       1.109  12.432  21.240  0.00  0.00    +0.000 OA
ATOM     17  N   UNL     1       0.274  11.337  19.351  0.00  0.00    +0.000 N 
ATOM     18  H   UNL     1      -0.226  11.513  18.490  0.00  0.00    +0.000 HD
ENDBRANCH   8  17
ENDBRANCH   1  11
BRANCH   5  19
ATOM     19  N   UNL     1       6.710   4.895  19.606  0.00  0.00    +0.000 NA
ATOM     20  C   UNL     1       7.268   5.391  18.542  0.00  0.00    +0.000 C 
BRANCH  20  21
ATOM     21  C   UNL     1       6.755   5.434  17.157  0.00  0.00    +0.000 A 
ATOM     22  C   UNL     1       5.865   6.417  16.733  0.00  0.00    +0.000 A 
ATOM     23  C   UNL     1       5.442   6.382  15.419  0.00  0.00    +0.000 A 
ATOM     24  N   UNL     1       5.865   5.465  14.523  0.00  0.00    +0.000 NA
ATOM     25  C   UNL     1       6.761   4.551  14.954  0.00  0.00    +0.000 A 
ATOM     26  C   UNL     1       7.238   4.495  16.250  0.00  0.00    +0.000 A 
ENDBRANCH  20  21
ENDBRANCH   5  19
TORSDOF 4
ENDMDL
MODEL 7
REMARK VINA RESULT:      -7.5      2.796      4.624
REMARK  Name = 
REMARK  5 active torsions:
REMARK  status: ('A' for Active; 'I' for Inactive)
REMARK    1  A    between atoms: C_1  and  C_2
REMARK    2  A    between atoms: N_4  and  C_5
REMARK    3  A    between atoms: C_8  and  C_9
REMARK    4  A    between atoms: N_13  and  N_14
REMARK    5  A    between atoms: C_15  and  C_16
REMARK                            x       y       z     vdW  Elec       q    Type
REMARK                         _______ _______ _______ _____ _____    ______ ____
ROOT
ATOM      1  C   UNL     1       3.034   6.984  18.125  0.00  0.00    +0.000 A 
ATOM      2  C   UNL     1       4.333   7.211  17.706  0.00  0.00    +0.000 A 
ATOM      3  S   UNL     1       5.013   5.767  17.097  0.00  0.00    +0.000 S 
ATOM      4  C   UNL     1       3.528   4.943  17.405  0.00  0.00    +0.000 A 
ATOM      5  N   UNL     1       3.434   3.619  17.109  0.00  0.00    +0.000 N 
ATOM      6  N   UNL     1       2.596   5.682  17.964  0.00  0.00    +0.000 NA
ATOM      7  H   UNL     1       4.249   3.213  16.656  0.00  0.00    +0.000 HD
ENDROOT
BRANCH   1  11
ATOM      8  C   UNL     1       0.570   9.994  19.911  0.00  0.00    +0.000 A 
ATOM      9  C   UNL     1       0.965  10.099  18.577  0.00  0.00    +0.000 A 
ATOM     10  C   UNL     1       1.764   9.115  17.989  0.00  0.00    +0.000 A 
ATOM     11  C   UNL     1       2.188   8.004  18.724  0.00  0.00    +0.000 A 
ATOM     12  C   UNL     1       1.786   7.894  20.061  0.00  0.00    +0.000 A 
ATOM     13  C   UNL     1       0.996   8.888  20.654  0.00  0.00    +0.000 A 
BRANCH   8  17
ATOM     14  C   UNL     1      -0.875  12.863  21.885  0.00  0.00    +0.000 C 
ATOM     15  C   UNL     1       0.230  12.092  21.215  0.00  0.00    +0.000 C 
ATOM     16  O   UNL     1       1.392  12.475  21.297  0.00  0.00    +0.000 OA
ATOM     17  N   UNL     1      -0.229  10.965  20.551  0.00  0.00    +0.000 N 
ATOM     18  H   UNL     1      -1.230  10.866  20.445  0.00  0.00    +0.000 HD
ENDBRANCH   8  17
ENDBRANCH   1  11
BRANCH   5  19
ATOM     19  N   UNL     1       2.246   2.988  16.913  0.00  0.00    +0.000 NA
ATOM     20  C   UNL     1       1.686   2.412  17.934  0.00  0.00    +0.000 C 
BRANCH  20  21
ATOM     21  C   UNL     1       2.072   2.468  19.359  0.00  0.00    +0.000 A 
ATOM     22  C   UNL     1       3.359   2.149  19.786  0.00  0.00    +0.000 A 
ATOM     23  C   UNL     1       3.631   2.234  21.137  0.00  0.00    +0.000 A 
ATOM     24  N   UNL     1       2.727   2.635  22.057  0.00  0.00    +0.000 NA
ATOM     25  C   UNL     1       1.501   2.980  21.606  0.00  0.00    +0.000 A 
ATOM     26  C   UNL     1       1.127   2.919  20.277  0.00  0.00    +0.000 A 
ENDBRANCH  20  21
ENDBRANCH   5  19
TORSDOF 4
ENDMDL
MODEL 8
REMARK VINA RESULT:      -7.5      2.944      4.587
REMARK  Name = 
REMARK  5 active torsions:
REMARK  status: ('A' for Active; 'I' for Inactive)
REMARK    1  A    between atoms: C_1  and  C_2
REMARK    2  A    between atoms: N_4  and  C_5
REMARK    3  A    between atoms: C_8  and  C_9
REMARK    4  A    between atoms: N_13  and  N_14
REMARK    5  A    between atoms: C_15  and  C_16
REMARK                            x       y       z     vdW  Elec       q    Type
REMARK                         _______ _______ _______ _____ _____    ______ ____
ROOT
ATOM      1  C   UNL     1       2.825   7.102  18.420  0.00  0.00    +0.000 A 
ATOM      2  C   UNL     1       4.085   7.436  17.957  0.00  0.00    +0.000 A 
ATOM      3  S   UNL     1       4.804   6.091  17.187  0.00  0.00    +0.000 S 
ATOM      4  C   UNL     1       3.383   5.162  17.495  0.00  0.00    +0.000 A 
ATOM      5  N   UNL     1       3.341   3.865  17.088  0.00  0.00    +0.000 N 
ATOM      6  N   UNL     1       2.447   5.796  18.165  0.00  0.00    +0.000 NA
ATOM      7  H   UNL     1       4.149   3.545  16.559  0.00  0.00    +0.000 HD
ENDROOT
BRANCH   1  11
ATOM      8  C   UNL     1       0.258   9.789  20.543  0.00  0.00    +0.000 A 
ATOM      9  C   UNL     1       0.739   8.632  21.156  0.00  0.00    +0.000 A 
ATOM     10  C   UNL     1       1.582   7.756  20.469  0.00  0.00    +0.000 A 
ATOM     11  C   UNL     1       1.962   8.016  19.149  0.00  0.00    +0.000 A 
ATOM     12  C   UNL     1       1.486   9.182  18.534  0.00  0.00    +0.000 A 
ATOM     13  C   UNL     1       0.629  10.053  19.219  0.00  0.00    +0.000 A 
BRANCH   8  17
ATOM     14  C   UNL     1      -1.807  11.847  22.933  0.00  0.00    +0.000 C 
ATOM     15  C   UNL     1      -0.718  10.877  22.562  0.00  0.00    +0.000 C 
ATOM     16  O   UNL     1      -0.048  10.335  23.434  0.00  0.00    +0.000 OA
ATOM     17  N   UNL     1      -0.602  10.700  21.193  0.00  0.00    +0.000 N 
ATOM     18  H   UNL     1      -1.122  11.331  20.598  0.00  0.00    +0.000 HD
ENDBRANCH   8  17
ENDBRANCH   1  11
BRANCH   5  19
ATOM     19  N   UNL     1       2.179   3.187  16.897  0.00  0.00    +0.000 NA
ATOM     20  C   UNL     1       1.684   2.529  17.903  0.00  0.00    +0.000 C 
BRANCH  20  21
ATOM     21  C   UNL     1       2.118   2.527  19.315  0.00  0.00    +0.000 A 
ATOM     22  C   UNL     1       3.412   2.170  19.686  0.00  0.00    +0.000 A 
ATOM     23  C   UNL     1       3.731   2.202  21.030  0.00  0.00    +0.000 A 
ATOM     24  N   UNL     1       2.866   2.586  21.992  0.00  0.00    +0.000 NA
ATOM     25  C   UNL     1       1.633   2.968  21.597  0.00  0.00    +0.000 A 
ATOM     26  C   UNL     1       1.213   2.962  20.279  0.00  0.00    +0.000 A 
ENDBRANCH  20  21
ENDBRANCH   5  19
TORSDOF 4
ENDMDL
MODEL 9
REMARK VINA RESULT:      -7.4      2.759      4.578
REMARK  Name = 
REMARK  5 active torsions:
REMARK  status: ('A' for Active; 'I' for Inactive)
REMARK    1  A    between atoms: C_1  and  C_2
REMARK    2  A    between atoms: N_4  and  C_5
REMARK    3  A    between atoms: C_8  and  C_9
REMARK    4  A    between atoms: N_13  and  N_14
REMARK    5  A    between atoms: C_15  and  C_16
REMARK                            x       y       z     vdW  Elec       q    Type
REMARK                         _______ _______ _______ _____ _____    ______ ____
ROOT
ATOM      1  C   UNL     1       3.059   6.990  18.116  0.00  0.00    +0.000 A 
ATOM      2  C   UNL     1       4.365   7.221  17.723  0.00  0.00    +0.000 A 
ATOM      3  S   UNL     1       5.063   5.780  17.125  0.00  0.00    +0.000 S 
ATOM      4  C   UNL     1       3.575   4.951  17.403  0.00  0.00    +0.000 A 
ATOM      5  N   UNL     1       3.491   3.627  17.104  0.00  0.00    +0.000 N 
ATOM      6  N   UNL     1       2.629   5.686  17.944  0.00  0.00    +0.000 NA
ATOM      7  H   UNL     1       4.316   3.223  16.667  0.00  0.00    +0.000 HD
ENDROOT
BRANCH   1  11
ATOM      8  C   UNL     1       0.497   9.972  19.807  0.00  0.00    +0.000 A 
ATOM      9  C   UNL     1       0.981   8.924  20.590  0.00  0.00    +0.000 A 
ATOM     10  C   UNL     1       1.823   7.952  20.044  0.00  0.00    +0.000 A 
ATOM     11  C   UNL     1       2.198   8.006  18.698  0.00  0.00    +0.000 A 
ATOM     12  C   UNL     1       1.719   9.062  17.912  0.00  0.00    +0.000 A 
ATOM     13  C   UNL     1       0.863  10.028  18.458  0.00  0.00    +0.000 A 
BRANCH   8  17
ATOM     14  C   UNL     1      -1.155  12.880  21.547  0.00  0.00    +0.000 C 
ATOM     15  C   UNL     1       0.018  12.065  21.074  0.00  0.00    +0.000 C 
ATOM     16  O   UNL     1       1.161  12.390  21.376  0.00  0.00    +0.000 OA
ATOM     17  N   UNL     1      -0.362  10.971  20.312  0.00  0.00    +0.000 N 
ATOM     18  H   UNL     1      -1.329  10.922  20.023  0.00  0.00    +0.000 HD
ENDBRANCH   8  17
ENDBRANCH   1  11
BRANCH   5  19
ATOM     19  N   UNL     1       2.310   2.992  16.884  0.00  0.00    +0.000 NA
ATOM     20  C   UNL     1       1.713   2.444  17.900  0.00  0.00    +0.000 C 
BRANCH  20  21
ATOM     21  C   UNL     1       2.050   2.538  19.336  0.00  0.00    +0.000 A 
ATOM     22  C   UNL     1       1.115   2.943  20.286  0.00  0.00    +0.000 A 
ATOM     23  C   UNL     1       1.517   2.996  21.606  0.00  0.00    +0.000 A 
ATOM     24  N   UNL     1       2.753   2.652  22.024  0.00  0.00    +0.000 NA
ATOM     25  C   UNL     1       3.624   2.221  21.085  0.00  0.00    +0.000 A 
ATOM     26  C   UNL     1       3.323   2.141  19.738  0.00  0.00    +0.000 A 
ENDBRANCH  20  21
ENDBRANCH   5  19
TORSDOF 4
ENDMDL
