MODEL 1
REMARK VINA RESULT:      -7.4      0.000      0.000
REMARK  Name = 
REMARK  9 active torsions:
REMARK  status: ('A' for Active; 'I' for Inactive)
REMARK    1  A    between atoms: N_2  and  N_3
REMARK    2  A    between atoms: N_3  and  C_4
REMARK    3  A    between atoms: C_4  and  C_5
REMARK    4  A    between atoms: N_9  and  C_10
REMARK    5  A    between atoms: C_10  and  C_11
REMARK    6  A    between atoms: C_10  and  C_18
REMARK    7  A    between atoms: C_11  and  C_12
REMARK    8  A    between atoms: N_20  and  C_21
REMARK    9  A    between atoms: C_21  and  C_22
REMARK                            x       y       z     vdW  Elec       q    Type
REMARK                         _______ _______ _______ _____ _____    ______ ____
ROOT
ATOM      1  C   UNL     1       6.378   4.231  17.082  0.00  0.00    +0.000 C 
ENDROOT
BRANCH   1   5
ATOM      2  N   UNL     1       3.709   3.565  19.606  0.00  0.00    +0.000 N 
ATOM      3  C   UNL     1       4.495   4.296  18.710  0.00  0.00    +0.000 C 
ATOM      4  O   UNL     1       4.348   5.507  18.527  0.00  0.00    +0.000 OA
ATOM      5  N   UNL     1       5.473   3.597  18.041  0.00  0.00    +0.000 N 
ATOM      6  H   UNL     1       5.407   2.589  17.976  0.00  0.00    +0.000 HD
BRANCH   2   8
ATOM      7  O   UNL     1       4.915   1.872  20.370  0.00  0.00    +0.000 OA
ATOM      8  N   UNL     1       3.902   2.181  19.732  0.00  0.00    +0.000 NA
ENDBRANCH   2   8
BRANCH   2   9
ATOM      9  C   UNL     1       2.741   4.254  20.462  0.00  0.00    +0.000 C 
BRANCH   9  10
ATOM     10  C   UNL     1       1.538   3.395  20.854  0.00  0.00    +0.000 C 
ATOM     11 CL   UNL     1       0.584   2.875  19.441  0.00  0.00    +0.000 Cl
ENDBRANCH   9  10
ENDBRANCH   2   9
ENDBRANCH   1   5
BRANCH   1  12
ATOM     12  C   UNL     1       7.367   5.136  17.849  0.00  0.00    +0.000 C 
ATOM     13  O   UNL     1       8.228   4.678  18.596  0.00  0.00    +0.000 OA
ATOM     14  N   UNL     1       7.243   6.486  17.597  0.00  0.00    +0.000 N 
ATOM     15  H   UNL     1       6.688   6.800  16.812  0.00  0.00    +0.000 HD
BRANCH  14  16
ATOM     16  C   UNL     1       8.105   7.465  18.240  0.00  0.00    +0.000 C 
BRANCH  16  17
ATOM     17  C   UNL     1       7.901   8.885  17.721  0.00  0.00    +0.000 C 
ATOM     18 CL   UNL     1       8.932  10.039  18.614  0.00  0.00    +0.000 Cl
ENDBRANCH  16  17
ENDBRANCH  14  16
ENDBRANCH   1  12
BRANCH   1  19
ATOM     19  C   UNL     1       5.640   4.969  15.952  0.00  0.00    +0.000 C 
BRANCH  19  20
ATOM     20  C   UNL     1       6.093   4.723  14.525  0.00  0.00    +0.000 A 
ATOM     21  C   UNL     1       7.269   5.304  14.027  0.00  0.00    +0.000 A 
ATOM     22  C   UNL     1       7.771   4.935  12.778  0.00  0.00    +0.000 A 
ATOM     23  C   UNL     1       7.099   3.990  12.006  0.00  0.00    +0.000 A 
ATOM     24  C   UNL     1       5.900   3.447  12.463  0.00  0.00    +0.000 A 
ATOM     25  C   UNL     1       5.398   3.815  13.715  0.00  0.00    +0.000 A 
ENDBRANCH  19  20
ENDBRANCH   1  19
TORSDOF 9
ENDMDL
MODEL 2
REMARK VINA RESULT:      -7.1      0.774      1.264
REMARK  Name = 
REMARK  9 active torsions:
REMARK  status: ('A' for Active; 'I' for Inactive)
REMARK    1  A    between atoms: N_2  and  N_3
REMARK    2  A    between atoms: N_3  and  C_4
REMARK    3  A    between atoms: C_4  and  C_5
REMARK    4  A    between atoms: N_9  and  C_10
REMARK    5  A    between atoms: C_10  and  C_11
REMARK    6  A    between atoms: C_10  and  C_18
REMARK    7  A    between atoms: C_11  and  C_12
REMARK    8  A    between atoms: N_20  and  C_21
REMARK    9  A    between atoms: C_21  and  C_22
REMARK                            x       y       z     vdW  Elec       q    Type
REMARK                         _______ _______ _______ _____ _____    ______ ____
ROOT
ATOM      1  C   UNL     1       6.743   4.539  17.309  0.00  0.00    +0.000 C 
ENDROOT
BRANCH   1   5
ATOM      2  N   UNL     1       3.907   3.522  19.513  0.00  0.00    +0.000 N 
ATOM      3  C   UNL     1       4.703   4.359  18.725  0.00  0.00    +0.000 C 
ATOM      4  O   UNL     1       4.451   5.554  18.556  0.00  0.00    +0.000 OA
ATOM      5  N   UNL     1       5.813   3.785  18.149  0.00  0.00    +0.000 N 
ATOM      6  H   UNL     1       5.859   2.778  18.053  0.00  0.00    +0.000 HD
BRANCH   2   8
ATOM      7  O   UNL     1       3.795   1.465  18.701  0.00  0.00    +0.000 OA
ATOM      8  N   UNL     1       4.227   2.161  19.627  0.00  0.00    +0.000 NA
ENDBRANCH   2   8
BRANCH   2   9
ATOM      9  C   UNL     1       2.789   4.081  20.276  0.00  0.00    +0.000 C 
BRANCH   9  10
ATOM     10  C   UNL     1       1.415   3.777  19.674  0.00  0.00    +0.000 C 
ATOM     11 CL   UNL     1       1.371   4.042  17.912  0.00  0.00    +0.000 Cl
ENDBRANCH   9  10
ENDBRANCH   2   9
ENDBRANCH   1   5
BRANCH   1  12
ATOM     12  C   UNL     1       7.510   5.549  18.191  0.00  0.00    +0.000 C 
ATOM     13  O   UNL     1       8.040   5.222  19.250  0.00  0.00    +0.000 OA
ATOM     14  N   UNL     1       7.596   6.827  17.681  0.00  0.00    +0.000 N 
ATOM     15  H   UNL     1       7.353   6.998  16.714  0.00  0.00    +0.000 HD
BRANCH  14  16
ATOM     16  C   UNL     1       8.289   7.888  18.393  0.00  0.00    +0.000 C 
BRANCH  16  17
ATOM     17  C   UNL     1       7.985   9.282  17.851  0.00  0.00    +0.000 C 
ATOM     18 CL   UNL     1       9.235  10.448  18.366  0.00  0.00    +0.000 Cl
ENDBRANCH  16  17
ENDBRANCH  14  16
ENDBRANCH   1  12
BRANCH   1  19
ATOM     19  C   UNL     1       6.063   5.197  16.096  0.00  0.00    +0.000 C 
BRANCH  19  20
ATOM     20  C   UNL     1       6.485   4.743  14.710  0.00  0.00    +0.000 A 
ATOM     21  C   UNL     1       5.786   3.731  14.035  0.00  0.00    +0.000 A 
ATOM     22  C   UNL     1       6.067   3.443  12.698  0.00  0.00    +0.000 A 
ATOM     23  C   UNL     1       7.057   4.154  12.023  0.00  0.00    +0.000 A 
ATOM     24  C   UNL     1       7.798   5.122  12.698  0.00  0.00    +0.000 A 
ATOM     25  C   UNL     1       7.515   5.412  14.036  0.00  0.00    +0.000 A 
ENDBRANCH  19  20
ENDBRANCH   1  19
TORSDOF 9
ENDMDL
MODEL 3
REMARK VINA RESULT:      -7.1      2.653      4.751
REMARK  Name = 
REMARK  9 active torsions:
REMARK  status: ('A' for Active; 'I' for Inactive)
REMARK    1  A    between atoms: N_2  and  N_3
REMARK    2  A    between atoms: N_3  and  C_4
REMARK    3  A    between atoms: C_4  and  C_5
REMARK    4  A    between atoms: N_9  and  C_10
REMARK    5  A    between atoms: C_10  and  C_11
REMARK    6  A    between atoms: C_10  and  C_18
REMARK    7  A    between atoms: C_11  and  C_12
REMARK    8  A    between atoms: N_20  and  C_21
REMARK    9  A    between atoms: C_21  and  C_22
REMARK                            x       y       z     vdW  Elec       q    Type
REMARK                         _______ _______ _______ _____ _____    ______ ____
ROOT
ATOM      1  C   UNL     1       4.463   4.655  16.299  0.00  0.00    +0.000 C 
ENDROOT
BRANCH   1   5
ATOM      2  N   UNL     1       2.874   2.367  18.783  0.00  0.00    +0.000 N 
ATOM      3  C   UNL     1       2.957   3.313  17.757  0.00  0.00    +0.000 C 
ATOM      4  O   UNL     1       1.961   3.828  17.243  0.00  0.00    +0.000 OA
ATOM      5  N   UNL     1       4.222   3.669  17.352  0.00  0.00    +0.000 N 
ATOM      6  H   UNL     1       5.002   3.059  17.564  0.00  0.00    +0.000 HD
BRANCH   2   8
ATOM      7  O   UNL     1       4.764   2.579  19.918  0.00  0.00    +0.000 OA
ATOM      8  N   UNL     1       4.046   1.789  19.294  0.00  0.00    +0.000 NA
ENDBRANCH   2   8
BRANCH   2   9
ATOM      9  C   UNL     1       1.574   2.036  19.371  0.00  0.00    +0.000 C 
BRANCH   9  10
ATOM     10  C   UNL     1       1.256   2.814  20.649  0.00  0.00    +0.000 C 
ATOM     11 CL   UNL     1       2.104   4.380  20.721  0.00  0.00    +0.000 Cl
ENDBRANCH   9  10
ENDBRANCH   2   9
ENDBRANCH   1   5
BRANCH   1  12
ATOM     12  C   UNL     1       5.612   4.153  15.395  0.00  0.00    +0.000 C 
ATOM     13  O   UNL     1       6.629   3.641  15.855  0.00  0.00    +0.000 OA
ATOM     14  N   UNL     1       5.391   4.281  14.040  0.00  0.00    +0.000 N 
ATOM     15  H   UNL     1       4.460   4.490  13.702  0.00  0.00    +0.000 HD
BRANCH  14  16
ATOM     16  C   UNL     1       6.376   3.851  13.062  0.00  0.00    +0.000 C 
BRANCH  16  17
ATOM     17  C   UNL     1       5.829   2.847  12.051  0.00  0.00    +0.000 C 
ATOM     18 CL   UNL     1       4.201   3.330  11.498  0.00  0.00    +0.000 Cl
ENDBRANCH  16  17
ENDBRANCH  14  16
ENDBRANCH   1  12
BRANCH   1  19
ATOM     19  C   UNL     1       4.703   6.074  16.842  0.00  0.00    +0.000 C 
BRANCH  19  20
ATOM     20  C   UNL     1       6.049   6.379  17.472  0.00  0.00    +0.000 A 
ATOM     21  C   UNL     1       6.790   7.507  17.088  0.00  0.00    +0.000 A 
ATOM     22  C   UNL     1       7.938   7.878  17.791  0.00  0.00    +0.000 A 
ATOM     23  C   UNL     1       8.367   7.119  18.878  0.00  0.00    +0.000 A 
ATOM     24  C   UNL     1       7.673   5.964  19.234  0.00  0.00    +0.000 A 
ATOM     25  C   UNL     1       6.523   5.594  18.532  0.00  0.00    +0.000 A 
ENDBRANCH  19  20
ENDBRANCH   1  19
TORSDOF 9
ENDMDL
MODEL 4
REMARK VINA RESULT:      -7.1      3.851      7.094
REMARK  Name = 
REMARK  9 active torsions:
REMARK  status: ('A' for Active; 'I' for Inactive)
REMARK    1  A    between atoms: N_2  and  N_3
REMARK    2  A    between atoms: N_3  and  C_4
REMARK    3  A    between atoms: C_4  and  C_5
REMARK    4  A    between atoms: N_9  and  C_10
REMARK    5  A    between atoms: C_10  and  C_11
REMARK    6  A    between atoms: C_10  and  C_18
REMARK    7  A    between atoms: C_11  and  C_12
REMARK    8  A    between atoms: N_20  and  C_21
REMARK    9  A    between atoms: C_21  and  C_22
REMARK                            x       y       z     vdW  Elec       q    Type
REMARK                         _______ _______ _______ _____ _____    ______ ____
ROOT
ATOM      1  C   UNL     1       2.959   6.805  18.256  0.00  0.00    +0.000 C 
ENDROOT
BRANCH   1   5
ATOM      2  N   UNL     1       6.145   5.931  16.518  0.00  0.00    +0.000 N 
ATOM      3  C   UNL     1       4.844   5.767  17.004  0.00  0.00    +0.000 C 
ATOM      4  O   UNL     1       4.205   4.722  16.860  0.00  0.00    +0.000 OA
ATOM      5  N   UNL     1       4.304   6.836  17.681  0.00  0.00    +0.000 N 
ATOM      6  H   UNL     1       4.701   7.758  17.553  0.00  0.00    +0.000 HD
BRANCH   2   8
ATOM      7  O   UNL     1       7.438   7.257  17.732  0.00  0.00    +0.000 OA
ATOM      8  N   UNL     1       6.798   7.163  16.678  0.00  0.00    +0.000 NA
ENDBRANCH   2   8
BRANCH   2   9
ATOM      9  C   UNL     1       6.848   4.799  15.910  0.00  0.00    +0.000 C 
BRANCH   9  10
ATOM     10  C   UNL     1       7.025   4.921  14.395  0.00  0.00    +0.000 C 
ATOM     11 CL   UNL     1       5.999   3.774  13.496  0.00  0.00    +0.000 Cl
ENDBRANCH   9  10
ENDBRANCH   2   9
ENDBRANCH   1   5
BRANCH   1  12
ATOM     12  C   UNL     1       2.333   8.212  18.144  0.00  0.00    +0.000 C 
ATOM     13  O   UNL     1       2.480   8.916  17.149  0.00  0.00    +0.000 OA
ATOM     14  N   UNL     1       1.563   8.599  19.221  0.00  0.00    +0.000 N 
ATOM     15  H   UNL     1       1.280   7.911  19.907  0.00  0.00    +0.000 HD
BRANCH  14  16
ATOM     16  C   UNL     1       0.905   9.894  19.263  0.00  0.00    +0.000 C 
BRANCH  16  17
ATOM     17  C   UNL     1       0.778  10.465  20.672  0.00  0.00    +0.000 C 
ATOM     18 CL   UNL     1      -0.760  11.354  20.859  0.00  0.00    +0.000 Cl
ENDBRANCH  16  17
ENDBRANCH  14  16
ENDBRANCH   1  12
BRANCH   1  19
ATOM     19  C   UNL     1       2.927   6.244  19.688  0.00  0.00    +0.000 C 
BRANCH  19  20
ATOM     20  C   UNL     1       2.184   4.943  19.927  0.00  0.00    +0.000 A 
ATOM     21  C   UNL     1       1.561   4.259  18.872  0.00  0.00    +0.000 A 
ATOM     22  C   UNL     1       1.034   2.980  19.066  0.00  0.00    +0.000 A 
ATOM     23  C   UNL     1       1.112   2.374  20.319  0.00  0.00    +0.000 A 
ATOM     24  C   UNL     1       1.677   3.066  21.388  0.00  0.00    +0.000 A 
ATOM     25  C   UNL     1       2.206   4.344  21.194  0.00  0.00    +0.000 A 
ENDBRANCH  19  20
ENDBRANCH   1  19
TORSDOF 9
ENDMDL
MODEL 5
REMARK VINA RESULT:      -7.1      1.006      1.013
REMARK  Name = 
REMARK  9 active torsions:
REMARK  status: ('A' for Active; 'I' for Inactive)
REMARK    1  A    between atoms: N_2  and  N_3
REMARK    2  A    between atoms: N_3  and  C_4
REMARK    3  A    between atoms: C_4  and  C_5
REMARK    4  A    between atoms: N_9  and  C_10
REMARK    5  A    between atoms: C_10  and  C_11
REMARK    6  A    between atoms: C_10  and  C_18
REMARK    7  A    between atoms: C_11  and  C_12
REMARK    8  A    between atoms: N_20  and  C_21
REMARK    9  A    between atoms: C_21  and  C_22
REMARK                            x       y       z     vdW  Elec       q    Type
REMARK                         _______ _______ _______ _____ _____    ______ ____
ROOT
ATOM      1  C   UNL     1       6.565   4.487  16.841  0.00  0.00    +0.000 C 
ENDROOT
BRANCH   1   5
ATOM      2  N   UNL     1       3.499   3.656  18.802  0.00  0.00    +0.000 N 
ATOM      3  C   UNL     1       4.455   4.451  18.161  0.00  0.00    +0.000 C 
ATOM      4  O   UNL     1       4.404   5.683  18.158  0.00  0.00    +0.000 OA
ATOM      5  N   UNL     1       5.487   3.787  17.540  0.00  0.00    +0.000 N 
ATOM      6  H   UNL     1       5.378   2.809  17.303  0.00  0.00    +0.000 HD
BRANCH   2   8
ATOM      7  O   UNL     1       2.950   1.760  17.799  0.00  0.00    +0.000 OA
ATOM      8  N   UNL     1       3.594   2.258  18.729  0.00  0.00    +0.000 NA
ENDBRANCH   2   8
BRANCH   2   9
ATOM      9  C   UNL     1       2.447   4.281  19.606  0.00  0.00    +0.000 C 
BRANCH   9  10
ATOM     10  C   UNL     1       2.562   3.999  21.105  0.00  0.00    +0.000 C 
ATOM     11 CL   UNL     1       1.563   2.614  21.615  0.00  0.00    +0.000 Cl
ENDBRANCH   9  10
ENDBRANCH   2   9
ENDBRANCH   1   5
BRANCH   1  12
ATOM     12  C   UNL     1       7.391   5.292  17.868  0.00  0.00    +0.000 C 
ATOM     13  O   UNL     1       7.973   4.752  18.805  0.00  0.00    +0.000 OA
ATOM     14  N   UNL     1       7.463   6.648  17.630  0.00  0.00    +0.000 N 
ATOM     15  H   UNL     1       7.169   7.016  16.735  0.00  0.00    +0.000 HD
BRANCH  14  16
ATOM     16  C   UNL     1       8.206   7.538  18.507  0.00  0.00    +0.000 C 
BRANCH  16  17
ATOM     17  C   UNL     1       8.228   8.985  18.024  0.00  0.00    +0.000 C 
ATOM     18 CL   UNL     1       9.225   9.999  19.105  0.00  0.00    +0.000 Cl
ENDBRANCH  16  17
ENDBRANCH  14  16
ENDBRANCH   1  12
BRANCH   1  19
ATOM     19  C   UNL     1       6.065   5.346  15.666  0.00  0.00    +0.000 C 
BRANCH  19  20
ATOM     20  C   UNL     1       6.293   4.830  14.258  0.00  0.00    +0.000 A 
ATOM     21  C   UNL     1       7.423   5.212  13.519  0.00  0.00    +0.000 A 
ATOM     22  C   UNL     1       7.716   4.599  12.300  0.00  0.00    +0.000 A 
ATOM     23  C   UNL     1       6.878   3.606  11.797  0.00  0.00    +0.000 A 
ATOM     24  C   UNL     1       5.722   3.258  12.492  0.00  0.00    +0.000 A 
ATOM     25  C   UNL     1       5.429   3.869  13.714  0.00  0.00    +0.000 A 
ENDBRANCH  19  20
ENDBRANCH   1  19
TORSDOF 9
ENDMDL
MODEL 6
REMARK VINA RESULT:      -7.0      3.679      7.002
REMARK  Name = 
REMARK  9 active torsions:
REMARK  status: ('A' for Active; 'I' for Inactive)
REMARK    1  A    between atoms: N_2  and  N_3
REMARK    2  A    between atoms: N_3  and  C_4
REMARK    3  A    between atoms: C_4  and  C_5
REMARK    4  A    between atoms: N_9  and  C_10
REMARK    5  A    between atoms: C_10  and  C_11
REMARK    6  A    between atoms: C_10  and  C_18
REMARK    7  A    between atoms: C_11  and  C_12
REMARK    8  A    between atoms: N_20  and  C_21
REMARK    9  A    between atoms: C_21  and  C_22
REMARK                            x       y       z     vdW  Elec       q    Type
REMARK                         _______ _______ _______ _____ _____    ______ ____
ROOT
ATOM      1  C   UNL     1       3.327   6.600  18.085  0.00  0.00    +0.000 C 
ENDROOT
BRANCH   1   5
ATOM      2  N   UNL     1       6.489   5.725  16.305  0.00  0.00    +0.000 N 
ATOM      3  C   UNL     1       5.163   5.604  16.731  0.00  0.00    +0.000 C 
ATOM      4  O   UNL     1       4.445   4.652  16.414  0.00  0.00    +0.000 OA
ATOM      5  N   UNL     1       4.689   6.600  17.553  0.00  0.00    +0.000 N 
ATOM      6  H   UNL     1       5.166   7.493  17.576  0.00  0.00    +0.000 HD
BRANCH   2   8
ATOM      7  O   UNL     1       7.610   6.853  17.847  0.00  0.00    +0.000 OA
ATOM      8  N   UNL     1       7.236   6.856  16.668  0.00  0.00    +0.000 NA
ENDBRANCH   2   8
BRANCH   2   9
ATOM      9  C   UNL     1       7.117   4.641  15.546  0.00  0.00    +0.000 C 
BRANCH   9  10
ATOM     10  C   UNL     1       7.098   4.854  14.032  0.00  0.00    +0.000 C 
ATOM     11 CL   UNL     1       6.083   3.655  13.190  0.00  0.00    +0.000 Cl
ENDBRANCH   9  10
ENDBRANCH   2   9
ENDBRANCH   1   5
BRANCH   1  12
ATOM     12  C   UNL     1       2.735   8.021  17.948  0.00  0.00    +0.000 C 
ATOM     13  O   UNL     1       2.954   8.729  16.969  0.00  0.00    +0.000 OA
ATOM     14  N   UNL     1       1.909   8.414  18.980  0.00  0.00    +0.000 N 
ATOM     15  H   UNL     1       1.573   7.727  19.642  0.00  0.00    +0.000 HD
BRANCH  14  16
ATOM     16  C   UNL     1       1.274   9.721  18.994  0.00  0.00    +0.000 C 
BRANCH  16  17
ATOM     17  C   UNL     1       0.050   9.791  19.903  0.00  0.00    +0.000 C 
ATOM     18 CL   UNL     1      -1.350  10.473  19.030  0.00  0.00    +0.000 Cl
ENDBRANCH  16  17
ENDBRANCH  14  16
ENDBRANCH   1  12
BRANCH   1  19
ATOM     19  C   UNL     1       3.238   6.047  19.517  0.00  0.00    +0.000 C 
BRANCH  19  20
ATOM     20  C   UNL     1       2.505   4.736  19.731  0.00  0.00    +0.000 A 
ATOM     21  C   UNL     1       2.358   4.189  21.015  0.00  0.00    +0.000 A 
ATOM     22  C   UNL     1       1.535   3.081  21.226  0.00  0.00    +0.000 A 
ATOM     23  C   UNL     1       0.857   2.499  20.156  0.00  0.00    +0.000 A 
ATOM     24  C   UNL     1       1.039   2.998  18.868  0.00  0.00    +0.000 A 
ATOM     25  C   UNL     1       1.861   4.108  18.657  0.00  0.00    +0.000 A 
ENDBRANCH  19  20
ENDBRANCH   1  19
TORSDOF 9
ENDMDL
MODEL 7
REMARK VINA RESULT:      -6.9      3.675      5.027
REMARK  Name = 
REMARK  9 active torsions:
REMARK  status: ('A' for Active; 'I' for Inactive)
REMARK    1  A    between atoms: N_2  and  N_3
REMARK    2  A    between atoms: N_3  and  C_4
REMARK    3  A    between atoms: C_4  and  C_5
REMARK    4  A    between atoms: N_9  and  C_10
REMARK    5  A    between atoms: C_10  and  C_11
REMARK    6  A    between atoms: C_10  and  C_18
REMARK    7  A    between atoms: C_11  and  C_12
REMARK    8  A    between atoms: N_20  and  C_21
REMARK    9  A    between atoms: C_21  and  C_22
REMARK                            x       y       z     vdW  Elec       q    Type
REMARK                         _______ _______ _______ _____ _____    ______ ____
ROOT
ATOM      1  C   UNL     1       3.240   7.298  18.182  0.00  0.00    +0.000 C 
ENDROOT
BRANCH   1   5
ATOM      2  N   UNL     1       1.360   4.118  18.716  0.00  0.00    +0.000 N 
ATOM      3  C   UNL     1       2.007   5.313  19.042  0.00  0.00    +0.000 C 
ATOM      4  O   UNL     1       2.133   5.709  20.203  0.00  0.00    +0.000 OA
ATOM      5  N   UNL     1       2.527   6.035  17.992  0.00  0.00    +0.000 N 
ATOM      6  H   UNL     1       2.184   5.865  17.055  0.00  0.00    +0.000 HD
BRANCH   2   8
ATOM      7  O   UNL     1       2.242   3.289  16.862  0.00  0.00    +0.000 OA
ATOM      8  N   UNL     1       1.214   3.749  17.370  0.00  0.00    +0.000 NA
ENDBRANCH   2   8
BRANCH   2   9
ATOM      9  C   UNL     1       0.902   3.219  19.778  0.00  0.00    +0.000 C 
BRANCH   9  10
ATOM     10  C   UNL     1       1.946   2.188  20.210  0.00  0.00    +0.000 C 
ATOM     11 CL   UNL     1       2.730   2.618  21.752  0.00  0.00    +0.000 Cl
ENDBRANCH   9  10
ENDBRANCH   2   9
ENDBRANCH   1   5
BRANCH   1  12
ATOM     12  C   UNL     1       2.209   8.439  18.330  0.00  0.00    +0.000 C 
ATOM     13  O   UNL     1       1.852   9.125  17.377  0.00  0.00    +0.000 OA
ATOM     14  N   UNL     1       1.689   8.598  19.598  0.00  0.00    +0.000 N 
ATOM     15  H   UNL     1       1.832   7.876  20.292  0.00  0.00    +0.000 HD
BRANCH  14  16
ATOM     16  C   UNL     1       0.706   9.627  19.895  0.00  0.00    +0.000 C 
BRANCH  16  17
ATOM     17  C   UNL     1       0.649  10.001  21.373  0.00  0.00    +0.000 C 
ATOM     18 CL   UNL     1      -0.456   8.913  22.260  0.00  0.00    +0.000 Cl
ENDBRANCH  16  17
ENDBRANCH  14  16
ENDBRANCH   1  12
BRANCH   1  19
ATOM     19  C   UNL     1       4.286   7.571  17.087  0.00  0.00    +0.000 C 
BRANCH  19  20
ATOM     20  C   UNL     1       5.365   6.530  16.856  0.00  0.00    +0.000 A 
ATOM     21  C   UNL     1       6.318   6.242  17.846  0.00  0.00    +0.000 A 
ATOM     22  C   UNL     1       7.194   5.166  17.697  0.00  0.00    +0.000 A 
ATOM     23  C   UNL     1       7.138   4.371  16.554  0.00  0.00    +0.000 A 
ATOM     24  C   UNL     1       6.236   4.681  15.538  0.00  0.00    +0.000 A 
ATOM     25  C   UNL     1       5.358   5.757  15.687  0.00  0.00    +0.000 A 
ENDBRANCH  19  20
ENDBRANCH   1  19
TORSDOF 9
ENDMDL
MODEL 8
REMARK VINA RESULT:      -6.8      3.429      6.880
REMARK  Name = 
REMARK  9 active torsions:
REMARK  status: ('A' for Active; 'I' for Inactive)
REMARK    1  A    between atoms: N_2  and  N_3
REMARK    2  A    between atoms: N_3  and  C_4
REMARK    3  A    between atoms: C_4  and  C_5
REMARK    4  A    between atoms: N_9  and  C_10
REMARK    5  A    between atoms: C_10  and  C_11
REMARK    6  A    between atoms: C_10  and  C_18
REMARK    7  A    between atoms: C_11  and  C_12
REMARK    8  A    between atoms: N_20  and  C_21
REMARK    9  A    between atoms: C_21  and  C_22
REMARK                            x       y       z     vdW  Elec       q    Type
REMARK                         _______ _______ _______ _____ _____    ______ ____
ROOT
ATOM      1  C   UNL     1       2.562   6.440  18.298  0.00  0.00    +0.000 C 
ENDROOT
BRANCH   1   5
ATOM      2  N   UNL     1       6.236   5.784  18.300  0.00  0.00    +0.000 N 
ATOM      3  C   UNL     1       4.989   6.181  17.809  0.00  0.00    +0.000 C 
ATOM      4  O   UNL     1       4.824   6.590  16.657  0.00  0.00    +0.000 OA
ATOM      5  N   UNL     1       3.926   6.074  18.676  0.00  0.00    +0.000 N 
ATOM      6  H   UNL     1       4.101   6.015  19.672  0.00  0.00    +0.000 HD
BRANCH   2   8
ATOM      7  O   UNL     1       7.511   5.443  20.078  0.00  0.00    +0.000 OA
ATOM      8  N   UNL     1       6.359   5.369  19.635  0.00  0.00    +0.000 NA
ENDBRANCH   2   8
BRANCH   2   9
ATOM      9  C   UNL     1       7.393   5.731  17.403  0.00  0.00    +0.000 C 
BRANCH   9  10
ATOM     10  C   UNL     1       7.467   4.456  16.561  0.00  0.00    +0.000 C 
ATOM     11 CL   UNL     1       7.070   4.748  14.848  0.00  0.00    +0.000 Cl
ENDBRANCH   9  10
ENDBRANCH   2   9
ENDBRANCH   1   5
BRANCH   1  12
ATOM     12  C   UNL     1       2.133   7.683  19.110  0.00  0.00    +0.000 C 
ATOM     13  O   UNL     1       1.978   8.783  18.588  0.00  0.00    +0.000 OA
ATOM     14  N   UNL     1       1.893   7.455  20.449  0.00  0.00    +0.000 N 
ATOM     15  H   UNL     1       1.807   6.506  20.788  0.00  0.00    +0.000 HD
BRANCH  14  16
ATOM     16  C   UNL     1       1.479   8.524  21.343  0.00  0.00    +0.000 C 
BRANCH  16  17
ATOM     17  C   UNL     1      -0.031   8.580  21.561  0.00  0.00    +0.000 C 
ATOM     18 CL   UNL     1      -0.422   9.501  23.040  0.00  0.00    +0.000 Cl
ENDBRANCH  16  17
ENDBRANCH  14  16
ENDBRANCH   1  12
BRANCH   1  19
ATOM     19  C   UNL     1       1.567   5.272  18.417  0.00  0.00    +0.000 C 
BRANCH  19  20
ATOM     20  C   UNL     1       1.872   4.176  19.421  0.00  0.00    +0.000 A 
ATOM     21  C   UNL     1       3.034   3.396  19.312  0.00  0.00    +0.000 A 
ATOM     22  C   UNL     1       3.396   2.514  20.331  0.00  0.00    +0.000 A 
ATOM     23  C   UNL     1       2.596   2.390  21.466  0.00  0.00    +0.000 A 
ATOM     24  C   UNL     1       1.411   3.115  21.560  0.00  0.00    +0.000 A 
ATOM     25  C   UNL     1       1.049   4.000  20.541  0.00  0.00    +0.000 A 
ENDBRANCH  19  20
ENDBRANCH   1  19
TORSDOF 9
ENDMDL
MODEL 9
REMARK VINA RESULT:      -6.8      3.462      7.053
REMARK  Name = 
REMARK  9 active torsions:
REMARK  status: ('A' for Active; 'I' for Inactive)
REMARK    1  A    between atoms: N_2  and  N_3
REMARK    2  A    between atoms: N_3  and  C_4
REMARK    3  A    between atoms: C_4  and  C_5
REMARK    4  A    between atoms: N_9  and  C_10
REMARK    5  A    between atoms: C_10  and  C_11
REMARK    6  A    between atoms: C_10  and  C_18
REMARK    7  A    between atoms: C_11  and  C_12
REMARK    8  A    between atoms: N_20  and  C_21
REMARK    9  A    between atoms: C_21  and  C_22
REMARK                            x       y       z     vdW  Elec       q    Type
REMARK                         _______ _______ _______ _____ _____    ______ ____
ROOT
ATOM      1  C   UNL     1       4.419   5.928  18.292  0.00  0.00    +0.000 C 
ENDROOT
BRANCH   1   5
ATOM      2  N   UNL     1       6.181   4.759  15.217  0.00  0.00    +0.000 N 
ATOM      3  C   UNL     1       5.236   4.768  16.247  0.00  0.00    +0.000 C 
ATOM      4  O   UNL     1       4.367   3.900  16.364  0.00  0.00    +0.000 OA
ATOM      5  N   UNL     1       5.331   5.796  17.156  0.00  0.00    +0.000 N 
ATOM      6  H   UNL     1       5.840   6.634  16.907  0.00  0.00    +0.000 HD
BRANCH   2   8
ATOM      7  O   UNL     1       7.744   6.010  16.162  0.00  0.00    +0.000 OA
ATOM      8  N   UNL     1       7.115   5.801  15.119  0.00  0.00    +0.000 NA
ENDBRANCH   2   8
BRANCH   2   9
ATOM      9  C   UNL     1       6.242   3.627  14.289  0.00  0.00    +0.000 C 
BRANCH   9  10
ATOM     10  C   UNL     1       5.412   3.821  13.019  0.00  0.00    +0.000 C 
ATOM     11 CL   UNL     1       5.734   2.564  11.797  0.00  0.00    +0.000 Cl
ENDBRANCH   9  10
ENDBRANCH   2   9
ENDBRANCH   1   5
BRANCH   1  12
ATOM     12  C   UNL     1       4.562   4.685  19.198  0.00  0.00    +0.000 C 
ATOM     13  O   UNL     1       5.639   4.349  19.682  0.00  0.00    +0.000 OA
ATOM     14  N   UNL     1       3.387   4.012  19.459  0.00  0.00    +0.000 N 
ATOM     15  H   UNL     1       2.501   4.446  19.238  0.00  0.00    +0.000 HD
BRANCH  14  16
ATOM     16  C   UNL     1       3.358   2.825  20.298  0.00  0.00    +0.000 C 
BRANCH  16  17
ATOM     17  C   UNL     1       1.978   2.525  20.877  0.00  0.00    +0.000 C 
ATOM     18 CL   UNL     1       0.830   3.838  20.490  0.00  0.00    +0.000 Cl
ENDBRANCH  16  17
ENDBRANCH  14  16
ENDBRANCH   1  12
BRANCH   1  19
ATOM     19  C   UNL     1       2.965   6.201  17.871  0.00  0.00    +0.000 C 
BRANCH  19  20
ATOM     20  C   UNL     1       2.221   7.328  18.563  0.00  0.00    +0.000 A 
ATOM     21  C   UNL     1       1.969   7.290  19.943  0.00  0.00    +0.000 A 
ATOM     22  C   UNL     1       1.445   8.404  20.601  0.00  0.00    +0.000 A 
ATOM     23  C   UNL     1       1.155   9.566  19.888  0.00  0.00    +0.000 A 
ATOM     24  C   UNL     1       1.347   9.597  18.508  0.00  0.00    +0.000 A 
ATOM     25  C   UNL     1       1.874   8.483  17.849  0.00  0.00    +0.000 A 
ENDBRANCH  19  20
ENDBRANCH   1  19
TORSDOF 9
ENDMDL
