MODEL 1
REMARK VINA RESULT:      -8.1      0.000      0.000
REMARK  Name = 
REMARK  6 active torsions:
REMARK  status: ('A' for Active; 'I' for Inactive)
REMARK    1  A    between atoms: C_1  and  C_2
REMARK    2  A    between atoms: C_2  and  C_3
REMARK    3  A    between atoms: C_3  and  O_4
REMARK    4  A    between atoms: C_3  and  C_11
REMARK    5  A    between atoms: O_4  and  C_5
REMARK    6  A    between atoms: N_20  and  C_21
REMARK                            x       y       z     vdW  Elec       q    Type
REMARK                         _______ _______ _______ _____ _____    ______ ____
ROOT
ATOM      1  C   UNL     1       5.514   5.696  17.551  0.00  0.00    +0.000 A 
ATOM      2  N   UNL     1       5.684   4.477  18.055  0.00  0.00    +0.000 NA
ATOM      3  C   UNL     1       4.792   4.136  18.970  0.00  0.00    +0.000 A 
ATOM      4  N   UNL     1       4.916   2.881  19.530  0.00  0.00    +0.000 N 
ATOM      5  N   UNL     1       3.780   4.889  19.374  0.00  0.00    +0.000 NA
ATOM      6  C   UNL     1       3.672   6.088  18.812  0.00  0.00    +0.000 A 
ATOM      7  N   UNL     1       2.724   6.973  19.272  0.00  0.00    +0.000 N 
ATOM      8  C   UNL     1       2.165   7.949  18.335  0.00  0.00    +0.000 C 
ATOM      9  C   UNL     1       1.651   9.179  19.120  0.00  0.00    +0.000 C 
ATOM     10  N   UNL     1       0.705   8.825  20.207  0.00  0.00    +0.000 NA
ATOM     11  C   UNL     1       0.343  10.017  20.972  0.00  0.00    +0.000 C 
ATOM     12  C   UNL     1       1.329   7.815  21.095  0.00  0.00    +0.000 C 
ATOM     13  C   UNL     1       1.810   6.558  20.332  0.00  0.00    +0.000 C 
ATOM     14  N   UNL     1       4.508   6.510  17.874  0.00  0.00    +0.000 NA
ATOM     15  H   UNL     1       5.441   2.275  18.912  0.00  0.00    +0.000 HD
ATOM     16  H   UNL     1       4.017   2.551  19.854  0.00  0.00    +0.000 HD
ENDROOT
BRANCH   1  17
ATOM     17  C   UNL     1       6.547   6.207  16.556  0.00  0.00    +0.000 C 
BRANCH  17  19
ATOM     18  C   UNL     1       7.986   6.621  18.638  0.00  0.00    +0.000 C 
ATOM     19  C   UNL     1       7.545   7.142  17.275  0.00  0.00    +0.000 C 
ENDBRANCH  17  19
BRANCH  17  20
ATOM     20  O   UNL     1       7.209   5.038  16.019  0.00  0.00    +0.000 OA
BRANCH  20  21
ATOM     21  C   UNL     1       7.043   4.785  14.685  0.00  0.00    +0.000 A 
ATOM     22  C   UNL     1       7.820   5.365  13.687  0.00  0.00    +0.000 A 
ATOM     23  C   UNL     1       7.670   4.982  12.359  0.00  0.00    +0.000 A 
ATOM     24  C   UNL     1       6.730   4.014  12.015  0.00  0.00    +0.000 A 
ATOM     25  C   UNL     1       5.931   3.441  13.003  0.00  0.00    +0.000 A 
ATOM     26  C   UNL     1       6.088   3.822  14.340  0.00  0.00    +0.000 A 
ENDBRANCH  20  21
ENDBRANCH  17  20
ENDBRANCH   1  17
TORSDOF 4
ENDMDL
MODEL 2
REMARK VINA RESULT:      -7.5      0.551      1.115
REMARK  Name = 
REMARK  6 active torsions:
REMARK  status: ('A' for Active; 'I' for Inactive)
REMARK    1  A    between atoms: C_1  and  C_2
REMARK    2  A    between atoms: C_2  and  C_3
REMARK    3  A    between atoms: C_3  and  O_4
REMARK    4  A    between atoms: C_3  and  C_11
REMARK    5  A    between atoms: O_4  and  C_5
REMARK    6  A    between atoms: N_20  and  C_21
REMARK                            x       y       z     vdW  Elec       q    Type
REMARK                         _______ _______ _______ _____ _____    ______ ____
ROOT
ATOM      1  C   UNL     1       4.880   5.692  17.553  0.00  0.00    +0.000 A 
ATOM      2  N   UNL     1       4.987   4.477  18.086  0.00  0.00    +0.000 NA
ATOM      3  C   UNL     1       4.144   4.241  19.076  0.00  0.00    +0.000 A 
ATOM      4  N   UNL     1       4.206   2.996  19.669  0.00  0.00    +0.000 N 
ATOM      5  N   UNL     1       3.232   5.089  19.528  0.00  0.00    +0.000 NA
ATOM      6  C   UNL     1       3.181   6.276  18.934  0.00  0.00    +0.000 A 
ATOM      7  N   UNL     1       2.348   7.252  19.432  0.00  0.00    +0.000 N 
ATOM      8  C   UNL     1       1.801   8.244  18.505  0.00  0.00    +0.000 C 
ATOM      9  C   UNL     1       1.454   9.536  19.283  0.00  0.00    +0.000 C 
ATOM     10  N   UNL     1       0.569   9.295  20.450  0.00  0.00    +0.000 NA
ATOM     11  C   UNL     1       0.367  10.535  21.197  0.00  0.00    +0.000 C 
ATOM     12  C   UNL     1       1.174   8.261  21.323  0.00  0.00    +0.000 C 
ATOM     13  C   UNL     1       1.488   6.947  20.571  0.00  0.00    +0.000 C 
ATOM     14  N   UNL     1       3.974   6.598  17.922  0.00  0.00    +0.000 NA
ATOM     15  H   UNL     1       4.630   2.330  19.035  0.00  0.00    +0.000 HD
ATOM     16  H   UNL     1       3.311   2.754  20.071  0.00  0.00    +0.000 HD
ENDROOT
BRANCH   1  17
ATOM     17  C   UNL     1       5.872   6.083  16.465  0.00  0.00    +0.000 C 
BRANCH  17  19
ATOM     18  C   UNL     1       7.741   6.706  18.108  0.00  0.00    +0.000 C 
ATOM     19  C   UNL     1       6.816   7.185  16.995  0.00  0.00    +0.000 C 
ENDBRANCH  17  19
BRANCH  17  20
ATOM     20  O   UNL     1       6.600   4.881  16.124  0.00  0.00    +0.000 OA
BRANCH  20  21
ATOM     21  C   UNL     1       6.715   4.577  14.796  0.00  0.00    +0.000 A 
ATOM     22  C   UNL     1       5.871   3.694  14.131  0.00  0.00    +0.000 A 
ATOM     23  C   UNL     1       5.977   3.512  12.755  0.00  0.00    +0.000 A 
ATOM     24  C   UNL     1       6.939   4.212  12.032  0.00  0.00    +0.000 A 
ATOM     25  C   UNL     1       7.803   5.084  12.691  0.00  0.00    +0.000 A 
ATOM     26  C   UNL     1       7.692   5.271  14.073  0.00  0.00    +0.000 A 
ENDBRANCH  20  21
ENDBRANCH  17  20
ENDBRANCH   1  17
TORSDOF 4
ENDMDL
MODEL 3
REMARK VINA RESULT:      -7.2      1.120      1.233
REMARK  Name = 
REMARK  6 active torsions:
REMARK  status: ('A' for Active; 'I' for Inactive)
REMARK    1  A    between atoms: C_1  and  C_2
REMARK    2  A    between atoms: C_2  and  C_3
REMARK    3  A    between atoms: C_3  and  O_4
REMARK    4  A    between atoms: C_3  and  C_11
REMARK    5  A    between atoms: O_4  and  C_5
REMARK    6  A    between atoms: N_20  and  C_21
REMARK                            x       y       z     vdW  Elec       q    Type
REMARK                         _______ _______ _______ _____ _____    ______ ____
ROOT
ATOM      1  C   UNL     1       4.373   6.082  17.569  0.00  0.00    +0.000 A 
ATOM      2  N   UNL     1       4.340   4.914  18.205  0.00  0.00    +0.000 NA
ATOM      3  C   UNL     1       3.473   4.860  19.202  0.00  0.00    +0.000 A 
ATOM      4  N   UNL     1       3.393   3.673  19.900  0.00  0.00    +0.000 N 
ATOM      5  N   UNL     1       2.662   5.841  19.568  0.00  0.00    +0.000 NA
ATOM      6  C   UNL     1       2.747   6.970  18.873  0.00  0.00    +0.000 A 
ATOM      7  N   UNL     1       2.028   8.073  19.275  0.00  0.00    +0.000 N 
ATOM      8  C   UNL     1       1.599   9.037  18.261  0.00  0.00    +0.000 C 
ATOM      9  C   UNL     1       1.398  10.422  18.920  0.00  0.00    +0.000 C 
ATOM     10  N   UNL     1       0.488  10.384  20.092  0.00  0.00    +0.000 NA
ATOM     11  C   UNL     1       0.426  11.699  20.728  0.00  0.00    +0.000 C 
ATOM     12  C   UNL     1       0.971   9.368  21.059  0.00  0.00    +0.000 C 
ATOM     13  C   UNL     1       1.136   7.967  20.426  0.00  0.00    +0.000 C 
ATOM     14  N   UNL     1       3.574   7.112  17.847  0.00  0.00    +0.000 NA
ATOM     15  H   UNL     1       3.740   2.910  19.331  0.00  0.00    +0.000 HD
ATOM     16  H   UNL     1       2.475   3.568  20.310  0.00  0.00    +0.000 HD
ENDROOT
BRANCH   1  17
ATOM     17  C   UNL     1       5.405   6.263  16.464  0.00  0.00    +0.000 C 
BRANCH  17  19
ATOM     18  C   UNL     1       7.541   6.382  17.879  0.00  0.00    +0.000 C 
ATOM     19  C   UNL     1       6.570   7.138  16.979  0.00  0.00    +0.000 C 
ENDBRANCH  17  19
BRANCH  17  20
ATOM     20  O   UNL     1       5.856   4.937  16.105  0.00  0.00    +0.000 OA
BRANCH  20  21
ATOM     21  C   UNL     1       6.208   4.730  14.800  0.00  0.00    +0.000 A 
ATOM     22  C   UNL     1       7.353   5.261  14.216  0.00  0.00    +0.000 A 
ATOM     23  C   UNL     1       7.708   4.923  12.914  0.00  0.00    +0.000 A 
ATOM     24  C   UNL     1       6.910   4.050  12.179  0.00  0.00    +0.000 A 
ATOM     25  C   UNL     1       5.750   3.528  12.746  0.00  0.00    +0.000 A 
ATOM     26  C   UNL     1       5.397   3.863  14.058  0.00  0.00    +0.000 A 
ENDBRANCH  20  21
ENDBRANCH  17  20
ENDBRANCH   1  17
TORSDOF 4
ENDMDL
MODEL 4
REMARK VINA RESULT:      -7.2      2.465      7.576
REMARK  Name = 
REMARK  6 active torsions:
REMARK  status: ('A' for Active; 'I' for Inactive)
REMARK    1  A    between atoms: C_1  and  C_2
REMARK    2  A    between atoms: C_2  and  C_3
REMARK    3  A    between atoms: C_3  and  O_4
REMARK    4  A    between atoms: C_3  and  C_11
REMARK    5  A    between atoms: O_4  and  C_5
REMARK    6  A    between atoms: N_20  and  C_21
REMARK                            x       y       z     vdW  Elec       q    Type
REMARK                         _______ _______ _______ _____ _____    ______ ____
ROOT
ATOM      1  C   UNL     1       1.909   6.860  20.110  0.00  0.00    +0.000 A 
ATOM      2  N   UNL     1       1.628   5.898  20.985  0.00  0.00    +0.000 NA
ATOM      3  C   UNL     1       2.310   4.780  20.805  0.00  0.00    +0.000 A 
ATOM      4  N   UNL     1       2.063   3.746  21.684  0.00  0.00    +0.000 N 
ATOM      5  N   UNL     1       3.225   4.581  19.868  0.00  0.00    +0.000 NA
ATOM      6  C   UNL     1       3.457   5.595  19.041  0.00  0.00    +0.000 A 
ATOM      7  N   UNL     1       4.298   5.419  17.967  0.00  0.00    +0.000 N 
ATOM      8  C   UNL     1       5.046   6.574  17.468  0.00  0.00    +0.000 C 
ATOM      9  C   UNL     1       5.400   6.353  15.978  0.00  0.00    +0.000 C 
ATOM     10  N   UNL     1       6.100   5.068  15.729  0.00  0.00    +0.000 NA
ATOM     11  C   UNL     1       6.308   4.875  14.294  0.00  0.00    +0.000 C 
ATOM     12  C   UNL     1       5.298   3.953  16.286  0.00  0.00    +0.000 C 
ATOM     13  C   UNL     1       4.972   4.137  17.786  0.00  0.00    +0.000 C 
ATOM     14  N   UNL     1       2.834   6.760  19.155  0.00  0.00    +0.000 NA
ATOM     15  H   UNL     1       1.670   4.107  22.544  0.00  0.00    +0.000 HD
ATOM     16  H   UNL     1       2.873   3.146  21.757  0.00  0.00    +0.000 HD
ENDROOT
BRANCH   1  17
ATOM     17  C   UNL     1       1.107   8.151  20.187  0.00  0.00    +0.000 C 
BRANCH  17  19
ATOM     18  C   UNL     1      -0.044   9.145  22.253  0.00  0.00    +0.000 C 
ATOM     19  C   UNL     1       1.279   8.787  21.585  0.00  0.00    +0.000 C 
ENDBRANCH  17  19
BRANCH  17  20
ATOM     20  O   UNL     1       1.620   9.014  19.145  0.00  0.00    +0.000 OA
BRANCH  20  21
ATOM     21  C   UNL     1       0.882  10.122  18.834  0.00  0.00    +0.000 A 
ATOM     22  C   UNL     1      -0.473  10.084  18.522  0.00  0.00    +0.000 A 
ATOM     23  C   UNL     1      -1.188  11.261  18.320  0.00  0.00    +0.000 A 
ATOM     24  C   UNL     1      -0.546  12.492  18.422  0.00  0.00    +0.000 A 
ATOM     25  C   UNL     1       0.816  12.542  18.713  0.00  0.00    +0.000 A 
ATOM     26  C   UNL     1       1.532  11.358  18.923  0.00  0.00    +0.000 A 
ENDBRANCH  20  21
ENDBRANCH  17  20
ENDBRANCH   1  17
TORSDOF 4
ENDMDL
MODEL 5
REMARK VINA RESULT:      -7.2      2.400      8.251
REMARK  Name = 
REMARK  6 active torsions:
REMARK  status: ('A' for Active; 'I' for Inactive)
REMARK    1  A    between atoms: C_1  and  C_2
REMARK    2  A    between atoms: C_2  and  C_3
REMARK    3  A    between atoms: C_3  and  O_4
REMARK    4  A    between atoms: C_3  and  C_11
REMARK    5  A    between atoms: O_4  and  C_5
REMARK    6  A    between atoms: N_20  and  C_21
REMARK                            x       y       z     vdW  Elec       q    Type
REMARK                         _______ _______ _______ _____ _____    ______ ____
ROOT
ATOM      1  C   UNL     1       2.236   7.219  19.652  0.00  0.00    +0.000 A 
ATOM      2  N   UNL     1       1.828   6.356  20.578  0.00  0.00    +0.000 NA
ATOM      3  C   UNL     1       2.368   5.153  20.479  0.00  0.00    +0.000 A 
ATOM      4  N   UNL     1       1.983   4.214  21.414  0.00  0.00    +0.000 N 
ATOM      5  N   UNL     1       3.262   4.785  19.574  0.00  0.00    +0.000 NA
ATOM      6  C   UNL     1       3.628   5.709  18.693  0.00  0.00    +0.000 A 
ATOM      7  N   UNL     1       4.454   5.365  17.648  0.00  0.00    +0.000 N 
ATOM      8  C   UNL     1       5.346   6.385  17.095  0.00  0.00    +0.000 C 
ATOM      9  C   UNL     1       5.687   6.030  15.629  0.00  0.00    +0.000 C 
ATOM     10  N   UNL     1       6.225   4.656  15.471  0.00  0.00    +0.000 NA
ATOM     11  C   UNL     1       6.426   4.350  14.055  0.00  0.00    +0.000 C 
ATOM     12  C   UNL     1       5.284   3.684  16.078  0.00  0.00    +0.000 C 
ATOM     13  C   UNL     1       4.965   4.000  17.558  0.00  0.00    +0.000 C 
ATOM     14  N   UNL     1       3.154   6.946  18.723  0.00  0.00    +0.000 NA
ATOM     15  H   UNL     1       1.627   4.673  22.243  0.00  0.00    +0.000 HD
ATOM     16  H   UNL     1       2.711   3.524  21.539  0.00  0.00    +0.000 HD
ENDROOT
BRANCH   1  17
ATOM     17  C   UNL     1       1.600   8.602  19.636  0.00  0.00    +0.000 C 
BRANCH  17  19
ATOM     18  C   UNL     1       2.094  10.462  17.941  0.00  0.00    +0.000 C 
ATOM     19  C   UNL     1       1.464   9.094  18.178  0.00  0.00    +0.000 C 
ENDBRANCH  17  19
BRANCH  17  20
ATOM     20  O   UNL     1       0.308   8.465  20.271  0.00  0.00    +0.000 OA
BRANCH  20  21
ATOM     21  C   UNL     1      -0.103   9.490  21.078  0.00  0.00    +0.000 A 
ATOM     22  C   UNL     1      -0.453  10.750  20.605  0.00  0.00    +0.000 A 
ATOM     23  C   UNL     1      -0.965  11.714  21.467  0.00  0.00    +0.000 A 
ATOM     24  C   UNL     1      -1.125  11.425  22.819  0.00  0.00    +0.000 A 
ATOM     25  C   UNL     1      -0.758  10.173  23.309  0.00  0.00    +0.000 A 
ATOM     26  C   UNL     1      -0.250   9.201  22.439  0.00  0.00    +0.000 A 
ENDBRANCH  20  21
ENDBRANCH  17  20
ENDBRANCH   1  17
TORSDOF 4
ENDMDL
MODEL 6
REMARK VINA RESULT:      -7.1      2.684      3.931
REMARK  Name = 
REMARK  6 active torsions:
REMARK  status: ('A' for Active; 'I' for Inactive)
REMARK    1  A    between atoms: C_1  and  C_2
REMARK    2  A    between atoms: C_2  and  C_3
REMARK    3  A    between atoms: C_3  and  O_4
REMARK    4  A    between atoms: C_3  and  C_11
REMARK    5  A    between atoms: O_4  and  C_5
REMARK    6  A    between atoms: N_20  and  C_21
REMARK                            x       y       z     vdW  Elec       q    Type
REMARK                         _______ _______ _______ _____ _____    ______ ____
ROOT
ATOM      1  C   UNL     1       3.567   4.460  19.283  0.00  0.00    +0.000 A 
ATOM      2  N   UNL     1       3.235   3.593  20.236  0.00  0.00    +0.000 NA
ATOM      3  C   UNL     1       2.377   4.063  21.127  0.00  0.00    +0.000 A 
ATOM      4  N   UNL     1       1.994   3.209  22.140  0.00  0.00    +0.000 N 
ATOM      5  N   UNL     1       1.841   5.274  21.111  0.00  0.00    +0.000 NA
ATOM      6  C   UNL     1       2.214   6.075  20.118  0.00  0.00    +0.000 A 
ATOM      7  N   UNL     1       1.798   7.387  20.108  0.00  0.00    +0.000 N 
ATOM      8  C   UNL     1       1.633   8.058  18.818  0.00  0.00    +0.000 C 
ATOM      9  C   UNL     1       1.788   9.586  19.011  0.00  0.00    +0.000 C 
ATOM     10  N   UNL     1       0.892  10.135  20.060  0.00  0.00    +0.000 NA
ATOM     11  C   UNL     1       1.164  11.558  20.263  0.00  0.00    +0.000 C 
ATOM     12  C   UNL     1       1.095   9.388  21.324  0.00  0.00    +0.000 C 
ATOM     13  C   UNL     1       0.902   7.862  21.158  0.00  0.00    +0.000 C 
ATOM     14  N   UNL     1       3.055   5.686  19.171  0.00  0.00    +0.000 NA
ATOM     15  H   UNL     1       2.139   2.248  21.858  0.00  0.00    +0.000 HD
ATOM     16  H   UNL     1       1.078   3.462  22.484  0.00  0.00    +0.000 HD
ENDROOT
BRANCH   1  17
ATOM     17  C   UNL     1       4.617   4.034  18.266  0.00  0.00    +0.000 C 
BRANCH  17  19
ATOM     18  C   UNL     1       2.609   3.129  16.951  0.00  0.00    +0.000 C 
ATOM     19  C   UNL     1       4.053   2.899  17.382  0.00  0.00    +0.000 C 
ENDBRANCH  17  19
BRANCH  17  20
ATOM     20  O   UNL     1       4.929   5.210  17.484  0.00  0.00    +0.000 OA
BRANCH  20  21
ATOM     21  C   UNL     1       6.014   5.946  17.870  0.00  0.00    +0.000 A 
ATOM     22  C   UNL     1       6.928   5.527  18.832  0.00  0.00    +0.000 A 
ATOM     23  C   UNL     1       8.069   6.276  19.101  0.00  0.00    +0.000 A 
ATOM     24  C   UNL     1       8.303   7.461  18.409  0.00  0.00    +0.000 A 
ATOM     25  C   UNL     1       7.385   7.902  17.458  0.00  0.00    +0.000 A 
ATOM     26  C   UNL     1       6.241   7.144  17.183  0.00  0.00    +0.000 A 
ENDBRANCH  20  21
ENDBRANCH  17  20
ENDBRANCH   1  17
TORSDOF 4
ENDMDL
MODEL 7
REMARK VINA RESULT:      -7.1      2.651      3.857
REMARK  Name = 
REMARK  6 active torsions:
REMARK  status: ('A' for Active; 'I' for Inactive)
REMARK    1  A    between atoms: C_1  and  C_2
REMARK    2  A    between atoms: C_2  and  C_3
REMARK    3  A    between atoms: C_3  and  O_4
REMARK    4  A    between atoms: C_3  and  C_11
REMARK    5  A    between atoms: O_4  and  C_5
REMARK    6  A    between atoms: N_20  and  C_21
REMARK                            x       y       z     vdW  Elec       q    Type
REMARK                         _______ _______ _______ _____ _____    ______ ____
ROOT
ATOM      1  C   UNL     1       3.457   4.618  19.138  0.00  0.00    +0.000 A 
ATOM      2  N   UNL     1       3.172   3.771  20.123  0.00  0.00    +0.000 NA
ATOM      3  C   UNL     1       2.374   4.266  21.054  0.00  0.00    +0.000 A 
ATOM      4  N   UNL     1       2.041   3.433  22.102  0.00  0.00    +0.000 N 
ATOM      5  N   UNL     1       1.851   5.482  21.049  0.00  0.00    +0.000 NA
ATOM      6  C   UNL     1       2.173   6.262  20.023  0.00  0.00    +0.000 A 
ATOM      7  N   UNL     1       1.772   7.578  20.015  0.00  0.00    +0.000 N 
ATOM      8  C   UNL     1       1.539   8.231  18.726  0.00  0.00    +0.000 C 
ATOM      9  C   UNL     1       1.721   9.760  18.884  0.00  0.00    +0.000 C 
ATOM     10  N   UNL     1       0.895  10.337  19.973  0.00  0.00    +0.000 NA
ATOM     11  C   UNL     1       1.193  11.759  20.136  0.00  0.00    +0.000 C 
ATOM     12  C   UNL     1       1.163   9.608  21.236  0.00  0.00    +0.000 C 
ATOM     13  C   UNL     1       0.944   8.082  21.107  0.00  0.00    +0.000 C 
ATOM     14  N   UNL     1       2.953   5.849  19.035  0.00  0.00    +0.000 NA
ATOM     15  H   UNL     1       2.159   2.465  21.828  0.00  0.00    +0.000 HD
ATOM     16  H   UNL     1       1.149   3.701  22.494  0.00  0.00    +0.000 HD
ENDROOT
BRANCH   1  17
ATOM     17  C   UNL     1       4.441   4.164  18.068  0.00  0.00    +0.000 C 
BRANCH  17  19
ATOM     18  C   UNL     1       3.593   1.752  17.857  0.00  0.00    +0.000 C 
ATOM     19  C   UNL     1       3.775   3.100  17.168  0.00  0.00    +0.000 C 
ENDBRANCH  17  19
BRANCH  17  20
ATOM     20  O   UNL     1       4.801   5.345  17.316  0.00  0.00    +0.000 OA
BRANCH  20  21
ATOM     21  C   UNL     1       5.974   5.964  17.649  0.00  0.00    +0.000 A 
ATOM     22  C   UNL     1       6.398   7.166  17.092  0.00  0.00    +0.000 A 
ATOM     23  C   UNL     1       7.549   7.796  17.554  0.00  0.00    +0.000 A 
ATOM     24  C   UNL     1       8.293   7.220  18.580  0.00  0.00    +0.000 A 
ATOM     25  C   UNL     1       7.890   6.006  19.132  0.00  0.00    +0.000 A 
ATOM     26  C   UNL     1       6.728   5.377  18.671  0.00  0.00    +0.000 A 
ENDBRANCH  20  21
ENDBRANCH  17  20
ENDBRANCH   1  17
TORSDOF 4
ENDMDL
MODEL 8
REMARK VINA RESULT:      -7.0      2.398      8.224
REMARK  Name = 
REMARK  6 active torsions:
REMARK  status: ('A' for Active; 'I' for Inactive)
REMARK    1  A    between atoms: C_1  and  C_2
REMARK    2  A    between atoms: C_2  and  C_3
REMARK    3  A    between atoms: C_3  and  O_4
REMARK    4  A    between atoms: C_3  and  C_11
REMARK    5  A    between atoms: O_4  and  C_5
REMARK    6  A    between atoms: N_20  and  C_21
REMARK                            x       y       z     vdW  Elec       q    Type
REMARK                         _______ _______ _______ _____ _____    ______ ____
ROOT
ATOM      1  C   UNL     1       2.265   7.392  19.488  0.00  0.00    +0.000 A 
ATOM      2  N   UNL     1       1.829   6.565  20.434  0.00  0.00    +0.000 NA
ATOM      3  C   UNL     1       2.327   5.342  20.362  0.00  0.00    +0.000 A 
ATOM      4  N   UNL     1       1.912   4.438  21.318  0.00  0.00    +0.000 N 
ATOM      5  N   UNL     1       3.206   4.923  19.464  0.00  0.00    +0.000 NA
ATOM      6  C   UNL     1       3.602   5.814  18.561  0.00  0.00    +0.000 A 
ATOM      7  N   UNL     1       4.413   5.417  17.523  0.00  0.00    +0.000 N 
ATOM      8  C   UNL     1       5.339   6.394  16.946  0.00  0.00    +0.000 C 
ATOM      9  C   UNL     1       5.664   5.994  15.487  0.00  0.00    +0.000 C 
ATOM     10  N   UNL     1       6.154   4.599  15.360  0.00  0.00    +0.000 NA
ATOM     11  C   UNL     1       6.341   4.254  13.952  0.00  0.00    +0.000 C 
ATOM     12  C   UNL     1       5.181   3.674  15.991  0.00  0.00    +0.000 C 
ATOM     13  C   UNL     1       4.877   4.035  17.464  0.00  0.00    +0.000 C 
ATOM     14  N   UNL     1       3.170   7.067  18.564  0.00  0.00    +0.000 NA
ATOM     15  H   UNL     1       1.574   4.928  22.137  0.00  0.00    +0.000 HD
ATOM     16  H   UNL     1       2.617   3.727  21.457  0.00  0.00    +0.000 HD
ENDROOT
BRANCH   1  17
ATOM     17  C   UNL     1       1.676   8.795  19.441  0.00  0.00    +0.000 C 
BRANCH  17  19
ATOM     18  C   UNL     1       2.116  10.880  18.013  0.00  0.00    +0.000 C 
ATOM     19  C   UNL     1       1.841   9.381  18.020  0.00  0.00    +0.000 C 
ENDBRANCH  17  19
BRANCH  17  20
ATOM     20  O   UNL     1       0.282   8.666  19.803  0.00  0.00    +0.000 OA
BRANCH  20  21
ATOM     21  C   UNL     1      -0.170   9.445  20.831  0.00  0.00    +0.000 A 
ATOM     22  C   UNL     1      -0.150   9.050  22.165  0.00  0.00    +0.000 A 
ATOM     23  C   UNL     1      -0.525   9.933  23.173  0.00  0.00    +0.000 A 
ATOM     24  C   UNL     1      -0.933  11.224  22.850  0.00  0.00    +0.000 A 
ATOM     25  C   UNL     1      -0.977  11.625  21.517  0.00  0.00    +0.000 A 
ATOM     26  C   UNL     1      -0.593  10.738  20.504  0.00  0.00    +0.000 A 
ENDBRANCH  20  21
ENDBRANCH  17  20
ENDBRANCH   1  17
TORSDOF 4
ENDMDL
MODEL 9
REMARK VINA RESULT:      -7.0      4.380      8.415
REMARK  Name = 
REMARK  6 active torsions:
REMARK  status: ('A' for Active; 'I' for Inactive)
REMARK    1  A    between atoms: C_1  and  C_2
REMARK    2  A    between atoms: C_2  and  C_3
REMARK    3  A    between atoms: C_3  and  O_4
REMARK    4  A    between atoms: C_3  and  C_11
REMARK    5  A    between atoms: O_4  and  C_5
REMARK    6  A    between atoms: N_20  and  C_21
REMARK                            x       y       z     vdW  Elec       q    Type
REMARK                         _______ _______ _______ _____ _____    ______ ____
ROOT
ATOM      1  C   UNL     1       0.609  10.497  20.477  0.00  0.00    +0.000 A 
ATOM      2  N   UNL     1       0.201  10.525  21.742  0.00  0.00    +0.000 NA
ATOM      3  C   UNL     1       0.369   9.388  22.395  0.00  0.00    +0.000 A 
ATOM      4  N   UNL     1      -0.035   9.355  23.714  0.00  0.00    +0.000 N 
ATOM      5  N   UNL     1       0.914   8.289  21.895  0.00  0.00    +0.000 NA
ATOM      6  C   UNL     1       1.309   8.347  20.628  0.00  0.00    +0.000 A 
ATOM      7  N   UNL     1       1.765   7.209  20.003  0.00  0.00    +0.000 N 
ATOM      8  C   UNL     1       2.751   7.347  18.930  0.00  0.00    +0.000 C 
ATOM      9  C   UNL     1       2.657   6.126  17.986  0.00  0.00    +0.000 C 
ATOM     10  N   UNL     1       2.766   4.828  18.697  0.00  0.00    +0.000 NA
ATOM     11  C   UNL     1       2.564   3.720  17.764  0.00  0.00    +0.000 C 
ATOM     12  C   UNL     1       1.758   4.774  19.784  0.00  0.00    +0.000 C 
ATOM     13  C   UNL     1       1.866   5.967  20.763  0.00  0.00    +0.000 C 
ATOM     14  N   UNL     1       1.196   9.448  19.899  0.00  0.00    +0.000 NA
ATOM     15  H   UNL     1      -0.067  10.295  24.091  0.00  0.00    +0.000 HD
ATOM     16  H   UNL     1       0.494   8.664  24.227  0.00  0.00    +0.000 HD
ENDROOT
BRANCH   1  17
ATOM     17  C   UNL     1       0.372  11.736  19.623  0.00  0.00    +0.000 C 
BRANCH  17  19
ATOM     18  C   UNL     1       2.346  12.466  18.157  0.00  0.00    +0.000 C 
ATOM     19  C   UNL     1       1.678  12.557  19.524  0.00  0.00    +0.000 C 
ENDBRANCH  17  19
BRANCH  17  20
ATOM     20  O   UNL     1      -0.056  11.262  18.326  0.00  0.00    +0.000 OA
BRANCH  20  21
ATOM     21  C   UNL     1      -1.396  11.056  18.148  0.00  0.00    +0.000 A 
ATOM     22  C   UNL     1      -2.382  11.836  18.743  0.00  0.00    +0.000 A 
ATOM     23  C   UNL     1      -3.724  11.639  18.434  0.00  0.00    +0.000 A 
ATOM     24  C   UNL     1      -4.092  10.649  17.528  0.00  0.00    +0.000 A 
ATOM     25  C   UNL     1      -3.115   9.847  16.941  0.00  0.00    +0.000 A 
ATOM     26  C   UNL     1      -1.765  10.051  17.246  0.00  0.00    +0.000 A 
ENDBRANCH  20  21
ENDBRANCH  17  20
ENDBRANCH   1  17
TORSDOF 4
ENDMDL
