MODEL 1
REMARK VINA RESULT:      -7.2      0.000      0.000
REMARK  Name = 
REMARK  12 active torsions:
REMARK  status: ('A' for Active; 'I' for Inactive)
REMARK    1  A    between atoms: C_1  and  O_2
REMARK    2  A    between atoms: O_2  and  C_3
REMARK    3  A    between atoms: C_3  and  C_4
REMARK    4  A    between atoms: C_4  and  N_5
REMARK    5  A    between atoms: C_6  and  C_8
REMARK    6  A    between atoms: C_8  and  C_9
REMARK    7  A    between atoms: C_8  and  C_10
REMARK    8  A    between atoms: C_13  and  C_14
REMARK    9  A    between atoms: C_17  and  N_18
REMARK   10  A    between atoms: C_19  and  C_21
REMARK   11  A    between atoms: C_27  and  C_28
REMARK   12  A    between atoms: C_30  and  O_31
REMARK                            x       y       z     vdW  Elec       q    Type
REMARK                         _______ _______ _______ _____ _____    ______ ____
ROOT
ATOM      1  C   UNL     1      -0.494  12.944  20.625  0.00  0.00    +0.000 C 
ATOM      2  C   UNL     1      -0.511  13.131  19.108  0.00  0.00    +0.000 C 
ATOM      3  C   UNL     1       0.250  12.129  18.258  0.00  0.00    +0.000 C 
ATOM      4  C   UNL     1       0.397  10.689  18.796  0.00  0.00    +0.000 C 
ATOM      5  C   UNL     1      -0.897   9.909  18.426  0.00  0.00    +0.000 C 
ATOM      6  C   UNL     1       1.606  10.058  18.070  0.00  0.00    +0.000 C 
ATOM      7  C   UNL     1       1.822   8.601  18.447  0.00  0.00    +0.000 C 
ATOM      8  C   UNL     1       1.889   8.365  19.970  0.00  0.00    +0.000 C 
ATOM      9  C   UNL     1       0.768   9.118  20.774  0.00  0.00    +0.000 C 
ATOM     10  C   UNL     1       0.885   8.859  22.286  0.00  0.00    +0.000 C 
ATOM     11  C   UNL     1       0.667  10.631  20.332  0.00  0.00    +0.000 C 
ATOM     12  C   UNL     1      -0.405  11.464  21.082  0.00  0.00    +0.000 C 
ENDROOT
BRANCH   8  13
ATOM     13  N   UNL     1       1.793   6.925  20.226  0.00  0.00    +0.000 N 
ATOM     14  C   UNL     1       2.755   6.006  19.832  0.00  0.00    +0.000 C 
ATOM     15  O   UNL     1       3.773   6.321  19.246  0.00  0.00    +0.000 OA
ATOM     16  H   UNL     1       0.934   6.595  20.635  0.00  0.00    +0.000 HD
BRANCH  14  17
ATOM     17  C   UNL     1       2.438   4.564  20.258  0.00  0.00    +0.000 C 
ATOM     18  C   UNL     1       1.114   4.078  19.672  0.00  0.00    +0.000 C 
ATOM     19  C   UNL     1       1.210   3.737  18.188  0.00  0.00    +0.000 C 
ATOM     20  C   UNL     1       2.343   2.767  17.873  0.00  0.00    +0.000 C 
ATOM     21  C   UNL     1       3.685   3.099  18.521  0.00  0.00    +0.000 C 
ATOM     22  C   UNL     1       3.569   3.558  19.973  0.00  0.00    +0.000 C 
ENDBRANCH  14  17
ENDBRANCH   8  13
BRANCH   1  23
ATOM     23  C   UNL     1      -1.700  13.712  21.289  0.00  0.00    +0.000 C 
ATOM     24  C   UNL     1      -1.894  15.121  20.701  0.00  0.00    +0.000 C 
BRANCH  23  26
ATOM     25  N   UNL     1      -3.634  13.002  19.972  0.00  0.00    +0.000 N 
ATOM     26  C   UNL     1      -3.036  12.938  21.217  0.00  0.00    +0.000 C 
ATOM     27  O   UNL     1      -3.540  12.365  22.162  0.00  0.00    +0.000 OA
ATOM     28  H   UNL     1      -3.002  13.073  19.182  0.00  0.00    +0.000 HD
BRANCH  25  29
ATOM     29  C   UNL     1      -4.889  12.316  19.707  0.00  0.00    +0.000 C 
BRANCH  29  30
ATOM     30  C   UNL     1      -5.095  12.068  18.210  0.00  0.00    +0.000 C 
BRANCH  30  32
ATOM     31  C   UNL     1      -3.859  11.120  16.430  0.00  0.00    +0.000 C 
ATOM     32  O   UNL     1      -4.242  10.993  17.793  0.00  0.00    +0.000 OA
ENDBRANCH  30  32
ENDBRANCH  29  30
ENDBRANCH  25  29
ENDBRANCH  23  26
ENDBRANCH   1  23
BRANCH  12  33
ATOM     33  O   UNL     1      -0.146  11.486  22.484  0.00  0.00    +0.000 OA
ATOM     34  H   UNL     1      -0.984  11.322  22.952  0.00  0.00    +0.000 HD
ENDBRANCH  12  33
TORSDOF 8
ENDMDL
MODEL 2
REMARK VINA RESULT:      -7.1      1.715      2.655
REMARK  Name = 
REMARK  12 active torsions:
REMARK  status: ('A' for Active; 'I' for Inactive)
REMARK    1  A    between atoms: C_1  and  O_2
REMARK    2  A    between atoms: O_2  and  C_3
REMARK    3  A    between atoms: C_3  and  C_4
REMARK    4  A    between atoms: C_4  and  N_5
REMARK    5  A    between atoms: C_6  and  C_8
REMARK    6  A    between atoms: C_8  and  C_9
REMARK    7  A    between atoms: C_8  and  C_10
REMARK    8  A    between atoms: C_13  and  C_14
REMARK    9  A    between atoms: C_17  and  N_18
REMARK   10  A    between atoms: C_19  and  C_21
REMARK   11  A    between atoms: C_27  and  C_28
REMARK   12  A    between atoms: C_30  and  O_31
REMARK                            x       y       z     vdW  Elec       q    Type
REMARK                         _______ _______ _______ _____ _____    ______ ____
ROOT
ATOM      1  C   UNL     1      -0.182  11.983  21.503  0.00  0.00    +0.000 C 
ATOM      2  C   UNL     1      -0.170  12.818  20.223  0.00  0.00    +0.000 C 
ATOM      3  C   UNL     1       0.604  12.285  19.031  0.00  0.00    +0.000 C 
ATOM      4  C   UNL     1       0.737  10.754  18.884  0.00  0.00    +0.000 C 
ATOM      5  C   UNL     1      -0.552  10.228  18.188  0.00  0.00    +0.000 C 
ATOM      6  C   UNL     1       1.957  10.493  17.973  0.00  0.00    +0.000 C 
ATOM      7  C   UNL     1       2.163   9.016  17.674  0.00  0.00    +0.000 C 
ATOM      8  C   UNL     1       2.201   8.135  18.939  0.00  0.00    +0.000 C 
ATOM      9  C   UNL     1       1.068   8.469  19.974  0.00  0.00    +0.000 C 
ATOM     10  C   UNL     1       1.156   7.570  21.221  0.00  0.00    +0.000 C 
ATOM     11  C   UNL     1       0.978  10.023  20.242  0.00  0.00    +0.000 C 
ATOM     12  C   UNL     1      -0.106  10.453  21.265  0.00  0.00    +0.000 C 
ENDROOT
BRANCH   8  13
ATOM     13  N   UNL     1       2.097   6.730  18.534  0.00  0.00    +0.000 N 
ATOM     14  C   UNL     1       3.189   5.936  18.218  0.00  0.00    +0.000 C 
ATOM     15  O   UNL     1       4.337   6.337  18.262  0.00  0.00    +0.000 OA
ATOM     16  H   UNL     1       1.168   6.365  18.402  0.00  0.00    +0.000 HD
BRANCH  14  17
ATOM     17  C   UNL     1       2.816   4.486  17.866  0.00  0.00    +0.000 C 
ATOM     18  C   UNL     1       3.818   3.488  18.442  0.00  0.00    +0.000 C 
ATOM     19  C   UNL     1       3.656   3.283  19.945  0.00  0.00    +0.000 C 
ATOM     20  C   UNL     1       2.229   2.927  20.347  0.00  0.00    +0.000 C 
ATOM     21  C   UNL     1       1.140   3.794  19.718  0.00  0.00    +0.000 C 
ATOM     22  C   UNL     1       1.373   4.097  18.239  0.00  0.00    +0.000 C 
ENDBRANCH  14  17
ENDBRANCH   8  13
BRANCH   1  23
ATOM     23  C   UNL     1      -1.398  12.394  22.419  0.00  0.00    +0.000 C 
ATOM     24  C   UNL     1      -1.071  13.592  23.329  0.00  0.00    +0.000 C 
BRANCH  23  26
ATOM     25  N   UNL     1      -3.445  13.711  22.179  0.00  0.00    +0.000 N 
ATOM     26  C   UNL     1      -2.692  12.692  21.625  0.00  0.00    +0.000 C 
ATOM     27  O   UNL     1      -3.041  12.074  20.641  0.00  0.00    +0.000 OA
ATOM     28  H   UNL     1      -2.922  14.434  22.661  0.00  0.00    +0.000 HD
BRANCH  25  29
ATOM     29  C   UNL     1      -4.686  14.148  21.559  0.00  0.00    +0.000 C 
BRANCH  29  30
ATOM     30  C   UNL     1      -5.878  14.003  22.509  0.00  0.00    +0.000 C 
BRANCH  30  32
ATOM     31  C   UNL     1      -7.010  12.428  23.863  0.00  0.00    +0.000 C 
ATOM     32  O   UNL     1      -6.055  12.616  22.827  0.00  0.00    +0.000 OA
ENDBRANCH  30  32
ENDBRANCH  29  30
ENDBRANCH  25  29
ENDBRANCH  23  26
ENDBRANCH   1  23
BRANCH  12  33
ATOM     33  O   UNL     1       0.127   9.853  22.537  0.00  0.00    +0.000 OA
ATOM     34  H   UNL     1       1.084   9.702  22.633  0.00  0.00    +0.000 HD
ENDBRANCH  12  33
TORSDOF 8
ENDMDL
MODEL 3
REMARK VINA RESULT:      -7.1      1.336      2.017
REMARK  Name = 
REMARK  12 active torsions:
REMARK  status: ('A' for Active; 'I' for Inactive)
REMARK    1  A    between atoms: C_1  and  O_2
REMARK    2  A    between atoms: O_2  and  C_3
REMARK    3  A    between atoms: C_3  and  C_4
REMARK    4  A    between atoms: C_4  and  N_5
REMARK    5  A    between atoms: C_6  and  C_8
REMARK    6  A    between atoms: C_8  and  C_9
REMARK    7  A    between atoms: C_8  and  C_10
REMARK    8  A    between atoms: C_13  and  C_14
REMARK    9  A    between atoms: C_17  and  N_18
REMARK   10  A    between atoms: C_19  and  C_21
REMARK   11  A    between atoms: C_27  and  C_28
REMARK   12  A    between atoms: C_30  and  O_31
REMARK                            x       y       z     vdW  Elec       q    Type
REMARK                         _______ _______ _______ _____ _____    ______ ____
ROOT
ATOM      1  C   UNL     1      -0.309  11.913  21.204  0.00  0.00    +0.000 C 
ATOM      2  C   UNL     1      -0.259  12.618  19.850  0.00  0.00    +0.000 C 
ATOM      3  C   UNL     1       0.570  11.985  18.746  0.00  0.00    +0.000 C 
ATOM      4  C   UNL     1       0.732  10.449  18.756  0.00  0.00    +0.000 C 
ATOM      5  C   UNL     1      -0.520   9.834  18.067  0.00  0.00    +0.000 C 
ATOM      6  C   UNL     1       1.991  10.124  17.922  0.00  0.00    +0.000 C 
ATOM      7  C   UNL     1       2.231   8.629  17.779  0.00  0.00    +0.000 C 
ATOM      8  C   UNL     1       2.232   7.877  19.125  0.00  0.00    +0.000 C 
ATOM      9  C   UNL     1       1.053   8.289  20.078  0.00  0.00    +0.000 C 
ATOM     10  C   UNL     1       1.106   7.519  21.410  0.00  0.00    +0.000 C 
ATOM     11  C   UNL     1       0.930   9.860  20.187  0.00  0.00    +0.000 C 
ATOM     12  C   UNL     1      -0.200  10.368  21.121  0.00  0.00    +0.000 C 
ENDROOT
BRANCH   8  13
ATOM     13  N   UNL     1       2.165   6.437  18.857  0.00  0.00    +0.000 N 
ATOM     14  C   UNL     1       3.208   5.557  19.106  0.00  0.00    +0.000 C 
ATOM     15  O   UNL     1       4.272   5.906  19.583  0.00  0.00    +0.000 OA
ATOM     16  H   UNL     1       1.340   6.103  18.387  0.00  0.00    +0.000 HD
BRANCH  14  17
ATOM     17  C   UNL     1       2.871   4.094  18.778  0.00  0.00    +0.000 C 
ATOM     18  C   UNL     1       3.557   3.126  19.740  0.00  0.00    +0.000 C 
ATOM     19  C   UNL     1       2.897   3.087  21.115  0.00  0.00    +0.000 C 
ATOM     20  C   UNL     1       1.396   2.828  21.047  0.00  0.00    +0.000 C 
ATOM     21  C   UNL     1       0.637   3.663  20.018  0.00  0.00    +0.000 C 
ATOM     22  C   UNL     1       1.362   3.799  18.681  0.00  0.00    +0.000 C 
ENDBRANCH  14  17
ENDBRANCH   8  13
BRANCH   1  23
ATOM     23  C   UNL     1      -1.566  12.388  22.028  0.00  0.00    +0.000 C 
ATOM     24  C   UNL     1      -1.180  13.238  23.252  0.00  0.00    +0.000 C 
BRANCH  23  26
ATOM     25  N   UNL     1      -3.591  12.340  20.656  0.00  0.00    +0.000 N 
ATOM     26  C   UNL     1      -2.604  13.157  21.177  0.00  0.00    +0.000 C 
ATOM     27  O   UNL     1      -2.543  14.347  20.947  0.00  0.00    +0.000 OA
ATOM     28  H   UNL     1      -3.838  11.533  21.219  0.00  0.00    +0.000 HD
BRANCH  25  29
ATOM     29  C   UNL     1      -4.667  12.889  19.846  0.00  0.00    +0.000 C 
BRANCH  29  30
ATOM     30  C   UNL     1      -5.347  11.809  18.999  0.00  0.00    +0.000 C 
BRANCH  30  32
ATOM     31  C   UNL     1      -7.060  11.451  20.591  0.00  0.00    +0.000 C 
ATOM     32  O   UNL     1      -6.758  11.835  19.256  0.00  0.00    +0.000 OA
ENDBRANCH  30  32
ENDBRANCH  29  30
ENDBRANCH  25  29
ENDBRANCH  23  26
ENDBRANCH   1  23
BRANCH  12  33
ATOM     33  O   UNL     1      -0.009   9.900  22.454  0.00  0.00    +0.000 OA
ATOM     34  H   UNL     1       0.328  10.638  22.991  0.00  0.00    +0.000 HD
ENDBRANCH  12  33
TORSDOF 8
ENDMDL
MODEL 4
REMARK VINA RESULT:      -7.1      1.644      2.224
REMARK  Name = 
REMARK  12 active torsions:
REMARK  status: ('A' for Active; 'I' for Inactive)
REMARK    1  A    between atoms: C_1  and  O_2
REMARK    2  A    between atoms: O_2  and  C_3
REMARK    3  A    between atoms: C_3  and  C_4
REMARK    4  A    between atoms: C_4  and  N_5
REMARK    5  A    between atoms: C_6  and  C_8
REMARK    6  A    between atoms: C_8  and  C_9
REMARK    7  A    between atoms: C_8  and  C_10
REMARK    8  A    between atoms: C_13  and  C_14
REMARK    9  A    between atoms: C_17  and  N_18
REMARK   10  A    between atoms: C_19  and  C_21
REMARK   11  A    between atoms: C_27  and  C_28
REMARK   12  A    between atoms: C_30  and  O_31
REMARK                            x       y       z     vdW  Elec       q    Type
REMARK                         _______ _______ _______ _____ _____    ______ ____
ROOT
ATOM      1  C   UNL     1       0.482  12.729  20.636  0.00  0.00    +0.000 C 
ATOM      2  C   UNL     1       0.562  13.063  19.147  0.00  0.00    +0.000 C 
ATOM      3  C   UNL     1       1.168  12.030  18.215  0.00  0.00    +0.000 C 
ATOM      4  C   UNL     1       1.034  10.541  18.604  0.00  0.00    +0.000 C 
ATOM      5  C   UNL     1      -0.361  10.047  18.126  0.00  0.00    +0.000 C 
ATOM      6  C   UNL     1       2.141   9.776  17.845  0.00  0.00    +0.000 C 
ATOM      7  C   UNL     1       2.080   8.274  18.074  0.00  0.00    +0.000 C 
ATOM      8  C   UNL     1       2.041   7.882  19.565  0.00  0.00    +0.000 C 
ATOM      9  C   UNL     1       1.039   8.742  20.416  0.00  0.00    +0.000 C 
ATOM     10  C   UNL     1       1.046   8.319  21.896  0.00  0.00    +0.000 C 
ATOM     11  C   UNL     1       1.226  10.285  20.132  0.00  0.00    +0.000 C 
ATOM     12  C   UNL     1       0.288  11.221  20.939  0.00  0.00    +0.000 C 
ENDROOT
BRANCH   8  13
ATOM     13  N   UNL     1       1.681   6.465  19.668  0.00  0.00    +0.000 N 
ATOM     14  C   UNL     1       2.609   5.438  19.753  0.00  0.00    +0.000 C 
ATOM     15  O   UNL     1       3.811   5.628  19.762  0.00  0.00    +0.000 OA
ATOM     16  H   UNL     1       0.703   6.240  19.584  0.00  0.00    +0.000 HD
BRANCH  14  17
ATOM     17  C   UNL     1       1.974   4.045  19.895  0.00  0.00    +0.000 C 
ATOM     18  C   UNL     1       1.367   3.564  18.579  0.00  0.00    +0.000 C 
ATOM     19  C   UNL     1       2.417   3.105  17.572  0.00  0.00    +0.000 C 
ATOM     20  C   UNL     1       3.382   2.072  18.146  0.00  0.00    +0.000 C 
ATOM     21  C   UNL     1       3.947   2.406  19.525  0.00  0.00    +0.000 C 
ATOM     22  C   UNL     1       2.914   2.980  20.491  0.00  0.00    +0.000 C 
ENDBRANCH  14  17
ENDBRANCH   8  13
BRANCH   1  23
ATOM     23  C   UNL     1      -0.594  13.634  21.349  0.00  0.00    +0.000 C 
ATOM     24  C   UNL     1      -0.967  14.872  20.513  0.00  0.00    +0.000 C 
BRANCH  23  26
ATOM     25  N   UNL     1      -2.047  12.738  23.100  0.00  0.00    +0.000 N 
ATOM     26  C   UNL     1      -1.882  12.869  21.733  0.00  0.00    +0.000 C 
ATOM     27  O   UNL     1      -2.653  12.390  20.927  0.00  0.00    +0.000 OA
ATOM     28  H   UNL     1      -1.673  13.494  23.664  0.00  0.00    +0.000 HD
BRANCH  25  29
ATOM     29  C   UNL     1      -3.213  12.067  23.653  0.00  0.00    +0.000 C 
BRANCH  29  30
ATOM     30  C   UNL     1      -4.433  12.991  23.697  0.00  0.00    +0.000 C 
BRANCH  30  32
ATOM     31  C   UNL     1      -5.840  13.356  21.831  0.00  0.00    +0.000 C 
ATOM     32  O   UNL     1      -5.461  12.448  22.857  0.00  0.00    +0.000 OA
ENDBRANCH  30  32
ENDBRANCH  29  30
ENDBRANCH  25  29
ENDBRANCH  23  26
ENDBRANCH   1  23
BRANCH  12  33
ATOM     33  O   UNL     1       0.489  11.057  22.341  0.00  0.00    +0.000 OA
ATOM     34  H   UNL     1       0.016  11.771  22.803  0.00  0.00    +0.000 HD
ENDBRANCH  12  33
TORSDOF 8
ENDMDL
MODEL 5
REMARK VINA RESULT:      -7.0      1.565      2.084
REMARK  Name = 
REMARK  12 active torsions:
REMARK  status: ('A' for Active; 'I' for Inactive)
REMARK    1  A    between atoms: C_1  and  O_2
REMARK    2  A    between atoms: O_2  and  C_3
REMARK    3  A    between atoms: C_3  and  C_4
REMARK    4  A    between atoms: C_4  and  N_5
REMARK    5  A    between atoms: C_6  and  C_8
REMARK    6  A    between atoms: C_8  and  C_9
REMARK    7  A    between atoms: C_8  and  C_10
REMARK    8  A    between atoms: C_13  and  C_14
REMARK    9  A    between atoms: C_17  and  N_18
REMARK   10  A    between atoms: C_19  and  C_21
REMARK   11  A    between atoms: C_27  and  C_28
REMARK   12  A    between atoms: C_30  and  O_31
REMARK                            x       y       z     vdW  Elec       q    Type
REMARK                         _______ _______ _______ _____ _____    ______ ____
ROOT
ATOM      1  C   UNL     1       0.072  12.458  21.663  0.00  0.00    +0.000 C 
ATOM      2  C   UNL     1       0.037  13.185  20.319  0.00  0.00    +0.000 C 
ATOM      3  C   UNL     1       0.672  12.502  19.121  0.00  0.00    +0.000 C 
ATOM      4  C   UNL     1       0.686  10.958  19.095  0.00  0.00    +0.000 C 
ATOM      5  C   UNL     1      -0.689  10.478  18.546  0.00  0.00    +0.000 C 
ATOM      6  C   UNL     1       1.806  10.533  18.119  0.00  0.00    +0.000 C 
ATOM      7  C   UNL     1       1.884   9.027  17.932  0.00  0.00    +0.000 C 
ATOM      8  C   UNL     1       1.964   8.248  19.261  0.00  0.00    +0.000 C 
ATOM      9  C   UNL     1       0.945   8.748  20.347  0.00  0.00    +0.000 C 
ATOM     10  C   UNL     1       1.073   7.947  21.656  0.00  0.00    +0.000 C 
ATOM     11  C   UNL     1       0.986  10.321  20.488  0.00  0.00    +0.000 C 
ATOM     12  C   UNL     1       0.022  10.912  21.550  0.00  0.00    +0.000 C 
ENDROOT
BRANCH   8  13
ATOM     13  N   UNL     1       1.730   6.827  18.987  0.00  0.00    +0.000 N 
ATOM     14  C   UNL     1       2.735   5.872  18.952  0.00  0.00    +0.000 C 
ATOM     15  O   UNL     1       3.905   6.132  19.161  0.00  0.00    +0.000 OA
ATOM     16  H   UNL     1       0.793   6.566  18.726  0.00  0.00    +0.000 HD
BRANCH  14  17
ATOM     17  C   UNL     1       2.222   4.448  18.685  0.00  0.00    +0.000 C 
ATOM     18  C   UNL     1       3.362   3.431  18.667  0.00  0.00    +0.000 C 
ATOM     19  C   UNL     1       3.887   3.101  20.060  0.00  0.00    +0.000 C 
ATOM     20  C   UNL     1       2.786   2.679  21.027  0.00  0.00    +0.000 C 
ATOM     21  C   UNL     1       1.543   3.567  21.026  0.00  0.00    +0.000 C 
ATOM     22  C   UNL     1       1.094   3.994  19.630  0.00  0.00    +0.000 C 
ENDBRANCH  14  17
ENDBRANCH   8  13
BRANCH   1  23
ATOM     23  C   UNL     1      -1.033  13.031  22.629  0.00  0.00    +0.000 C 
ATOM     24  C   UNL     1      -1.003  14.568  22.711  0.00  0.00    +0.000 C 
BRANCH  23  26
ATOM     25  N   UNL     1      -2.892  13.025  21.041  0.00  0.00    +0.000 N 
ATOM     26  C   UNL     1      -2.464  12.565  22.273  0.00  0.00    +0.000 C 
ATOM     27  O   UNL     1      -3.164  11.901  23.009  0.00  0.00    +0.000 OA
ATOM     28  H   UNL     1      -2.169  13.149  20.340  0.00  0.00    +0.000 HD
BRANCH  25  29
ATOM     29  C   UNL     1      -4.205  12.670  20.525  0.00  0.00    +0.000 C 
BRANCH  29  30
ATOM     30  C   UNL     1      -5.259  13.720  20.886  0.00  0.00    +0.000 C 
BRANCH  30  32
ATOM     31  C   UNL     1      -6.677  11.827  20.864  0.00  0.00    +0.000 C 
ATOM     32  O   UNL     1      -6.380  13.066  21.496  0.00  0.00    +0.000 OA
ENDBRANCH  30  32
ENDBRANCH  29  30
ENDBRANCH  25  29
ENDBRANCH  23  26
ENDBRANCH   1  23
BRANCH  12  33
ATOM     33  O   UNL     1       0.317  10.399  22.847  0.00  0.00    +0.000 OA
ATOM     34  H   UNL     1       0.600  11.139  23.411  0.00  0.00    +0.000 HD
ENDBRANCH  12  33
TORSDOF 8
ENDMDL
MODEL 6
REMARK VINA RESULT:      -7.0      0.864      1.112
REMARK  Name = 
REMARK  12 active torsions:
REMARK  status: ('A' for Active; 'I' for Inactive)
REMARK    1  A    between atoms: C_1  and  O_2
REMARK    2  A    between atoms: O_2  and  C_3
REMARK    3  A    between atoms: C_3  and  C_4
REMARK    4  A    between atoms: C_4  and  N_5
REMARK    5  A    between atoms: C_6  and  C_8
REMARK    6  A    between atoms: C_8  and  C_9
REMARK    7  A    between atoms: C_8  and  C_10
REMARK    8  A    between atoms: C_13  and  C_14
REMARK    9  A    between atoms: C_17  and  N_18
REMARK   10  A    between atoms: C_19  and  C_21
REMARK   11  A    between atoms: C_27  and  C_28
REMARK   12  A    between atoms: C_30  and  O_31
REMARK                            x       y       z     vdW  Elec       q    Type
REMARK                         _______ _______ _______ _____ _____    ______ ____
ROOT
ATOM      1  C   UNL     1      -0.973  13.113  21.049  0.00  0.00    +0.000 C 
ATOM      2  C   UNL     1      -1.055  13.345  19.541  0.00  0.00    +0.000 C 
ATOM      3  C   UNL     1      -0.257  12.427  18.633  0.00  0.00    +0.000 C 
ATOM      4  C   UNL     1       0.007  10.984  19.118  0.00  0.00    +0.000 C 
ATOM      5  C   UNL     1      -1.243  10.127  18.765  0.00  0.00    +0.000 C 
ATOM      6  C   UNL     1       1.230  10.461  18.332  0.00  0.00    +0.000 C 
ATOM      7  C   UNL     1       1.559   9.012  18.654  0.00  0.00    +0.000 C 
ATOM      8  C   UNL     1       1.695   8.735  20.165  0.00  0.00    +0.000 C 
ATOM      9  C   UNL     1       0.554   9.382  21.029  0.00  0.00    +0.000 C 
ATOM     10  C   UNL     1       0.741   9.086  22.528  0.00  0.00    +0.000 C 
ATOM     11  C   UNL     1       0.334  10.898  20.642  0.00  0.00    +0.000 C 
ATOM     12  C   UNL     1      -0.767  11.631  21.454  0.00  0.00    +0.000 C 
ENDROOT
BRANCH   8  13
ATOM     13  N   UNL     1       1.708   7.285  20.376  0.00  0.00    +0.000 N 
ATOM     14  C   UNL     1       2.556   6.415  19.706  0.00  0.00    +0.000 C 
ATOM     15  O   UNL     1       3.377   6.786  18.889  0.00  0.00    +0.000 OA
ATOM     16  H   UNL     1       0.995   6.910  20.981  0.00  0.00    +0.000 HD
BRANCH  14  17
ATOM     17  C   UNL     1       2.400   4.948  20.139  0.00  0.00    +0.000 C 
ATOM     18  C   UNL     1       1.182   4.294  19.491  0.00  0.00    +0.000 C 
ATOM     19  C   UNL     1       1.402   3.953  18.020  0.00  0.00    +0.000 C 
ATOM     20  C   UNL     1       2.663   3.130  17.782  0.00  0.00    +0.000 C 
ATOM     21  C   UNL     1       3.915   3.636  18.496  0.00  0.00    +0.000 C 
ATOM     22  C   UNL     1       3.663   4.090  19.932  0.00  0.00    +0.000 C 
ENDBRANCH  14  17
ENDBRANCH   8  13
BRANCH   1  23
ATOM     23  C   UNL     1      -2.205  13.775  21.777  0.00  0.00    +0.000 C 
ATOM     24  C   UNL     1      -2.342  15.274  21.455  0.00  0.00    +0.000 C 
BRANCH  23  26
ATOM     25  N   UNL     1      -4.138  13.482  20.308  0.00  0.00    +0.000 N 
ATOM     26  C   UNL     1      -3.546  13.063  21.486  0.00  0.00    +0.000 C 
ATOM     27  O   UNL     1      -4.057  12.250  22.228  0.00  0.00    +0.000 OA
ATOM     28  H   UNL     1      -3.501  13.769  19.572  0.00  0.00    +0.000 HD
BRANCH  25  29
ATOM     29  C   UNL     1      -5.396  12.908  19.857  0.00  0.00    +0.000 C 
BRANCH  29  30
ATOM     30  C   UNL     1      -5.175  11.792  18.832  0.00  0.00    +0.000 C 
BRANCH  30  32
ATOM     31  C   UNL     1      -6.973  10.911  20.091  0.00  0.00    +0.000 C 
ATOM     32  O   UNL     1      -6.320  10.929  18.829  0.00  0.00    +0.000 OA
ENDBRANCH  30  32
ENDBRANCH  29  30
ENDBRANCH  25  29
ENDBRANCH  23  26
ENDBRANCH   1  23
BRANCH  12  33
ATOM     33  O   UNL     1      -0.461  11.627  22.846  0.00  0.00    +0.000 OA
ATOM     34  H   UNL     1      -0.180  10.729  23.095  0.00  0.00    +0.000 HD
ENDBRANCH  12  33
TORSDOF 8
ENDMDL
MODEL 7
REMARK VINA RESULT:      -6.9      1.049      1.128
REMARK  Name = 
REMARK  12 active torsions:
REMARK  status: ('A' for Active; 'I' for Inactive)
REMARK    1  A    between atoms: C_1  and  O_2
REMARK    2  A    between atoms: O_2  and  C_3
REMARK    3  A    between atoms: C_3  and  C_4
REMARK    4  A    between atoms: C_4  and  N_5
REMARK    5  A    between atoms: C_6  and  C_8
REMARK    6  A    between atoms: C_8  and  C_9
REMARK    7  A    between atoms: C_8  and  C_10
REMARK    8  A    between atoms: C_13  and  C_14
REMARK    9  A    between atoms: C_17  and  N_18
REMARK   10  A    between atoms: C_19  and  C_21
REMARK   11  A    between atoms: C_27  and  C_28
REMARK   12  A    between atoms: C_30  and  O_31
REMARK                            x       y       z     vdW  Elec       q    Type
REMARK                         _______ _______ _______ _____ _____    ______ ____
ROOT
ATOM      1  C   UNL     1       0.018  13.076  20.683  0.00  0.00    +0.000 C 
ATOM      2  C   UNL     1       0.113  13.206  19.163  0.00  0.00    +0.000 C 
ATOM      3  C   UNL     1       0.742  12.063  18.387  0.00  0.00    +0.000 C 
ATOM      4  C   UNL     1       0.620  10.639  18.973  0.00  0.00    +0.000 C 
ATOM      5  C   UNL     1      -0.764  10.068  18.550  0.00  0.00    +0.000 C 
ATOM      6  C   UNL     1       1.744   9.792  18.337  0.00  0.00    +0.000 C 
ATOM      7  C   UNL     1       1.696   8.334  18.767  0.00  0.00    +0.000 C 
ATOM      8  C   UNL     1       1.642   8.148  20.297  0.00  0.00    +0.000 C 
ATOM      9  C   UNL     1       0.620   9.103  21.012  0.00  0.00    +0.000 C 
ATOM     10  C   UNL     1       0.612   8.885  22.536  0.00  0.00    +0.000 C 
ATOM     11  C   UNL     1       0.794  10.595  20.523  0.00  0.00    +0.000 C 
ATOM     12  C   UNL     1      -0.164  11.620  21.185  0.00  0.00    +0.000 C 
ENDROOT
BRANCH   8  13
ATOM     13  N   UNL     1       1.296   6.754  20.587  0.00  0.00    +0.000 N 
ATOM     14  C   UNL     1       2.148   5.684  20.357  0.00  0.00    +0.000 C 
ATOM     15  O   UNL     1       3.269   5.813  19.902  0.00  0.00    +0.000 OA
ATOM     16  H   UNL     1       0.352   6.576  20.890  0.00  0.00    +0.000 HD
BRANCH  14  17
ATOM     17  C   UNL     1       1.564   4.328  20.786  0.00  0.00    +0.000 C 
ATOM     18  C   UNL     1       0.719   3.700  19.680  0.00  0.00    +0.000 C 
ATOM     19  C   UNL     1       1.559   3.107  18.553  0.00  0.00    +0.000 C 
ATOM     20  C   UNL     1       2.625   2.137  19.053  0.00  0.00    +0.000 C 
ATOM     21  C   UNL     1       3.442   2.626  20.247  0.00  0.00    +0.000 C 
ATOM     22  C   UNL     1       2.609   3.329  21.317  0.00  0.00    +0.000 C 
ENDBRANCH  14  17
ENDBRANCH   8  13
BRANCH   1  23
ATOM     23  C   UNL     1      -1.078  14.055  21.253  0.00  0.00    +0.000 C 
ATOM     24  C   UNL     1      -1.163  15.370  20.457  0.00  0.00    +0.000 C 
BRANCH  23  26
ATOM     25  N   UNL     1      -3.383  13.961  20.442  0.00  0.00    +0.000 N 
ATOM     26  C   UNL     1      -2.485  13.419  21.342  0.00  0.00    +0.000 C 
ATOM     27  O   UNL     1      -2.791  12.562  22.146  0.00  0.00    +0.000 OA
ATOM     28  H   UNL     1      -2.988  14.289  19.567  0.00  0.00    +0.000 HD
BRANCH  25  29
ATOM     29  C   UNL     1      -4.751  13.474  20.364  0.00  0.00    +0.000 C 
BRANCH  29  30
ATOM     30  C   UNL     1      -4.889  12.327  19.359  0.00  0.00    +0.000 C 
BRANCH  30  32
ATOM     31  C   UNL     1      -6.378  10.651  18.606  0.00  0.00    +0.000 C 
ATOM     32  O   UNL     1      -6.212  11.781  19.451  0.00  0.00    +0.000 OA
ENDBRANCH  30  32
ENDBRANCH  29  30
ENDBRANCH  25  29
ENDBRANCH  23  26
ENDBRANCH   1  23
BRANCH  12  33
ATOM     33  O   UNL     1       0.020  11.651  22.599  0.00  0.00    +0.000 OA
ATOM     34  H   UNL     1      -0.382  12.468  22.942  0.00  0.00    +0.000 HD
ENDBRANCH  12  33
TORSDOF 8
ENDMDL
MODEL 8
REMARK VINA RESULT:      -6.9      0.995      1.541
REMARK  Name = 
REMARK  12 active torsions:
REMARK  status: ('A' for Active; 'I' for Inactive)
REMARK    1  A    between atoms: C_1  and  O_2
REMARK    2  A    between atoms: O_2  and  C_3
REMARK    3  A    between atoms: C_3  and  C_4
REMARK    4  A    between atoms: C_4  and  N_5
REMARK    5  A    between atoms: C_6  and  C_8
REMARK    6  A    between atoms: C_8  and  C_9
REMARK    7  A    between atoms: C_8  and  C_10
REMARK    8  A    between atoms: C_13  and  C_14
REMARK    9  A    between atoms: C_17  and  N_18
REMARK   10  A    between atoms: C_19  and  C_21
REMARK   11  A    between atoms: C_27  and  C_28
REMARK   12  A    between atoms: C_30  and  O_31
REMARK                            x       y       z     vdW  Elec       q    Type
REMARK                         _______ _______ _______ _____ _____    ______ ____
ROOT
ATOM      1  C   UNL     1       0.302  12.524  21.124  0.00  0.00    +0.000 C 
ATOM      2  C   UNL     1       0.375  13.117  19.717  0.00  0.00    +0.000 C 
ATOM      3  C   UNL     1       1.022  12.284  18.625  0.00  0.00    +0.000 C 
ATOM      4  C   UNL     1       0.942  10.747  18.747  0.00  0.00    +0.000 C 
ATOM      5  C   UNL     1      -0.432  10.294  18.175  0.00  0.00    +0.000 C 
ATOM      6  C   UNL     1       2.079  10.166  17.877  0.00  0.00    +0.000 C 
ATOM      7  C   UNL     1       2.073   8.646  17.839  0.00  0.00    +0.000 C 
ATOM      8  C   UNL     1       2.042   7.998  19.238  0.00  0.00    +0.000 C 
ATOM      9  C   UNL     1       1.006   8.660  20.217  0.00  0.00    +0.000 C 
ATOM     10  C   UNL     1       1.023   7.985  21.600  0.00  0.00    +0.000 C 
ATOM     11  C   UNL     1       1.137  10.234  20.208  0.00  0.00    +0.000 C 
ATOM     12  C   UNL     1       0.163  10.980  21.157  0.00  0.00    +0.000 C 
ENDROOT
BRANCH   8  13
ATOM     13  N   UNL     1       1.735   6.573  19.088  0.00  0.00    +0.000 N 
ATOM     14  C   UNL     1       2.689   5.602  18.824  0.00  0.00    +0.000 C 
ATOM     15  O   UNL     1       3.874   5.850  18.704  0.00  0.00    +0.000 OA
ATOM     16  H   UNL     1       0.760   6.318  19.096  0.00  0.00    +0.000 HD
BRANCH  14  17
ATOM     17  C   UNL     1       2.115   4.177  18.755  0.00  0.00    +0.000 C 
ATOM     18  C   UNL     1       3.219   3.122  18.762  0.00  0.00    +0.000 C 
ATOM     19  C   UNL     1       3.843   2.924  20.139  0.00  0.00    +0.000 C 
ATOM     20  C   UNL     1       2.811   2.651  21.228  0.00  0.00    +0.000 C 
ATOM     21  C   UNL     1       1.599   3.580  21.224  0.00  0.00    +0.000 C 
ATOM     22  C   UNL     1       1.052   3.871  19.828  0.00  0.00    +0.000 C 
ENDBRANCH  14  17
ENDBRANCH   8  13
BRANCH   1  23
ATOM     23  C   UNL     1      -0.811  13.251  21.972  0.00  0.00    +0.000 C 
ATOM     24  C   UNL     1      -0.801  14.777  21.769  0.00  0.00    +0.000 C 
BRANCH  23  26
ATOM     25  N   UNL     1      -2.766  13.136  20.508  0.00  0.00    +0.000 N 
ATOM     26  C   UNL     1      -2.235  12.709  21.712  0.00  0.00    +0.000 C 
ATOM     27  O   UNL     1      -2.850  12.015  22.495  0.00  0.00    +0.000 OA
ATOM     28  H   UNL     1      -2.098  13.293  19.762  0.00  0.00    +0.000 HD
BRANCH  25  29
ATOM     29  C   UNL     1      -4.090  12.710  20.081  0.00  0.00    +0.000 C 
BRANCH  29  30
ATOM     30  C   UNL     1      -4.019  11.533  19.104  0.00  0.00    +0.000 C 
BRANCH  30  32
ATOM     31  C   UNL     1      -3.953  11.326  16.749  0.00  0.00    +0.000 C 
ATOM     32  O   UNL     1      -3.401  11.974  17.887  0.00  0.00    +0.000 OA
ENDBRANCH  30  32
ENDBRANCH  29  30
ENDBRANCH  25  29
ENDBRANCH  23  26
ENDBRANCH   1  23
BRANCH  12  33
ATOM     33  O   UNL     1       0.363  10.581  22.511  0.00  0.00    +0.000 OA
ATOM     34  H   UNL     1       1.132  11.065  22.861  0.00  0.00    +0.000 HD
ENDBRANCH  12  33
TORSDOF 8
ENDMDL
MODEL 9
REMARK VINA RESULT:      -6.9      1.714      2.779
REMARK  Name = 
REMARK  12 active torsions:
REMARK  status: ('A' for Active; 'I' for Inactive)
REMARK    1  A    between atoms: C_1  and  O_2
REMARK    2  A    between atoms: O_2  and  C_3
REMARK    3  A    between atoms: C_3  and  C_4
REMARK    4  A    between atoms: C_4  and  N_5
REMARK    5  A    between atoms: C_6  and  C_8
REMARK    6  A    between atoms: C_8  and  C_9
REMARK    7  A    between atoms: C_8  and  C_10
REMARK    8  A    between atoms: C_13  and  C_14
REMARK    9  A    between atoms: C_17  and  N_18
REMARK   10  A    between atoms: C_19  and  C_21
REMARK   11  A    between atoms: C_27  and  C_28
REMARK   12  A    between atoms: C_30  and  O_31
REMARK                            x       y       z     vdW  Elec       q    Type
REMARK                         _______ _______ _______ _____ _____    ______ ____
ROOT
ATOM      1  C   UNL     1      -0.251  11.850  21.065  0.00  0.00    +0.000 C 
ATOM      2  C   UNL     1      -0.134  12.550  19.711  0.00  0.00    +0.000 C 
ATOM      3  C   UNL     1       0.727  11.899  18.644  0.00  0.00    +0.000 C 
ATOM      4  C   UNL     1       0.863  10.361  18.665  0.00  0.00    +0.000 C 
ATOM      5  C   UNL     1      -0.371   9.764  17.928  0.00  0.00    +0.000 C 
ATOM      6  C   UNL     1       2.149  10.011  17.883  0.00  0.00    +0.000 C 
ATOM      7  C   UNL     1       2.369   8.513  17.754  0.00  0.00    +0.000 C 
ATOM      8  C   UNL     1       2.304   7.765  19.101  0.00  0.00    +0.000 C 
ATOM      9  C   UNL     1       1.095   8.201  20.005  0.00  0.00    +0.000 C 
ATOM     10  C   UNL     1       1.081   7.434  21.340  0.00  0.00    +0.000 C 
ATOM     11  C   UNL     1       0.993   9.774  20.105  0.00  0.00    +0.000 C 
ATOM     12  C   UNL     1      -0.165  10.304  20.991  0.00  0.00    +0.000 C 
ENDROOT
BRANCH   8  13
ATOM     13  N   UNL     1       2.224   6.326  18.835  0.00  0.00    +0.000 N 
ATOM     14  C   UNL     1       3.261   5.438  19.079  0.00  0.00    +0.000 C 
ATOM     15  O   UNL     1       4.329   5.778  19.550  0.00  0.00    +0.000 OA
ATOM     16  H   UNL     1       1.393   5.998  18.370  0.00  0.00    +0.000 HD
BRANCH  14  17
ATOM     17  C   UNL     1       2.909   3.977  18.755  0.00  0.00    +0.000 C 
ATOM     18  C   UNL     1       3.585   3.005  19.720  0.00  0.00    +0.000 C 
ATOM     19  C   UNL     1       2.923   2.975  21.094  0.00  0.00    +0.000 C 
ATOM     20  C   UNL     1       1.420   2.731  21.026  0.00  0.00    +0.000 C 
ATOM     21  C   UNL     1       0.670   3.571  19.993  0.00  0.00    +0.000 C 
ATOM     22  C   UNL     1       1.398   3.696  18.657  0.00  0.00    +0.000 C 
ENDBRANCH  14  17
ENDBRANCH   8  13
BRANCH   1  23
ATOM     23  C   UNL     1      -1.532  12.350  21.836  0.00  0.00    +0.000 C 
ATOM     24  C   UNL     1      -1.189  12.993  23.191  0.00  0.00    +0.000 C 
BRANCH  23  26
ATOM     25  N   UNL     1      -2.173  14.653  21.322  0.00  0.00    +0.000 N 
ATOM     26  C   UNL     1      -2.404  13.325  21.012  0.00  0.00    +0.000 C 
ATOM     27  O   UNL     1      -3.239  12.972  20.205  0.00  0.00    +0.000 OA
ATOM     28  H   UNL     1      -1.228  14.880  21.614  0.00  0.00    +0.000 HD
BRANCH  25  29
ATOM     29  C   UNL     1      -2.885  15.718  20.632  0.00  0.00    +0.000 C 
BRANCH  29  30
ATOM     30  C   UNL     1      -1.949  16.863  20.236  0.00  0.00    +0.000 C 
BRANCH  30  32
ATOM     31  C   UNL     1      -0.324  16.279  18.620  0.00  0.00    +0.000 C 
ATOM     32  O   UNL     1      -0.636  16.334  20.006  0.00  0.00    +0.000 OA
ENDBRANCH  30  32
ENDBRANCH  29  30
ENDBRANCH  25  29
ENDBRANCH  23  26
ENDBRANCH   1  23
BRANCH  12  33
ATOM     33  O   UNL     1      -0.035   9.838  22.332  0.00  0.00    +0.000 OA
ATOM     34  H   UNL     1      -0.648  10.344  22.892  0.00  0.00    +0.000 HD
ENDBRANCH  12  33
TORSDOF 8
ENDMDL
