MODEL 1
REMARK VINA RESULT:      -7.4      0.000      0.000
REMARK  Name = 
REMARK  1 active torsions:
REMARK  status: ('A' for Active; 'I' for Inactive)
REMARK    1  A    between atoms: C_1  and  N_2
REMARK                            x       y       z     vdW  Elec       q    Type
REMARK                         _______ _______ _______ _____ _____    ______ ____
ROOT
ATOM      1  C   UNL     1       2.756   2.353  16.682  0.00  0.00    +0.000 C 
ATOM      2  N   UNL     1       3.275   3.277  17.705  0.00  0.00    +0.000 N 
ATOM      3  C   UNL     1       2.735   3.374  18.958  0.00  0.00    +0.000 A 
ATOM      4  C   UNL     1       1.632   2.606  19.390  0.00  0.00    +0.000 A 
ATOM      5  C   UNL     1       1.104   2.729  20.679  0.00  0.00    +0.000 A 
ATOM      6  C   UNL     1       1.661   3.626  21.575  0.00  0.00    +0.000 A 
ATOM      7  C   UNL     1       2.748   4.402  21.183  0.00  0.00    +0.000 A 
ATOM      8  C   UNL     1       3.292   4.290  19.893  0.00  0.00    +0.000 A 
ATOM      9  C   UNL     1       4.381   5.093  19.561  0.00  0.00    +0.000 A 
ATOM     10  C   UNL     1       4.898   4.964  18.281  0.00  0.00    +0.000 A 
ATOM     11  N   UNL     1       5.954   5.623  17.692  0.00  0.00    +0.000 N 
ATOM     12  C   UNL     1       6.134   5.191  16.399  0.00  0.00    +0.000 A 
ATOM     13  C   UNL     1       7.086   5.592  15.449  0.00  0.00    +0.000 A 
ATOM     14  C   UNL     1       7.056   4.990  14.186  0.00  0.00    +0.000 A 
ATOM     15 CL   UNL     1       8.240   5.506  13.039  0.00  0.00    +0.000 Cl
ATOM     16  C   UNL     1       6.101   4.018  13.893  0.00  0.00    +0.000 A 
ATOM     17 BR   UNL     1       5.997   3.154  12.202  0.00  0.00    +0.000 Br
ATOM     18  C   UNL     1       5.156   3.630  14.858  0.00  0.00    +0.000 A 
ATOM     19  C   UNL     1       5.163   4.222  16.144  0.00  0.00    +0.000 A 
ATOM     20  C   UNL     1       4.377   4.080  17.345  0.00  0.00    +0.000 A 
ATOM     21  H   UNL     1       6.523   6.328  18.145  0.00  0.00    +0.000 HD
ENDROOT
TORSDOF 0
ENDMDL
MODEL 2
REMARK VINA RESULT:      -7.2      5.416      6.558
REMARK  Name = 
REMARK  1 active torsions:
REMARK  status: ('A' for Active; 'I' for Inactive)
REMARK    1  A    between atoms: C_1  and  N_2
REMARK                            x       y       z     vdW  Elec       q    Type
REMARK                         _______ _______ _______ _____ _____    ______ ____
ROOT
ATOM      1  C   UNL     1       1.867  10.264  17.977  0.00  0.00    +0.000 C 
ATOM      2  N   UNL     1       1.352   9.727  19.248  0.00  0.00    +0.000 N 
ATOM      3  C   UNL     1       0.515  10.435  20.068  0.00  0.00    +0.000 A 
ATOM      4  C   UNL     1       0.067  11.742  19.777  0.00  0.00    +0.000 A 
ATOM      5  C   UNL     1      -0.789  12.439  20.635  0.00  0.00    +0.000 A 
ATOM      6  C   UNL     1      -1.223  11.849  21.812  0.00  0.00    +0.000 A 
ATOM      7  C   UNL     1      -0.800  10.562  22.132  0.00  0.00    +0.000 A 
ATOM      8  C   UNL     1       0.059   9.849  21.281  0.00  0.00    +0.000 A 
ATOM      9  C   UNL     1       0.446   8.563  21.655  0.00  0.00    +0.000 A 
ATOM     10  C   UNL     1       1.295   7.881  20.798  0.00  0.00    +0.000 A 
ATOM     11  N   UNL     1       1.829   6.617  20.917  0.00  0.00    +0.000 N 
ATOM     12  C   UNL     1       2.626   6.325  19.835  0.00  0.00    +0.000 A 
ATOM     13  C   UNL     1       3.356   5.160  19.554  0.00  0.00    +0.000 A 
ATOM     14  C   UNL     1       4.099   5.112  18.368  0.00  0.00    +0.000 A 
ATOM     15 CL   UNL     1       4.986   3.665  18.051  0.00  0.00    +0.000 Cl
ATOM     16  C   UNL     1       4.105   6.202  17.499  0.00  0.00    +0.000 A 
ATOM     17 BR   UNL     1       5.088   6.214  15.871  0.00  0.00    +0.000 Br
ATOM     18  C   UNL     1       3.368   7.361  17.799  0.00  0.00    +0.000 A 
ATOM     19  C   UNL     1       2.607   7.436  18.990  0.00  0.00    +0.000 A 
ATOM     20  C   UNL     1       1.759   8.425  19.608  0.00  0.00    +0.000 A 
ATOM     21  H   UNL     1       1.660   5.986  21.691  0.00  0.00    +0.000 HD
ENDROOT
TORSDOF 0
ENDMDL
MODEL 3
REMARK VINA RESULT:      -7.1      5.768      7.050
REMARK  Name = 
REMARK  1 active torsions:
REMARK  status: ('A' for Active; 'I' for Inactive)
REMARK    1  A    between atoms: C_1  and  N_2
REMARK                            x       y       z     vdW  Elec       q    Type
REMARK                         _______ _______ _______ _____ _____    ______ ____
ROOT
ATOM      1  C   UNL     1       0.562   8.317  21.666  0.00  0.00    +0.000 C 
ATOM      2  N   UNL     1       1.036   8.935  20.416  0.00  0.00    +0.000 N 
ATOM      3  C   UNL     1       0.810  10.248  20.105  0.00  0.00    +0.000 A 
ATOM      4  C   UNL     1       0.102  11.133  20.946  0.00  0.00    +0.000 A 
ATOM      5  C   UNL     1      -0.112  12.471  20.600  0.00  0.00    +0.000 A 
ATOM      6  C   UNL     1       0.374  12.963  19.399  0.00  0.00    +0.000 A 
ATOM      7  C   UNL     1       1.075  12.118  18.544  0.00  0.00    +0.000 A 
ATOM      8  C   UNL     1       1.299  10.773  18.877  0.00  0.00    +0.000 A 
ATOM      9  C   UNL     1       2.010   9.977  17.980  0.00  0.00    +0.000 A 
ATOM     10  C   UNL     1       2.217   8.653  18.333  0.00  0.00    +0.000 A 
ATOM     11  N   UNL     1       2.874   7.656  17.646  0.00  0.00    +0.000 N 
ATOM     12  C   UNL     1       2.848   6.480  18.358  0.00  0.00    +0.000 A 
ATOM     13  C   UNL     1       3.393   5.229  18.032  0.00  0.00    +0.000 A 
ATOM     14  C   UNL     1       3.227   4.176  18.940  0.00  0.00    +0.000 A 
ATOM     15 CL   UNL     1       3.908   2.648  18.510  0.00  0.00    +0.000 Cl
ATOM     16  C   UNL     1       2.538   4.381  20.134  0.00  0.00    +0.000 A 
ATOM     17 BR   UNL     1       2.271   3.004  21.419  0.00  0.00    +0.000 Br
ATOM     18  C   UNL     1       2.000   5.643  20.443  0.00  0.00    +0.000 A 
ATOM     19  C   UNL     1       2.153   6.724  19.543  0.00  0.00    +0.000 A 
ATOM     20  C   UNL     1       1.751   8.109  19.522  0.00  0.00    +0.000 A 
ATOM     21  H   UNL     1       3.317   7.769  16.742  0.00  0.00    +0.000 HD
ENDROOT
TORSDOF 0
ENDMDL
MODEL 4
REMARK VINA RESULT:      -7.1      5.240      6.504
REMARK  Name = 
REMARK  1 active torsions:
REMARK  status: ('A' for Active; 'I' for Inactive)
REMARK    1  A    between atoms: C_1  and  N_2
REMARK                            x       y       z     vdW  Elec       q    Type
REMARK                         _______ _______ _______ _____ _____    ______ ____
ROOT
ATOM      1  C   UNL     1       2.229   9.333  17.616  0.00  0.00    +0.000 C 
ATOM      2  N   UNL     1       1.656   9.142  18.959  0.00  0.00    +0.000 N 
ATOM      3  C   UNL     1       0.951  10.117  19.611  0.00  0.00    +0.000 A 
ATOM      4  C   UNL     1       0.707  11.395  19.063  0.00  0.00    +0.000 A 
ATOM      5  C   UNL     1      -0.018  12.371  19.755  0.00  0.00    +0.000 A 
ATOM      6  C   UNL     1      -0.519  12.098  21.017  0.00  0.00    +0.000 A 
ATOM      7  C   UNL     1      -0.297  10.849  21.589  0.00  0.00    +0.000 A 
ATOM      8  C   UNL     1       0.428   9.858  20.908  0.00  0.00    +0.000 A 
ATOM      9  C   UNL     1       0.616   8.626  21.532  0.00  0.00    +0.000 A 
ATOM     10  C   UNL     1       1.337   7.666  20.838  0.00  0.00    +0.000 A 
ATOM     11  N   UNL     1       1.670   6.383  21.211  0.00  0.00    +0.000 N 
ATOM     12  C   UNL     1       2.396   5.765  20.220  0.00  0.00    +0.000 A 
ATOM     13  C   UNL     1       2.931   4.468  20.184  0.00  0.00    +0.000 A 
ATOM     14  C   UNL     1       3.640   4.075  19.042  0.00  0.00    +0.000 A 
ATOM     15 CL   UNL     1       4.287   2.473  19.028  0.00  0.00    +0.000 Cl
ATOM     16  C   UNL     1       3.802   4.958  17.977  0.00  0.00    +0.000 A 
ATOM     17 BR   UNL     1       4.750   4.500  16.394  0.00  0.00    +0.000 Br
ATOM     18  C   UNL     1       3.258   6.254  18.032  0.00  0.00    +0.000 A 
ATOM     19  C   UNL     1       2.537   6.678  19.174  0.00  0.00    +0.000 A 
ATOM     20  C   UNL     1       1.861   7.888  19.572  0.00  0.00    +0.000 A 
ATOM     21  H   UNL     1       1.417   5.950  22.091  0.00  0.00    +0.000 HD
ENDROOT
TORSDOF 0
ENDMDL
MODEL 5
REMARK VINA RESULT:      -7.1      5.917      7.495
REMARK  Name = 
REMARK  1 active torsions:
REMARK  status: ('A' for Active; 'I' for Inactive)
REMARK    1  A    between atoms: C_1  and  N_2
REMARK                            x       y       z     vdW  Elec       q    Type
REMARK                         _______ _______ _______ _____ _____    ______ ____
ROOT
ATOM      1  C   UNL     1       1.945   5.793  20.988  0.00  0.00    +0.000 C 
ATOM      2  N   UNL     1       2.473   6.241  19.688  0.00  0.00    +0.000 N 
ATOM      3  C   UNL     1       3.219   5.434  18.873  0.00  0.00    +0.000 A 
ATOM      4  C   UNL     1       3.555   4.102  19.197  0.00  0.00    +0.000 A 
ATOM      5  C   UNL     1       4.319   3.302  18.342  0.00  0.00    +0.000 A 
ATOM      6  C   UNL     1       4.772   3.811  17.136  0.00  0.00    +0.000 A 
ATOM      7  C   UNL     1       4.461   5.121  16.783  0.00  0.00    +0.000 A 
ATOM      8  C   UNL     1       3.695   5.938  17.630  0.00  0.00    +0.000 A 
ATOM      9  C   UNL     1       3.415   7.240  17.222  0.00  0.00    +0.000 A 
ATOM     10  C   UNL     1       2.657   8.025  18.077  0.00  0.00    +0.000 A 
ATOM     11  N   UNL     1       2.239   9.329  17.930  0.00  0.00    +0.000 N 
ATOM     12  C   UNL     1       1.502   9.727  19.020  0.00  0.00    +0.000 A 
ATOM     13  C   UNL     1       0.890  10.963  19.279  0.00  0.00    +0.000 A 
ATOM     14  C   UNL     1       0.187  11.116  20.481  0.00  0.00    +0.000 A 
ATOM     15 CL   UNL     1      -0.555  12.648  20.771  0.00  0.00    +0.000 Cl
ATOM     16  C   UNL     1       0.104  10.059  21.385  0.00  0.00    +0.000 A 
ATOM     17 BR   UNL     1      -0.832  10.187  23.036  0.00  0.00    +0.000 Br
ATOM     18  C   UNL     1       0.724   8.828  21.107  0.00  0.00    +0.000 A 
ATOM     19  C   UNL     1       1.441   8.646  19.900  0.00  0.00    +0.000 A 
ATOM     20  C   UNL     1       2.179   7.564  19.296  0.00  0.00    +0.000 A 
ATOM     21  H   UNL     1       2.443   9.917  17.130  0.00  0.00    +0.000 HD
ENDROOT
TORSDOF 0
ENDMDL
MODEL 6
REMARK VINA RESULT:      -6.9      6.969      8.366
REMARK  Name = 
REMARK  1 active torsions:
REMARK  status: ('A' for Active; 'I' for Inactive)
REMARK    1  A    between atoms: C_1  and  N_2
REMARK                            x       y       z     vdW  Elec       q    Type
REMARK                         _______ _______ _______ _____ _____    ______ ____
ROOT
ATOM      1  C   UNL     1       1.192   7.459  21.445  0.00  0.00    +0.000 C 
ATOM      2  N   UNL     1       1.750   7.678  20.100  0.00  0.00    +0.000 N 
ATOM      3  C   UNL     1       2.502   6.739  19.447  0.00  0.00    +0.000 A 
ATOM      4  C   UNL     1       2.817   5.478  19.998  0.00  0.00    +0.000 A 
ATOM      5  C   UNL     1       3.587   4.539  19.304  0.00  0.00    +0.000 A 
ATOM      6  C   UNL     1       4.068   4.835  18.039  0.00  0.00    +0.000 A 
ATOM      7  C   UNL     1       3.779   6.070  17.466  0.00  0.00    +0.000 A 
ATOM      8  C   UNL     1       3.006   7.023  18.148  0.00  0.00    +0.000 A 
ATOM      9  C   UNL     1       2.749   8.241  17.520  0.00  0.00    +0.000 A 
ATOM     10  C   UNL     1       1.984   9.164  18.216  0.00  0.00    +0.000 A 
ATOM     11  N   UNL     1       1.583  10.428  17.843  0.00  0.00    +0.000 N 
ATOM     12  C   UNL     1       0.830  11.009  18.836  0.00  0.00    +0.000 A 
ATOM     13  C   UNL     1       0.228  12.276  18.871  0.00  0.00    +0.000 A 
ATOM     14  C   UNL     1      -0.496  12.634  20.015  0.00  0.00    +0.000 A 
ATOM     15 CL   UNL     1      -1.226  14.200  20.029  0.00  0.00    +0.000 Cl
ATOM     16  C   UNL     1      -0.608  11.746  21.083  0.00  0.00    +0.000 A 
ATOM     17 BR   UNL     1      -1.573  12.157  22.669  0.00  0.00    +0.000 Br
ATOM     18  C   UNL     1       0.003  10.481  21.028  0.00  0.00    +0.000 A 
ATOM     19  C   UNL     1       0.741  10.092  19.884  0.00  0.00    +0.000 A 
ATOM     20  C   UNL     1       1.478   8.918  19.485  0.00  0.00    +0.000 A 
ATOM     21  H   UNL     1       1.809  10.871  16.961  0.00  0.00    +0.000 HD
ENDROOT
TORSDOF 0
ENDMDL
MODEL 7
REMARK VINA RESULT:      -6.7      7.283      8.451
REMARK  Name = 
REMARK  1 active torsions:
REMARK  status: ('A' for Active; 'I' for Inactive)
REMARK    1  A    between atoms: C_1  and  N_2
REMARK                            x       y       z     vdW  Elec       q    Type
REMARK                         _______ _______ _______ _____ _____    ______ ____
ROOT
ATOM      1  C   UNL     1      -0.074   9.338  22.627  0.00  0.00    +0.000 C 
ATOM      2  N   UNL     1      -0.024  10.372  21.579  0.00  0.00    +0.000 N 
ATOM      3  C   UNL     1      -0.583  11.611  21.732  0.00  0.00    +0.000 A 
ATOM      4  C   UNL     1      -1.261  12.017  22.902  0.00  0.00    +0.000 A 
ATOM      5  C   UNL     1      -1.821  13.292  23.028  0.00  0.00    +0.000 A 
ATOM      6  C   UNL     1      -1.722  14.199  21.986  0.00  0.00    +0.000 A 
ATOM      7  C   UNL     1      -1.063  13.833  20.817  0.00  0.00    +0.000 A 
ATOM      8  C   UNL     1      -0.494  12.557  20.674  0.00  0.00    +0.000 A 
ATOM      9  C   UNL     1       0.155  12.250  19.479  0.00  0.00    +0.000 A 
ATOM     10  C   UNL     1       0.707  10.983  19.364  0.00  0.00    +0.000 A 
ATOM     11  N   UNL     1       1.393  10.420  18.312  0.00  0.00    +0.000 N 
ATOM     12  C   UNL     1       1.770   9.133  18.614  0.00  0.00    +0.000 A 
ATOM     13  C   UNL     1       2.480   8.206  17.836  0.00  0.00    +0.000 A 
ATOM     14  C   UNL     1       2.741   6.943  18.382  0.00  0.00    +0.000 A 
ATOM     15 CL   UNL     1       3.617   5.825  17.400  0.00  0.00    +0.000 Cl
ATOM     16  C   UNL     1       2.301   6.629  19.666  0.00  0.00    +0.000 A 
ATOM     17 BR   UNL     1       2.616   4.938  20.478  0.00  0.00    +0.000 Br
ATOM     18  C   UNL     1       1.591   7.572  20.430  0.00  0.00    +0.000 A 
ATOM     19  C   UNL     1       1.314   8.856  19.903  0.00  0.00    +0.000 A 
ATOM     20  C   UNL     1       0.636  10.037  20.377  0.00  0.00    +0.000 A 
ATOM     21  H   UNL     1       1.594  10.885  17.434  0.00  0.00    +0.000 HD
ENDROOT
TORSDOF 0
ENDMDL
MODEL 8
REMARK VINA RESULT:      -6.6      7.317      9.064
REMARK  Name = 
REMARK  1 active torsions:
REMARK  status: ('A' for Active; 'I' for Inactive)
REMARK    1  A    between atoms: C_1  and  N_2
REMARK                            x       y       z     vdW  Elec       q    Type
REMARK                         _______ _______ _______ _____ _____    ______ ____
ROOT
ATOM      1  C   UNL     1       1.868   9.968  17.965  0.00  0.00    +0.000 C 
ATOM      2  N   UNL     1       1.782   8.909  18.985  0.00  0.00    +0.000 N 
ATOM      3  C   UNL     1       2.366   7.681  18.830  0.00  0.00    +0.000 A 
ATOM      4  C   UNL     1       3.102   7.311  17.683  0.00  0.00    +0.000 A 
ATOM      5  C   UNL     1       3.688   6.048  17.556  0.00  0.00    +0.000 A 
ATOM      6  C   UNL     1       3.554   5.115  18.571  0.00  0.00    +0.000 A 
ATOM      7  C   UNL     1       2.834   5.444  19.715  0.00  0.00    +0.000 A 
ATOM      8  C   UNL     1       2.240   6.708  19.860  0.00  0.00    +0.000 A 
ATOM      9  C   UNL     1       1.533   6.979  21.030  0.00  0.00    +0.000 A 
ATOM     10  C   UNL     1       0.955   8.235  21.147  0.00  0.00    +0.000 A 
ATOM     11  N   UNL     1       0.211   8.763  22.177  0.00  0.00    +0.000 N 
ATOM     12  C   UNL     1      -0.171  10.051  21.887  0.00  0.00    +0.000 A 
ATOM     13  C   UNL     1      -0.931  10.950  22.651  0.00  0.00    +0.000 A 
ATOM     14  C   UNL     1      -1.184  12.222  22.122  0.00  0.00    +0.000 A 
ATOM     15 CL   UNL     1      -2.122  13.305  23.087  0.00  0.00    +0.000 Cl
ATOM     16  C   UNL     1      -0.687  12.573  20.868  0.00  0.00    +0.000 A 
ATOM     17 BR   UNL     1      -0.987  14.278  20.083  0.00  0.00    +0.000 Br
ATOM     18  C   UNL     1       0.072  11.658  20.118  0.00  0.00    +0.000 A 
ATOM     19  C   UNL     1       0.343  10.366  20.628  0.00  0.00    +0.000 A 
ATOM     20  C   UNL     1       1.060   9.205  20.160  0.00  0.00    +0.000 A 
ATOM     21  H   UNL     1      -0.025   8.275  23.033  0.00  0.00    +0.000 HD
ENDROOT
TORSDOF 0
ENDMDL
MODEL 9
REMARK VINA RESULT:      -6.6      8.125      9.564
REMARK  Name = 
REMARK  1 active torsions:
REMARK  status: ('A' for Active; 'I' for Inactive)
REMARK    1  A    between atoms: C_1  and  N_2
REMARK                            x       y       z     vdW  Elec       q    Type
REMARK                         _______ _______ _______ _____ _____    ______ ____
ROOT
ATOM      1  C   UNL     1       0.597   8.595  21.783  0.00  0.00    +0.000 C 
ATOM      2  N   UNL     1       1.074   8.871  20.418  0.00  0.00    +0.000 N 
ATOM      3  C   UNL     1       1.836   7.987  19.704  0.00  0.00    +0.000 A 
ATOM      4  C   UNL     1       2.240   6.730  20.206  0.00  0.00    +0.000 A 
ATOM      5  C   UNL     1       3.019   5.848  19.451  0.00  0.00    +0.000 A 
ATOM      6  C   UNL     1       3.420   6.196  18.172  0.00  0.00    +0.000 A 
ATOM      7  C   UNL     1       3.042   7.428  17.645  0.00  0.00    +0.000 A 
ATOM      8  C   UNL     1       2.259   8.325  18.389  0.00  0.00    +0.000 A 
ATOM      9  C   UNL     1       1.911   9.543  17.807  0.00  0.00    +0.000 A 
ATOM     10  C   UNL     1       1.139  10.411  18.563  0.00  0.00    +0.000 A 
ATOM     11  N   UNL     1       0.659  11.661  18.243  0.00  0.00    +0.000 N 
ATOM     12  C   UNL     1      -0.070  12.181  19.286  0.00  0.00    +0.000 A 
ATOM     13  C   UNL     1      -0.731  13.415  19.384  0.00  0.00    +0.000 A 
ATOM     14  C   UNL     1      -1.412  13.711  20.571  0.00  0.00    +0.000 A 
ATOM     15 CL   UNL     1      -2.215  15.237  20.661  0.00  0.00    +0.000 Cl
ATOM     16  C   UNL     1      -1.426  12.793  21.620  0.00  0.00    +0.000 A 
ATOM     17 BR   UNL     1      -2.328  13.119  23.262  0.00  0.00    +0.000 Br
ATOM     18  C   UNL     1      -0.757  11.562  21.503  0.00  0.00    +0.000 A 
ATOM     19  C   UNL     1      -0.061  11.237  20.314  0.00  0.00    +0.000 A 
ATOM     20  C   UNL     1       0.711  10.111  19.849  0.00  0.00    +0.000 A 
ATOM     21  H   UNL     1       0.818  12.136  17.362  0.00  0.00    +0.000 HD
ENDROOT
TORSDOF 0
ENDMDL
