MODEL 1
REMARK VINA RESULT:      -7.7      0.000      0.000
REMARK  Name = 
REMARK  8 active torsions:
REMARK  status: ('A' for Active; 'I' for Inactive)
REMARK    1  A    between atoms: C_1  and  C_2
REMARK    2  A    between atoms: C_4  and  N_5
REMARK    3  A    between atoms: N_5  and  C_6
REMARK    4  A    between atoms: C_6  and  C_7
REMARK    5  A    between atoms: N_9  and  C_10
REMARK    6  A    between atoms: N_9  and  C_11
REMARK    7  A    between atoms: C_11  and  C_12
REMARK    8  A    between atoms: C_16  and  C_17
REMARK                            x       y       z     vdW  Elec       q    Type
REMARK                         _______ _______ _______ _____ _____    ______ ____
ROOT
ATOM      1  C   UNL     1       5.764   3.188  11.961  0.00  0.00    +0.000 C 
ATOM      2  C   UNL     1       6.161   3.813  13.266  0.00  0.00    +0.000 A 
ATOM      3  C   UNL     1       5.512   3.475  14.465  0.00  0.00    +0.000 A 
ATOM      4  C   UNL     1       5.878   4.048  15.700  0.00  0.00    +0.000 A 
ATOM      5  C   UNL     1       6.932   4.995  15.694  0.00  0.00    +0.000 A 
ATOM      6  C   UNL     1       7.579   5.339  14.495  0.00  0.00    +0.000 A 
ATOM      7  C   UNL     1       7.186   4.754  13.301  0.00  0.00    +0.000 A 
ATOM      8  F   UNL     1       7.797   5.115  12.164  0.00  0.00    +0.000 F 
ENDROOT
BRANCH   5   9
ATOM      9  C   UNL     1       7.394   5.725  16.911  0.00  0.00    +0.000 C 
ATOM     10  N   UNL     1       7.595   7.069  16.802  0.00  0.00    +0.000 N 
ATOM     11  O   UNL     1       7.636   5.137  17.961  0.00  0.00    +0.000 OA
ATOM     12  H   UNL     1       7.400   7.555  15.932  0.00  0.00    +0.000 HD
ATOM     13  H   UNL     1       7.896   7.590  17.610  0.00  0.00    +0.000 HD
ENDBRANCH   5   9
BRANCH   4  14
ATOM     14  N   UNL     1       5.200   3.740  16.882  0.00  0.00    +0.000 N 
ATOM     15  H   UNL     1       5.256   2.755  17.163  0.00  0.00    +0.000 HD
BRANCH  14  16
ATOM     16  C   UNL     1       3.956   4.399  17.266  0.00  0.00    +0.000 C 
BRANCH  16  17
ATOM     17  C   UNL     1       3.647   4.183  18.758  0.00  0.00    +0.000 C 
ATOM     18  O   UNL     1       3.926   5.036  19.600  0.00  0.00    +0.000 OA
ATOM     19  N   UNL     1       3.042   2.979  19.111  0.00  0.00    +0.000 N 
ATOM     20  C   UNL     1       2.840   1.854  18.208  0.00  0.00    +0.000 C 
BRANCH  19  21
ATOM     21  C   UNL     1       2.781   2.734  20.544  0.00  0.00    +0.000 C 
BRANCH  21  22
ATOM     22  C   UNL     1       1.388   3.135  21.054  0.00  0.00    +0.000 C 
ATOM     23  F   UNL     1       1.045   2.487  22.189  0.00  0.00    +0.000 F 
ATOM     24  F   UNL     1       1.302   4.462  21.288  0.00  0.00    +0.000 F 
ATOM     25  F   UNL     1       0.448   2.829  20.126  0.00  0.00    +0.000 F 
ENDBRANCH  21  22
ENDBRANCH  19  21
ENDBRANCH  16  17
ENDBRANCH  14  16
ENDBRANCH   4  14
TORSDOF 6
ENDMDL
MODEL 2
REMARK VINA RESULT:      -7.7      2.399      6.429
REMARK  Name = 
REMARK  8 active torsions:
REMARK  status: ('A' for Active; 'I' for Inactive)
REMARK    1  A    between atoms: C_1  and  C_2
REMARK    2  A    between atoms: C_4  and  N_5
REMARK    3  A    between atoms: N_5  and  C_6
REMARK    4  A    between atoms: C_6  and  C_7
REMARK    5  A    between atoms: N_9  and  C_10
REMARK    6  A    between atoms: N_9  and  C_11
REMARK    7  A    between atoms: C_11  and  C_12
REMARK    8  A    between atoms: C_16  and  C_17
REMARK                            x       y       z     vdW  Elec       q    Type
REMARK                         _______ _______ _______ _____ _____    ______ ____
ROOT
ATOM      1  C   UNL     1       2.195   7.558  17.865  0.00  0.00    +0.000 C 
ATOM      2  C   UNL     1       2.806   6.240  18.236  0.00  0.00    +0.000 A 
ATOM      3  C   UNL     1       4.089   6.163  18.805  0.00  0.00    +0.000 A 
ATOM      4  C   UNL     1       4.674   4.933  19.166  0.00  0.00    +0.000 A 
ATOM      5  C   UNL     1       3.920   3.756  18.928  0.00  0.00    +0.000 A 
ATOM      6  C   UNL     1       2.640   3.829  18.355  0.00  0.00    +0.000 A 
ATOM      7  C   UNL     1       2.102   5.060  18.011  0.00  0.00    +0.000 A 
ATOM      8  F   UNL     1       0.890   5.107  17.440  0.00  0.00    +0.000 F 
ENDROOT
BRANCH   5   9
ATOM      9  C   UNL     1       4.427   2.380  19.207  0.00  0.00    +0.000 C 
ATOM     10  N   UNL     1       4.142   1.407  18.297  0.00  0.00    +0.000 N 
ATOM     11  O   UNL     1       5.034   2.115  20.240  0.00  0.00    +0.000 OA
ATOM     12  H   UNL     1       3.635   1.625  17.444  0.00  0.00    +0.000 HD
ATOM     13  H   UNL     1       4.480   0.470  18.452  0.00  0.00    +0.000 HD
ENDBRANCH   5   9
BRANCH   4  14
ATOM     14  N   UNL     1       5.966   4.860  19.691  0.00  0.00    +0.000 N 
ATOM     15  H   UNL     1       6.010   4.788  20.713  0.00  0.00    +0.000 HD
BRANCH  14  16
ATOM     16  C   UNL     1       7.095   5.570  19.096  0.00  0.00    +0.000 C 
BRANCH  16  17
ATOM     17  C   UNL     1       7.476   4.968  17.732  0.00  0.00    +0.000 C 
ATOM     18  O   UNL     1       8.236   4.003  17.648  0.00  0.00    +0.000 OA
ATOM     19  N   UNL     1       6.926   5.565  16.600  0.00  0.00    +0.000 N 
ATOM     20  C   UNL     1       6.166   6.807  16.603  0.00  0.00    +0.000 C 
BRANCH  19  21
ATOM     21  C   UNL     1       7.318   5.030  15.281  0.00  0.00    +0.000 C 
BRANCH  21  22
ATOM     22  C   UNL     1       6.302   4.100  14.601  0.00  0.00    +0.000 C 
ATOM     23  F   UNL     1       6.754   3.609  13.425  0.00  0.00    +0.000 F 
ATOM     24  F   UNL     1       5.971   3.055  15.390  0.00  0.00    +0.000 F 
ATOM     25  F   UNL     1       5.159   4.779  14.332  0.00  0.00    +0.000 F 
ENDBRANCH  21  22
ENDBRANCH  19  21
ENDBRANCH  16  17
ENDBRANCH  14  16
ENDBRANCH   4  14
TORSDOF 6
ENDMDL
MODEL 3
REMARK VINA RESULT:      -7.7      3.235      6.864
REMARK  Name = 
REMARK  8 active torsions:
REMARK  status: ('A' for Active; 'I' for Inactive)
REMARK    1  A    between atoms: C_1  and  C_2
REMARK    2  A    between atoms: C_4  and  N_5
REMARK    3  A    between atoms: N_5  and  C_6
REMARK    4  A    between atoms: C_6  and  C_7
REMARK    5  A    between atoms: N_9  and  C_10
REMARK    6  A    between atoms: N_9  and  C_11
REMARK    7  A    between atoms: C_11  and  C_12
REMARK    8  A    between atoms: C_16  and  C_17
REMARK                            x       y       z     vdW  Elec       q    Type
REMARK                         _______ _______ _______ _____ _____    ______ ____
ROOT
ATOM      1  C   UNL     1       2.495   8.531  17.948  0.00  0.00    +0.000 C 
ATOM      2  C   UNL     1       2.335   7.267  18.739  0.00  0.00    +0.000 A 
ATOM      3  C   UNL     1       2.651   6.014  18.187  0.00  0.00    +0.000 A 
ATOM      4  C   UNL     1       2.513   4.818  18.920  0.00  0.00    +0.000 A 
ATOM      5  C   UNL     1       2.031   4.918  20.249  0.00  0.00    +0.000 A 
ATOM      6  C   UNL     1       1.710   6.169  20.802  0.00  0.00    +0.000 A 
ATOM      7  C   UNL     1       1.858   7.322  20.045  0.00  0.00    +0.000 A 
ATOM      8  F   UNL     1       1.520   8.503  20.582  0.00  0.00    +0.000 F 
ENDROOT
BRANCH   5   9
ATOM      9  C   UNL     1       1.782   3.739  21.129  0.00  0.00    +0.000 C 
ATOM     10  N   UNL     1       0.700   2.960  20.846  0.00  0.00    +0.000 N 
ATOM     11  O   UNL     1       2.490   3.501  22.103  0.00  0.00    +0.000 OA
ATOM     12  H   UNL     1       0.111   3.159  20.043  0.00  0.00    +0.000 HD
ATOM     13  H   UNL     1       0.512   2.150  21.416  0.00  0.00    +0.000 HD
ENDBRANCH   5   9
BRANCH   4  14
ATOM     14  N   UNL     1       2.787   3.572  18.351  0.00  0.00    +0.000 N 
ATOM     15  H   UNL     1       2.635   2.774  18.976  0.00  0.00    +0.000 HD
BRANCH  14  16
ATOM     16  C   UNL     1       3.858   3.373  17.379  0.00  0.00    +0.000 C 
BRANCH  16  17
ATOM     17  C   UNL     1       5.214   3.839  17.940  0.00  0.00    +0.000 C 
ATOM     18  O   UNL     1       5.492   3.710  19.132  0.00  0.00    +0.000 OA
ATOM     19  N   UNL     1       6.107   4.415  17.040  0.00  0.00    +0.000 N 
ATOM     20  C   UNL     1       5.789   4.762  15.661  0.00  0.00    +0.000 C 
BRANCH  19  21
ATOM     21  C   UNL     1       7.393   4.910  17.569  0.00  0.00    +0.000 C 
BRANCH  21  22
ATOM     22  C   UNL     1       7.456   6.410  17.896  0.00  0.00    +0.000 C 
ATOM     23  F   UNL     1       8.224   6.674  18.977  0.00  0.00    +0.000 F 
ATOM     24  F   UNL     1       7.933   7.131  16.859  0.00  0.00    +0.000 F 
ATOM     25  F   UNL     1       6.213   6.877  18.172  0.00  0.00    +0.000 F 
ENDBRANCH  21  22
ENDBRANCH  19  21
ENDBRANCH  16  17
ENDBRANCH  14  16
ENDBRANCH   4  14
TORSDOF 6
ENDMDL
MODEL 4
REMARK VINA RESULT:      -7.5      1.171      1.378
REMARK  Name = 
REMARK  8 active torsions:
REMARK  status: ('A' for Active; 'I' for Inactive)
REMARK    1  A    between atoms: C_1  and  C_2
REMARK    2  A    between atoms: C_4  and  N_5
REMARK    3  A    between atoms: N_5  and  C_6
REMARK    4  A    between atoms: C_6  and  C_7
REMARK    5  A    between atoms: N_9  and  C_10
REMARK    6  A    between atoms: N_9  and  C_11
REMARK    7  A    between atoms: C_11  and  C_12
REMARK    8  A    between atoms: C_16  and  C_17
REMARK                            x       y       z     vdW  Elec       q    Type
REMARK                         _______ _______ _______ _____ _____    ______ ____
ROOT
ATOM      1  C   UNL     1       5.465   3.196  11.723  0.00  0.00    +0.000 C 
ATOM      2  C   UNL     1       5.965   3.707  13.041  0.00  0.00    +0.000 A 
ATOM      3  C   UNL     1       5.367   3.316  14.251  0.00  0.00    +0.000 A 
ATOM      4  C   UNL     1       5.830   3.781  15.498  0.00  0.00    +0.000 A 
ATOM      5  C   UNL     1       6.930   4.675  15.495  0.00  0.00    +0.000 A 
ATOM      6  C   UNL     1       7.527   5.071  14.287  0.00  0.00    +0.000 A 
ATOM      7  C   UNL     1       7.039   4.592  13.081  0.00  0.00    +0.000 A 
ATOM      8  F   UNL     1       7.605   5.004  11.937  0.00  0.00    +0.000 F 
ENDROOT
BRANCH   5   9
ATOM      9  C   UNL     1       7.497   5.293  16.730  0.00  0.00    +0.000 C 
ATOM     10  N   UNL     1       7.904   4.454  17.725  0.00  0.00    +0.000 N 
ATOM     11  O   UNL     1       7.550   6.510  16.875  0.00  0.00    +0.000 OA
ATOM     12  H   UNL     1       7.855   3.446  17.607  0.00  0.00    +0.000 HD
ATOM     13  H   UNL     1       8.301   4.841  18.566  0.00  0.00    +0.000 HD
ENDBRANCH   5   9
BRANCH   4  14
ATOM     14  N   UNL     1       5.203   3.423  16.694  0.00  0.00    +0.000 N 
ATOM     15  H   UNL     1       5.450   2.492  17.045  0.00  0.00    +0.000 HD
BRANCH  14  16
ATOM     16  C   UNL     1       3.843   3.842  17.023  0.00  0.00    +0.000 C 
BRANCH  16  17
ATOM     17  C   UNL     1       3.287   3.046  18.216  0.00  0.00    +0.000 C 
ATOM     18  O   UNL     1       2.823   1.915  18.071  0.00  0.00    +0.000 OA
ATOM     19  N   UNL     1       3.330   3.663  19.464  0.00  0.00    +0.000 N 
ATOM     20  C   UNL     1       3.698   5.053  19.690  0.00  0.00    +0.000 C 
BRANCH  19  21
ATOM     21  C   UNL     1       2.758   2.932  20.613  0.00  0.00    +0.000 C 
BRANCH  21  22
ATOM     22  C   UNL     1       1.272   3.191  20.905  0.00  0.00    +0.000 C 
ATOM     23  F   UNL     1       0.863   2.618  22.059  0.00  0.00    +0.000 F 
ATOM     24  F   UNL     1       0.996   4.511  20.972  0.00  0.00    +0.000 F 
ATOM     25  F   UNL     1       0.507   2.669  19.914  0.00  0.00    +0.000 F 
ENDBRANCH  21  22
ENDBRANCH  19  21
ENDBRANCH  16  17
ENDBRANCH  14  16
ENDBRANCH   4  14
TORSDOF 6
ENDMDL
MODEL 5
REMARK VINA RESULT:      -7.5      1.328      1.648
REMARK  Name = 
REMARK  8 active torsions:
REMARK  status: ('A' for Active; 'I' for Inactive)
REMARK    1  A    between atoms: C_1  and  C_2
REMARK    2  A    between atoms: C_4  and  N_5
REMARK    3  A    between atoms: N_5  and  C_6
REMARK    4  A    between atoms: C_6  and  C_7
REMARK    5  A    between atoms: N_9  and  C_10
REMARK    6  A    between atoms: N_9  and  C_11
REMARK    7  A    between atoms: C_11  and  C_12
REMARK    8  A    between atoms: C_16  and  C_17
REMARK                            x       y       z     vdW  Elec       q    Type
REMARK                         _______ _______ _______ _____ _____    ______ ____
ROOT
ATOM      1  C   UNL     1       6.014   3.572  12.228  0.00  0.00    +0.000 C 
ATOM      2  C   UNL     1       6.287   3.993  13.642  0.00  0.00    +0.000 A 
ATOM      3  C   UNL     1       5.472   3.564  14.703  0.00  0.00    +0.000 A 
ATOM      4  C   UNL     1       5.720   3.945  16.037  0.00  0.00    +0.000 A 
ATOM      5  C   UNL     1       6.830   4.793  16.279  0.00  0.00    +0.000 A 
ATOM      6  C   UNL     1       7.643   5.227  15.219  0.00  0.00    +0.000 A 
ATOM      7  C   UNL     1       7.363   4.831  13.920  0.00  0.00    +0.000 A 
ATOM      8  F   UNL     1       8.135   5.279  12.920  0.00  0.00    +0.000 F 
ENDROOT
BRANCH   5   9
ATOM      9  C   UNL     1       7.186   5.322  17.628  0.00  0.00    +0.000 C 
ATOM     10  N   UNL     1       7.268   6.675  17.772  0.00  0.00    +0.000 N 
ATOM     11  O   UNL     1       7.447   4.574  18.565  0.00  0.00    +0.000 OA
ATOM     12  H   UNL     1       7.056   7.295  16.996  0.00  0.00    +0.000 HD
ATOM     13  H   UNL     1       7.495   7.063  18.674  0.00  0.00    +0.000 HD
ENDBRANCH   5   9
BRANCH   4  14
ATOM     14  N   UNL     1       4.880   3.550  17.081  0.00  0.00    +0.000 N 
ATOM     15  H   UNL     1       5.192   2.716  17.590  0.00  0.00    +0.000 HD
BRANCH  14  16
ATOM     16  C   UNL     1       3.429   3.702  17.020  0.00  0.00    +0.000 C 
BRANCH  16  17
ATOM     17  C   UNL     1       2.738   2.919  18.150  0.00  0.00    +0.000 C 
ATOM     18  O   UNL     1       2.690   1.689  18.140  0.00  0.00    +0.000 OA
ATOM     19  N   UNL     1       2.168   3.664  19.180  0.00  0.00    +0.000 N 
ATOM     20  C   UNL     1       2.029   5.114  19.177  0.00  0.00    +0.000 C 
BRANCH  19  21
ATOM     21  C   UNL     1       1.460   2.931  20.249  0.00  0.00    +0.000 C 
BRANCH  21  22
ATOM     22  C   UNL     1       2.232   2.744  21.564  0.00  0.00    +0.000 C 
ATOM     23  F   UNL     1       1.629   1.867  22.399  0.00  0.00    +0.000 F 
ATOM     24  F   UNL     1       3.494   2.316  21.349  0.00  0.00    +0.000 F 
ATOM     25  F   UNL     1       2.314   3.925  22.225  0.00  0.00    +0.000 F 
ENDBRANCH  21  22
ENDBRANCH  19  21
ENDBRANCH  16  17
ENDBRANCH  14  16
ENDBRANCH   4  14
TORSDOF 6
ENDMDL
MODEL 6
REMARK VINA RESULT:      -7.5      1.180      1.392
REMARK  Name = 
REMARK  8 active torsions:
REMARK  status: ('A' for Active; 'I' for Inactive)
REMARK    1  A    between atoms: C_1  and  C_2
REMARK    2  A    between atoms: C_4  and  N_5
REMARK    3  A    between atoms: N_5  and  C_6
REMARK    4  A    between atoms: C_6  and  C_7
REMARK    5  A    between atoms: N_9  and  C_10
REMARK    6  A    between atoms: N_9  and  C_11
REMARK    7  A    between atoms: C_11  and  C_12
REMARK    8  A    between atoms: C_16  and  C_17
REMARK                            x       y       z     vdW  Elec       q    Type
REMARK                         _______ _______ _______ _____ _____    ______ ____
ROOT
ATOM      1  C   UNL     1       5.930   3.407  12.251  0.00  0.00    +0.000 C 
ATOM      2  C   UNL     1       6.207   3.905  13.638  0.00  0.00    +0.000 A 
ATOM      3  C   UNL     1       5.471   3.442  14.742  0.00  0.00    +0.000 A 
ATOM      4  C   UNL     1       5.725   3.895  16.052  0.00  0.00    +0.000 A 
ATOM      5  C   UNL     1       6.756   4.853  16.225  0.00  0.00    +0.000 A 
ATOM      6  C   UNL     1       7.489   5.321  15.122  0.00  0.00    +0.000 A 
ATOM      7  C   UNL     1       7.206   4.851  13.849  0.00  0.00    +0.000 A 
ATOM      8  F   UNL     1       7.900   5.331  12.806  0.00  0.00    +0.000 F 
ENDROOT
BRANCH   5   9
ATOM      9  C   UNL     1       7.103   5.465  17.541  0.00  0.00    +0.000 C 
ATOM     10  N   UNL     1       7.808   4.702  18.424  0.00  0.00    +0.000 N 
ATOM     11  O   UNL     1       6.728   6.593  17.845  0.00  0.00    +0.000 OA
ATOM     12  H   UNL     1       8.115   3.766  18.174  0.00  0.00    +0.000 HD
ATOM     13  H   UNL     1       8.067   5.092  19.316  0.00  0.00    +0.000 HD
ENDBRANCH   5   9
BRANCH   4  14
ATOM     14  N   UNL     1       4.961   3.464  17.139  0.00  0.00    +0.000 N 
ATOM     15  H   UNL     1       5.331   2.638  17.621  0.00  0.00    +0.000 HD
BRANCH  14  16
ATOM     16  C   UNL     1       3.504   3.563  17.162  0.00  0.00    +0.000 C 
BRANCH  16  17
ATOM     17  C   UNL     1       3.002   4.091  18.517  0.00  0.00    +0.000 C 
ATOM     18  O   UNL     1       3.574   5.014  19.096  0.00  0.00    +0.000 OA
ATOM     19  N   UNL     1       1.875   3.476  19.058  0.00  0.00    +0.000 N 
ATOM     20  C   UNL     1       1.250   2.273  18.525  0.00  0.00    +0.000 C 
BRANCH  19  21
ATOM     21  C   UNL     1       1.407   3.938  20.380  0.00  0.00    +0.000 C 
BRANCH  21  22
ATOM     22  C   UNL     1       1.960   3.179  21.595  0.00  0.00    +0.000 C 
ATOM     23  F   UNL     1       1.017   2.437  22.217  0.00  0.00    +0.000 F 
ATOM     24  F   UNL     1       2.979   2.360  21.255  0.00  0.00    +0.000 F 
ATOM     25  F   UNL     1       2.438   4.057  22.512  0.00  0.00    +0.000 F 
ENDBRANCH  21  22
ENDBRANCH  19  21
ENDBRANCH  16  17
ENDBRANCH  14  16
ENDBRANCH   4  14
TORSDOF 6
ENDMDL
MODEL 7
REMARK VINA RESULT:      -7.4      0.974      1.399
REMARK  Name = 
REMARK  8 active torsions:
REMARK  status: ('A' for Active; 'I' for Inactive)
REMARK    1  A    between atoms: C_1  and  C_2
REMARK    2  A    between atoms: C_4  and  N_5
REMARK    3  A    between atoms: N_5  and  C_6
REMARK    4  A    between atoms: C_6  and  C_7
REMARK    5  A    between atoms: N_9  and  C_10
REMARK    6  A    between atoms: N_9  and  C_11
REMARK    7  A    between atoms: C_11  and  C_12
REMARK    8  A    between atoms: C_16  and  C_17
REMARK                            x       y       z     vdW  Elec       q    Type
REMARK                         _______ _______ _______ _____ _____    ______ ____
ROOT
ATOM      1  C   UNL     1       5.561   3.093  11.853  0.00  0.00    +0.000 C 
ATOM      2  C   UNL     1       6.039   3.675  13.149  0.00  0.00    +0.000 A 
ATOM      3  C   UNL     1       5.448   3.317  14.373  0.00  0.00    +0.000 A 
ATOM      4  C   UNL     1       5.891   3.849  15.601  0.00  0.00    +0.000 A 
ATOM      5  C   UNL     1       6.962   4.778  15.563  0.00  0.00    +0.000 A 
ATOM      6  C   UNL     1       7.550   5.141  14.340  0.00  0.00    +0.000 A 
ATOM      7  C   UNL     1       7.083   4.596  13.154  0.00  0.00    +0.000 A 
ATOM      8  F   UNL     1       7.640   4.977  11.996  0.00  0.00    +0.000 F 
ENDROOT
BRANCH   5   9
ATOM      9  C   UNL     1       7.502   5.465  16.772  0.00  0.00    +0.000 C 
ATOM     10  N   UNL     1       7.533   6.828  16.761  0.00  0.00    +0.000 N 
ATOM     11  O   UNL     1       7.951   4.835  17.724  0.00  0.00    +0.000 OA
ATOM     12  H   UNL     1       7.166   7.350  15.971  0.00  0.00    +0.000 HD
ATOM     13  H   UNL     1       7.882   7.321  17.568  0.00  0.00    +0.000 HD
ENDBRANCH   5   9
BRANCH   4  14
ATOM     14  N   UNL     1       5.271   3.522  16.809  0.00  0.00    +0.000 N 
ATOM     15  H   UNL     1       4.857   2.584  16.838  0.00  0.00    +0.000 HD
BRANCH  14  16
ATOM     16  C   UNL     1       4.564   4.510  17.620  0.00  0.00    +0.000 C 
BRANCH  16  17
ATOM     17  C   UNL     1       4.159   3.925  18.984  0.00  0.00    +0.000 C 
ATOM     18  O   UNL     1       4.770   2.979  19.482  0.00  0.00    +0.000 OA
ATOM     19  N   UNL     1       3.071   4.511  19.626  0.00  0.00    +0.000 N 
ATOM     20  C   UNL     1       2.194   5.509  19.030  0.00  0.00    +0.000 C 
BRANCH  19  21
ATOM     21  C   UNL     1       2.639   3.933  20.915  0.00  0.00    +0.000 C 
BRANCH  21  22
ATOM     22  C   UNL     1       1.437   2.978  20.857  0.00  0.00    +0.000 C 
ATOM     23  F   UNL     1       0.314   3.584  20.412  0.00  0.00    +0.000 F 
ATOM     24  F   UNL     1       1.680   1.912  20.063  0.00  0.00    +0.000 F 
ATOM     25  F   UNL     1       1.163   2.502  22.097  0.00  0.00    +0.000 F 
ENDBRANCH  21  22
ENDBRANCH  19  21
ENDBRANCH  16  17
ENDBRANCH  14  16
ENDBRANCH   4  14
TORSDOF 6
ENDMDL
MODEL 8
REMARK VINA RESULT:      -7.4      0.770      1.117
REMARK  Name = 
REMARK  8 active torsions:
REMARK  status: ('A' for Active; 'I' for Inactive)
REMARK    1  A    between atoms: C_1  and  C_2
REMARK    2  A    between atoms: C_4  and  N_5
REMARK    3  A    between atoms: N_5  and  C_6
REMARK    4  A    between atoms: C_6  and  C_7
REMARK    5  A    between atoms: N_9  and  C_10
REMARK    6  A    between atoms: N_9  and  C_11
REMARK    7  A    between atoms: C_11  and  C_12
REMARK    8  A    between atoms: C_16  and  C_17
REMARK                            x       y       z     vdW  Elec       q    Type
REMARK                         _______ _______ _______ _____ _____    ______ ____
ROOT
ATOM      1  C   UNL     1       6.180   3.462  11.952  0.00  0.00    +0.000 C 
ATOM      2  C   UNL     1       6.421   3.944  13.351  0.00  0.00    +0.000 A 
ATOM      3  C   UNL     1       5.669   3.454  14.433  0.00  0.00    +0.000 A 
ATOM      4  C   UNL     1       5.888   3.891  15.754  0.00  0.00    +0.000 A 
ATOM      5  C   UNL     1       6.900   4.861  15.963  0.00  0.00    +0.000 A 
ATOM      6  C   UNL     1       7.649   5.357  14.883  0.00  0.00    +0.000 A 
ATOM      7  C   UNL     1       7.400   4.902  13.597  0.00  0.00    +0.000 A 
ATOM      8  F   UNL     1       8.108   5.407  12.577  0.00  0.00    +0.000 F 
ENDROOT
BRANCH   5   9
ATOM      9  C   UNL     1       7.210   5.459  17.295  0.00  0.00    +0.000 C 
ATOM     10  N   UNL     1       7.874   4.680  18.196  0.00  0.00    +0.000 N 
ATOM     11  O   UNL     1       6.841   6.590  17.595  0.00  0.00    +0.000 OA
ATOM     12  H   UNL     1       8.176   3.742  17.949  0.00  0.00    +0.000 HD
ATOM     13  H   UNL     1       8.108   5.060  19.099  0.00  0.00    +0.000 HD
ENDBRANCH   5   9
BRANCH   4  14
ATOM     14  N   UNL     1       5.108   3.432  16.819  0.00  0.00    +0.000 N 
ATOM     15  H   UNL     1       5.217   2.434  17.030  0.00  0.00    +0.000 HD
BRANCH  14  16
ATOM     16  C   UNL     1       3.774   3.957  17.096  0.00  0.00    +0.000 C 
BRANCH  16  17
ATOM     17  C   UNL     1       3.487   3.979  18.608  0.00  0.00    +0.000 C 
ATOM     18  O   UNL     1       3.617   5.009  19.270  0.00  0.00    +0.000 OA
ATOM     19  N   UNL     1       3.077   2.783  19.192  0.00  0.00    +0.000 N 
ATOM     20  C   UNL     1       3.067   1.491  18.519  0.00  0.00    +0.000 C 
BRANCH  19  21
ATOM     21  C   UNL     1       2.841   2.774  20.650  0.00  0.00    +0.000 C 
BRANCH  21  22
ATOM     22  C   UNL     1       1.428   3.164  21.108  0.00  0.00    +0.000 C 
ATOM     23  F   UNL     1       1.307   4.489  21.348  0.00  0.00    +0.000 F 
ATOM     24  F   UNL     1       0.492   2.817  20.199  0.00  0.00    +0.000 F 
ATOM     25  F   UNL     1       1.122   2.525  22.264  0.00  0.00    +0.000 F 
ENDBRANCH  21  22
ENDBRANCH  19  21
ENDBRANCH  16  17
ENDBRANCH  14  16
ENDBRANCH   4  14
TORSDOF 6
ENDMDL
MODEL 9
REMARK VINA RESULT:      -7.3      3.430      6.816
REMARK  Name = 
REMARK  8 active torsions:
REMARK  status: ('A' for Active; 'I' for Inactive)
REMARK    1  A    between atoms: C_1  and  C_2
REMARK    2  A    between atoms: C_4  and  N_5
REMARK    3  A    between atoms: N_5  and  C_6
REMARK    4  A    between atoms: C_6  and  C_7
REMARK    5  A    between atoms: N_9  and  C_10
REMARK    6  A    between atoms: N_9  and  C_11
REMARK    7  A    between atoms: C_11  and  C_12
REMARK    8  A    between atoms: C_16  and  C_17
REMARK                            x       y       z     vdW  Elec       q    Type
REMARK                         _______ _______ _______ _____ _____    ______ ____
ROOT
ATOM      1  C   UNL     1       2.289   8.960  18.215  0.00  0.00    +0.000 C 
ATOM      2  C   UNL     1       2.219   7.580  18.798  0.00  0.00    +0.000 A 
ATOM      3  C   UNL     1       2.518   6.445  18.025  0.00  0.00    +0.000 A 
ATOM      4  C   UNL     1       2.464   5.142  18.560  0.00  0.00    +0.000 A 
ATOM      5  C   UNL     1       2.086   5.008  19.920  0.00  0.00    +0.000 A 
ATOM      6  C   UNL     1       1.782   6.141  20.692  0.00  0.00    +0.000 A 
ATOM      7  C   UNL     1       1.845   7.406  20.127  0.00  0.00    +0.000 A 
ATOM      8  F   UNL     1       1.524   8.472  20.874  0.00  0.00    +0.000 F 
ENDROOT
BRANCH   5   9
ATOM      9  C   UNL     1       1.933   3.693  20.609  0.00  0.00    +0.000 C 
ATOM     10  N   UNL     1       0.687   3.142  20.644  0.00  0.00    +0.000 N 
ATOM     11  O   UNL     1       2.877   3.147  21.171  0.00  0.00    +0.000 OA
ATOM     12  H   UNL     1      -0.097   3.596  20.183  0.00  0.00    +0.000 HD
ATOM     13  H   UNL     1       0.554   2.249  21.093  0.00  0.00    +0.000 HD
ENDBRANCH   5   9
BRANCH   4  14
ATOM     14  N   UNL     1       2.720   4.015  17.775  0.00  0.00    +0.000 N 
ATOM     15  H   UNL     1       2.476   3.122  18.216  0.00  0.00    +0.000 HD
BRANCH  14  16
ATOM     16  C   UNL     1       3.857   3.937  16.862  0.00  0.00    +0.000 C 
BRANCH  16  17
ATOM     17  C   UNL     1       5.189   3.917  17.631  0.00  0.00    +0.000 C 
ATOM     18  O   UNL     1       5.297   3.337  18.712  0.00  0.00    +0.000 OA
ATOM     19  N   UNL     1       6.265   4.585  17.052  0.00  0.00    +0.000 N 
ATOM     20  C   UNL     1       6.176   5.437  15.873  0.00  0.00    +0.000 C 
BRANCH  19  21
ATOM     21  C   UNL     1       7.539   4.616  17.798  0.00  0.00    +0.000 C 
BRANCH  21  22
ATOM     22  C   UNL     1       7.696   5.752  18.820  0.00  0.00    +0.000 C 
ATOM     23  F   UNL     1       8.063   6.920  18.245  0.00  0.00    +0.000 F 
ATOM     24  F   UNL     1       6.556   5.967  19.511  0.00  0.00    +0.000 F 
ATOM     25  F   UNL     1       8.660   5.436  19.721  0.00  0.00    +0.000 F 
ENDBRANCH  21  22
ENDBRANCH  19  21
ENDBRANCH  16  17
ENDBRANCH  14  16
ENDBRANCH   4  14
TORSDOF 6
ENDMDL
