MODEL 1
REMARK VINA RESULT:      -6.8      0.000      0.000
REMARK  Name = 
REMARK  6 active torsions:
REMARK  status: ('A' for Active; 'I' for Inactive)
REMARK    1  A    between atoms: C_1  and  C_2
REMARK    2  A    between atoms: C_2  and  C_3
REMARK    3  A    between atoms: C_11  and  C_12
REMARK    4  A    between atoms: C_19  and  C_20
REMARK    5  A    between atoms: C_23  and  C_24
REMARK    6  A    between atoms: C_23  and  C_26
REMARK                            x       y       z     vdW  Elec       q    Type
REMARK                         _______ _______ _______ _____ _____    ______ ____
ROOT
ATOM      1  C   UNL     1       0.900  12.886  18.160  0.00  0.00    +0.000 C 
ATOM      2  C   UNL     1      -0.132  11.987  18.884  0.00  0.00    +0.000 C 
ATOM      3  C   UNL     1      -0.657  12.821  20.091  0.00  0.00    +0.000 C 
ATOM      4  C   UNL     1      -2.137  12.701  20.374  0.00  0.00    +0.000 C 
ATOM      5  C   UNL     1      -3.023  12.263  19.448  0.00  0.00    +0.000 C 
ATOM      6  C   UNL     1      -2.580  11.756  18.137  0.00  0.00    +0.000 C 
ATOM      7  C   UNL     1      -3.485  11.345  17.212  0.00  0.00    +0.000 C 
ATOM      8  N   UNL     1      -1.201  11.723  17.914  0.00  0.00    +0.000 N 
ATOM      9  H   UNL     1      -0.876  11.230  17.082  0.00  0.00    +0.000 HD
ENDROOT
BRANCH   2  10
ATOM     10  C   UNL     1       0.455  10.621  19.295  0.00  0.00    +0.000 A 
ATOM     11  C   UNL     1       1.249   9.865  18.406  0.00  0.00    +0.000 A 
ATOM     12  C   UNL     1       1.788   8.629  18.775  0.00  0.00    +0.000 A 
ATOM     13  C   UNL     1       1.562   8.137  20.050  0.00  0.00    +0.000 A 
ATOM     14  F   UNL     1       2.083   6.955  20.406  0.00  0.00    +0.000 F 
ATOM     15  C   UNL     1       0.811   8.860  20.962  0.00  0.00    +0.000 A 
ATOM     16  C   UNL     1       0.266  10.093  20.590  0.00  0.00    +0.000 A 
ENDBRANCH   2  10
BRANCH   4  17
ATOM     17  C   UNL     1      -2.521  13.162  21.728  0.00  0.00    +0.000 A 
ATOM     18  C   UNL     1      -2.852  12.228  22.721  0.00  0.00    +0.000 A 
ATOM     19  C   UNL     1      -3.154  12.653  24.018  0.00  0.00    +0.000 A 
ATOM     20  C   UNL     1      -3.135  14.008  24.318  0.00  0.00    +0.000 A 
ATOM     21  F   UNL     1      -3.412  14.414  25.563  0.00  0.00    +0.000 F 
ATOM     22  C   UNL     1      -2.822  14.950  23.342  0.00  0.00    +0.000 A 
ATOM     23  C   UNL     1      -2.513  14.527  22.046  0.00  0.00    +0.000 A 
ENDBRANCH   4  17
BRANCH   5  24
ATOM     24  C   UNL     1      -4.502  12.419  19.760  0.00  0.00    +0.000 C 
ATOM     25  N   UNL     1      -5.730  12.548  20.019  0.00  0.00    +0.000 NA
ENDBRANCH   5  24
BRANCH   7  26
ATOM     26  C   UNL     1      -4.972  11.481  17.491  0.00  0.00    +0.000 C 
ATOM     27  N   UNL     1      -6.207  11.594  17.722  0.00  0.00    +0.000 NA
ENDBRANCH   7  26
BRANCH   7  28
ATOM     28  C   UNL     1      -3.009  10.789  15.881  0.00  0.00    +0.000 C 
ATOM     29  N   UNL     1      -2.613  10.328  14.775  0.00  0.00    +0.000 NA
ENDBRANCH   7  28
TORSDOF 5
ENDMDL
MODEL 2
REMARK VINA RESULT:      -6.8      0.098      1.293
REMARK  Name = 
REMARK  6 active torsions:
REMARK  status: ('A' for Active; 'I' for Inactive)
REMARK    1  A    between atoms: C_1  and  C_2
REMARK    2  A    between atoms: C_2  and  C_3
REMARK    3  A    between atoms: C_11  and  C_12
REMARK    4  A    between atoms: C_19  and  C_20
REMARK    5  A    between atoms: C_23  and  C_24
REMARK    6  A    between atoms: C_23  and  C_26
REMARK                            x       y       z     vdW  Elec       q    Type
REMARK                         _______ _______ _______ _____ _____    ______ ____
ROOT
ATOM      1  C   UNL     1       0.949  12.942  18.144  0.00  0.00    +0.000 C 
ATOM      2  C   UNL     1      -0.061  12.025  18.878  0.00  0.00    +0.000 C 
ATOM      3  C   UNL     1      -0.570  12.842  20.103  0.00  0.00    +0.000 C 
ATOM      4  C   UNL     1      -2.044  12.705  20.413  0.00  0.00    +0.000 C 
ATOM      5  C   UNL     1      -2.943  12.268  19.499  0.00  0.00    +0.000 C 
ATOM      6  C   UNL     1      -2.520  11.779  18.174  0.00  0.00    +0.000 C 
ATOM      7  C   UNL     1      -3.438  11.369  17.262  0.00  0.00    +0.000 C 
ATOM      8  N   UNL     1      -1.145  11.761  17.925  0.00  0.00    +0.000 N 
ATOM      9  H   UNL     1      -0.831  11.279  17.082  0.00  0.00    +0.000 HD
ENDROOT
BRANCH   2  10
ATOM     10  C   UNL     1       0.547  10.661  19.264  0.00  0.00    +0.000 A 
ATOM     11  C   UNL     1       0.336  10.099  20.541  0.00  0.00    +0.000 A 
ATOM     12  C   UNL     1       0.880   8.861  20.896  0.00  0.00    +0.000 A 
ATOM     13  C   UNL     1       1.625   8.150  19.969  0.00  0.00    +0.000 A 
ATOM     14  F   UNL     1       2.142   6.961  20.306  0.00  0.00    +0.000 F 
ATOM     15  C   UNL     1       1.833   8.654  18.696  0.00  0.00    +0.000 A 
ATOM     16  C   UNL     1       1.295   9.896  18.344  0.00  0.00    +0.000 A 
ENDBRANCH   2  10
BRANCH   4  17
ATOM     17  C   UNL     1      -2.407  13.149  21.778  0.00  0.00    +0.000 A 
ATOM     18  C   UNL     1      -2.388  14.515  22.101  0.00  0.00    +0.000 A 
ATOM     19  C   UNL     1      -2.790  14.945  23.369  0.00  0.00    +0.000 A 
ATOM     20  C   UNL     1      -3.200  14.013  24.312  0.00  0.00    +0.000 A 
ATOM     21  F   UNL     1      -3.597  14.428  25.522  0.00  0.00    +0.000 F 
ATOM     22  C   UNL     1      -3.213  12.654  24.013  0.00  0.00    +0.000 A 
ATOM     23  C   UNL     1      -2.818  12.221  22.744  0.00  0.00    +0.000 A 
ENDBRANCH   4  17
BRANCH   5  24
ATOM     24  C   UNL     1      -4.417  12.406  19.840  0.00  0.00    +0.000 C 
ATOM     25  N   UNL     1      -5.642  12.521  20.122  0.00  0.00    +0.000 NA
ENDBRANCH   5  24
BRANCH   7  26
ATOM     26  C   UNL     1      -4.921  11.487  17.570  0.00  0.00    +0.000 C 
ATOM     27  N   UNL     1      -6.153  11.587  17.826  0.00  0.00    +0.000 NA
ENDBRANCH   7  26
BRANCH   7  28
ATOM     28  C   UNL     1      -2.982  10.831  15.917  0.00  0.00    +0.000 C 
ATOM     29  N   UNL     1      -2.603  10.384  14.799  0.00  0.00    +0.000 NA
ENDBRANCH   7  28
TORSDOF 5
ENDMDL
MODEL 3
REMARK VINA RESULT:      -6.4      2.228      6.805
REMARK  Name = 
REMARK  6 active torsions:
REMARK  status: ('A' for Active; 'I' for Inactive)
REMARK    1  A    between atoms: C_1  and  C_2
REMARK    2  A    between atoms: C_2  and  C_3
REMARK    3  A    between atoms: C_11  and  C_12
REMARK    4  A    between atoms: C_19  and  C_20
REMARK    5  A    between atoms: C_23  and  C_24
REMARK    6  A    between atoms: C_23  and  C_26
REMARK                            x       y       z     vdW  Elec       q    Type
REMARK                         _______ _______ _______ _____ _____    ______ ____
ROOT
ATOM      1  C   UNL     1      -3.704  12.221  18.637  0.00  0.00    +0.000 C 
ATOM      2  C   UNL     1      -2.454  12.300  19.549  0.00  0.00    +0.000 C 
ATOM      3  C   UNL     1      -1.570  11.073  19.172  0.00  0.00    +0.000 C 
ATOM      4  C   UNL     1      -0.080  11.330  19.127  0.00  0.00    +0.000 C 
ATOM      5  C   UNL     1       0.441  12.574  19.005  0.00  0.00    +0.000 C 
ATOM      6  C   UNL     1      -0.414  13.774  19.030  0.00  0.00    +0.000 C 
ATOM      7  C   UNL     1       0.124  15.012  18.880  0.00  0.00    +0.000 C 
ATOM      8  N   UNL     1      -1.782  13.562  19.218  0.00  0.00    +0.000 N 
ATOM      9  H   UNL     1      -2.361  14.384  19.398  0.00  0.00    +0.000 HD
ENDROOT
BRANCH   2  10
ATOM     10  C   UNL     1      -2.814  12.355  21.047  0.00  0.00    +0.000 A 
ATOM     11  C   UNL     1      -4.074  12.818  21.483  0.00  0.00    +0.000 A 
ATOM     12  C   UNL     1      -4.409  12.866  22.839  0.00  0.00    +0.000 A 
ATOM     13  C   UNL     1      -3.496  12.428  23.785  0.00  0.00    +0.000 A 
ATOM     14  F   UNL     1      -3.817  12.469  25.085  0.00  0.00    +0.000 F 
ATOM     15  C   UNL     1      -2.258  11.942  23.398  0.00  0.00    +0.000 A 
ATOM     16  C   UNL     1      -1.922  11.900  22.041  0.00  0.00    +0.000 A 
ENDBRANCH   2  10
BRANCH   4  17
ATOM     17  C   UNL     1       0.736  10.096  19.170  0.00  0.00    +0.000 A 
ATOM     18  C   UNL     1       0.910   9.410  20.382  0.00  0.00    +0.000 A 
ATOM     19  C   UNL     1       1.627   8.210  20.418  0.00  0.00    +0.000 A 
ATOM     20  C   UNL     1       2.175   7.704  19.248  0.00  0.00    +0.000 A 
ATOM     21  F   UNL     1       2.851   6.548  19.280  0.00  0.00    +0.000 F 
ATOM     22  C   UNL     1       2.024   8.377  18.039  0.00  0.00    +0.000 A 
ATOM     23  C   UNL     1       1.302   9.573  18.000  0.00  0.00    +0.000 A 
ENDBRANCH   4  17
BRANCH   5  24
ATOM     24  C   UNL     1       1.930  12.689  18.723  0.00  0.00    +0.000 C 
ATOM     25  N   UNL     1       3.166  12.784  18.489  0.00  0.00    +0.000 NA
ENDBRANCH   5  24
BRANCH   7  26
ATOM     26  C   UNL     1       1.610  15.165  18.602  0.00  0.00    +0.000 C 
ATOM     27  N   UNL     1       2.843  15.294  18.371  0.00  0.00    +0.000 NA
ENDBRANCH   7  26
BRANCH   7  28
ATOM     28  C   UNL     1      -0.768  16.240  18.948  0.00  0.00    +0.000 C 
ATOM     29  N   UNL     1      -1.508  17.260  19.005  0.00  0.00    +0.000 NA
ENDBRANCH   7  28
TORSDOF 5
ENDMDL
MODEL 4
REMARK VINA RESULT:      -6.3      2.207      6.817
REMARK  Name = 
REMARK  6 active torsions:
REMARK  status: ('A' for Active; 'I' for Inactive)
REMARK    1  A    between atoms: C_1  and  C_2
REMARK    2  A    between atoms: C_2  and  C_3
REMARK    3  A    between atoms: C_11  and  C_12
REMARK    4  A    between atoms: C_19  and  C_20
REMARK    5  A    between atoms: C_23  and  C_24
REMARK    6  A    between atoms: C_23  and  C_26
REMARK                            x       y       z     vdW  Elec       q    Type
REMARK                         _______ _______ _______ _____ _____    ______ ____
ROOT
ATOM      1  C   UNL     1      -3.786  12.248  18.639  0.00  0.00    +0.000 C 
ATOM      2  C   UNL     1      -2.533  12.293  19.548  0.00  0.00    +0.000 C 
ATOM      3  C   UNL     1      -1.673  11.054  19.156  0.00  0.00    +0.000 C 
ATOM      4  C   UNL     1      -0.179  11.283  19.109  0.00  0.00    +0.000 C 
ATOM      5  C   UNL     1       0.366  12.518  18.998  0.00  0.00    +0.000 C 
ATOM      6  C   UNL     1      -0.466  13.734  19.039  0.00  0.00    +0.000 C 
ATOM      7  C   UNL     1       0.095  14.963  18.900  0.00  0.00    +0.000 C 
ATOM      8  N   UNL     1      -1.838  13.546  19.229  0.00  0.00    +0.000 N 
ATOM      9  H   UNL     1      -2.400  14.377  19.419  0.00  0.00    +0.000 HD
ENDROOT
BRANCH   2  10
ATOM     10  C   UNL     1      -2.887  12.340  21.048  0.00  0.00    +0.000 A 
ATOM     11  C   UNL     1      -1.950  11.968  22.036  0.00  0.00    +0.000 A 
ATOM     12  C   UNL     1      -2.264  12.012  23.397  0.00  0.00    +0.000 A 
ATOM     13  C   UNL     1      -3.515  12.453  23.798  0.00  0.00    +0.000 A 
ATOM     14  F   UNL     1      -3.814  12.502  25.102  0.00  0.00    +0.000 F 
ATOM     15  C   UNL     1      -4.454  12.852  22.861  0.00  0.00    +0.000 A 
ATOM     16  C   UNL     1      -4.142  12.801  21.499  0.00  0.00    +0.000 A 
ENDBRANCH   2  10
BRANCH   4  17
ATOM     17  C   UNL     1       0.614  10.033  19.136  0.00  0.00    +0.000 A 
ATOM     18  C   UNL     1       1.182   9.535  17.953  0.00  0.00    +0.000 A 
ATOM     19  C   UNL     1       1.984   8.391  17.982  0.00  0.00    +0.000 A 
ATOM     20  C   UNL     1       2.208   7.741  19.188  0.00  0.00    +0.000 A 
ATOM     21  F   UNL     1       2.986   6.651  19.218  0.00  0.00    +0.000 F 
ATOM     22  C   UNL     1       1.642   8.212  20.369  0.00  0.00    +0.000 A 
ATOM     23  C   UNL     1       0.845   9.361  20.343  0.00  0.00    +0.000 A 
ENDBRANCH   4  17
BRANCH   5  24
ATOM     24  C   UNL     1       1.855  12.607  18.712  0.00  0.00    +0.000 C 
ATOM     25  N   UNL     1       3.092  12.681  18.476  0.00  0.00    +0.000 NA
ENDBRANCH   5  24
BRANCH   7  26
ATOM     26  C   UNL     1       1.583  15.091  18.618  0.00  0.00    +0.000 C 
ATOM     27  N   UNL     1       2.818  15.198  18.384  0.00  0.00    +0.000 NA
ENDBRANCH   7  26
BRANCH   7  28
ATOM     28  C   UNL     1      -0.773  16.207  18.984  0.00  0.00    +0.000 C 
ATOM     29  N   UNL     1      -1.494  17.240  19.053  0.00  0.00    +0.000 NA
ENDBRANCH   7  28
TORSDOF 5
ENDMDL
MODEL 5
REMARK VINA RESULT:      -6.3      2.907      6.210
REMARK  Name = 
REMARK  6 active torsions:
REMARK  status: ('A' for Active; 'I' for Inactive)
REMARK    1  A    between atoms: C_1  and  C_2
REMARK    2  A    between atoms: C_2  and  C_3
REMARK    3  A    between atoms: C_11  and  C_12
REMARK    4  A    between atoms: C_19  and  C_20
REMARK    5  A    between atoms: C_23  and  C_24
REMARK    6  A    between atoms: C_23  and  C_26
REMARK                            x       y       z     vdW  Elec       q    Type
REMARK                         _______ _______ _______ _____ _____    ______ ____
ROOT
ATOM      1  C   UNL     1      -7.065  11.328  19.047  0.00  0.00    +0.000 C 
ATOM      2  C   UNL     1      -5.943  12.397  19.053  0.00  0.00    +0.000 C 
ATOM      3  C   UNL     1      -5.564  12.613  20.549  0.00  0.00    +0.000 C 
ATOM      4  C   UNL     1      -4.088  12.786  20.831  0.00  0.00    +0.000 C 
ATOM      5  C   UNL     1      -3.129  12.380  19.965  0.00  0.00    +0.000 C 
ATOM      6  C   UNL     1      -3.467  11.852  18.631  0.00  0.00    +0.000 C 
ATOM      7  C   UNL     1      -2.493  11.427  17.787  0.00  0.00    +0.000 C 
ATOM      8  N   UNL     1      -4.824  11.823  18.297  0.00  0.00    +0.000 N 
ATOM      9  H   UNL     1      -5.060  11.613  17.327  0.00  0.00    +0.000 HD
ENDROOT
BRANCH   2  10
ATOM     10  C   UNL     1      -6.357  13.697  18.335  0.00  0.00    +0.000 A 
ATOM     11  C   UNL     1      -6.701  13.702  16.966  0.00  0.00    +0.000 A 
ATOM     12  C   UNL     1      -7.082  14.877  16.310  0.00  0.00    +0.000 A 
ATOM     13  C   UNL     1      -7.149  16.065  17.018  0.00  0.00    +0.000 A 
ATOM     14  F   UNL     1      -7.519  17.190  16.392  0.00  0.00    +0.000 F 
ATOM     15  C   UNL     1      -6.846  16.098  18.370  0.00  0.00    +0.000 A 
ATOM     16  C   UNL     1      -6.458  14.924  19.024  0.00  0.00    +0.000 A 
ENDBRANCH   2  10
BRANCH   4  17
ATOM     17  C   UNL     1      -3.804  13.379  22.157  0.00  0.00    +0.000 A 
ATOM     18  C   UNL     1      -3.485  14.743  22.263  0.00  0.00    +0.000 A 
ATOM     19  C   UNL     1      -3.277  15.323  23.517  0.00  0.00    +0.000 A 
ATOM     20  C   UNL     1      -3.377  14.542  24.660  0.00  0.00    +0.000 A 
ATOM     21  F   UNL     1      -3.190  15.102  25.862  0.00  0.00    +0.000 F 
ATOM     22  C   UNL     1      -3.679  13.186  24.573  0.00  0.00    +0.000 A 
ATOM     23  C   UNL     1      -3.894  12.605  23.320  0.00  0.00    +0.000 A 
ENDBRANCH   4  17
BRANCH   5  24
ATOM     24  C   UNL     1      -1.692  12.378  20.458  0.00  0.00    +0.000 C 
ATOM     25  N   UNL     1      -0.498  12.375  20.868  0.00  0.00    +0.000 NA
ENDBRANCH   5  24
BRANCH   7  26
ATOM     26  C   UNL     1      -1.043  11.415  18.244  0.00  0.00    +0.000 C 
ATOM     27  N   UNL     1       0.159  11.404  18.624  0.00  0.00    +0.000 NA
ENDBRANCH   7  26
BRANCH   7  28
ATOM     28  C   UNL     1      -2.857  10.923  16.401  0.00  0.00    +0.000 C 
ATOM     29  N   UNL     1      -3.160  10.505  15.250  0.00  0.00    +0.000 NA
ENDBRANCH   7  28
TORSDOF 5
ENDMDL
MODEL 6
REMARK VINA RESULT:      -6.1      1.083      1.472
REMARK  Name = 
REMARK  6 active torsions:
REMARK  status: ('A' for Active; 'I' for Inactive)
REMARK    1  A    between atoms: C_1  and  C_2
REMARK    2  A    between atoms: C_2  and  C_3
REMARK    3  A    between atoms: C_11  and  C_12
REMARK    4  A    between atoms: C_19  and  C_20
REMARK    5  A    between atoms: C_23  and  C_24
REMARK    6  A    between atoms: C_23  and  C_26
REMARK                            x       y       z     vdW  Elec       q    Type
REMARK                         _______ _______ _______ _____ _____    ______ ____
ROOT
ATOM      1  C   UNL     1       0.256  13.016  18.410  0.00  0.00    +0.000 C 
ATOM      2  C   UNL     1      -0.767  12.244  19.280  0.00  0.00    +0.000 C 
ATOM      3  C   UNL     1      -1.368  13.290  20.266  0.00  0.00    +0.000 C 
ATOM      4  C   UNL     1      -2.853  13.166  20.526  0.00  0.00    +0.000 C 
ATOM      5  C   UNL     1      -3.686  12.502  19.690  0.00  0.00    +0.000 C 
ATOM      6  C   UNL     1      -3.176  11.750  18.530  0.00  0.00    +0.000 C 
ATOM      7  C   UNL     1      -4.028  11.111  17.689  0.00  0.00    +0.000 C 
ATOM      8  N   UNL     1      -1.789  11.733  18.358  0.00  0.00    +0.000 N 
ATOM      9  H   UNL     1      -1.414  11.090  17.660  0.00  0.00    +0.000 HD
ENDROOT
BRANCH   2  10
ATOM     10  C   UNL     1      -0.144  11.025  19.989  0.00  0.00    +0.000 A 
ATOM     11  C   UNL     1       0.594  10.058  19.274  0.00  0.00    +0.000 A 
ATOM     12  C   UNL     1       1.166   8.953  19.912  0.00  0.00    +0.000 A 
ATOM     13  C   UNL     1       1.030   8.808  21.283  0.00  0.00    +0.000 A 
ATOM     14  F   UNL     1       1.581   7.753  21.896  0.00  0.00    +0.000 F 
ATOM     15  C   UNL     1       0.335   9.749  22.026  0.00  0.00    +0.000 A 
ATOM     16  C   UNL     1      -0.243  10.850  21.386  0.00  0.00    +0.000 A 
ENDBRANCH   2  10
BRANCH   4  17
ATOM     17  C   UNL     1      -3.304  13.886  21.739  0.00  0.00    +0.000 A 
ATOM     18  C   UNL     1      -3.599  15.257  21.674  0.00  0.00    +0.000 A 
ATOM     19  C   UNL     1      -4.086  15.928  22.799  0.00  0.00    +0.000 A 
ATOM     20  C   UNL     1      -4.268  15.233  23.987  0.00  0.00    +0.000 A 
ATOM     21  F   UNL     1      -4.746  15.874  25.061  0.00  0.00    +0.000 F 
ATOM     22  C   UNL     1      -3.968  13.877  24.073  0.00  0.00    +0.000 A 
ATOM     23  C   UNL     1      -3.487  13.202  22.948  0.00  0.00    +0.000 A 
ENDBRANCH   4  17
BRANCH   5  24
ATOM     24  C   UNL     1      -5.180  12.653  19.920  0.00  0.00    +0.000 C 
ATOM     25  N   UNL     1      -6.421  12.779  20.110  0.00  0.00    +0.000 NA
ENDBRANCH   5  24
BRANCH   7  26
ATOM     26  C   UNL     1      -5.530  11.236  17.890  0.00  0.00    +0.000 C 
ATOM     27  N   UNL     1      -6.775  11.338  18.059  0.00  0.00    +0.000 NA
ENDBRANCH   7  26
BRANCH   7  28
ATOM     28  C   UNL     1      -3.482  10.308  16.521  0.00  0.00    +0.000 C 
ATOM     29  N   UNL     1      -3.029   9.641  15.551  0.00  0.00    +0.000 NA
ENDBRANCH   7  28
TORSDOF 5
ENDMDL
MODEL 7
REMARK VINA RESULT:      -6.1      1.181      1.533
REMARK  Name = 
REMARK  6 active torsions:
REMARK  status: ('A' for Active; 'I' for Inactive)
REMARK    1  A    between atoms: C_1  and  C_2
REMARK    2  A    between atoms: C_2  and  C_3
REMARK    3  A    between atoms: C_11  and  C_12
REMARK    4  A    between atoms: C_19  and  C_20
REMARK    5  A    between atoms: C_23  and  C_24
REMARK    6  A    between atoms: C_23  and  C_26
REMARK                            x       y       z     vdW  Elec       q    Type
REMARK                         _______ _______ _______ _____ _____    ______ ____
ROOT
ATOM      1  C   UNL     1       1.841  11.800  17.923  0.00  0.00    +0.000 C 
ATOM      2  C   UNL     1       0.731  11.226  18.839  0.00  0.00    +0.000 C 
ATOM      3  C   UNL     1       0.517  12.281  19.966  0.00  0.00    +0.000 C 
ATOM      4  C   UNL     1      -0.919  12.511  20.381  0.00  0.00    +0.000 C 
ATOM      5  C   UNL     1      -1.968  12.173  19.594  0.00  0.00    +0.000 C 
ATOM      6  C   UNL     1      -1.778  11.442  18.328  0.00  0.00    +0.000 C 
ATOM      7  C   UNL     1      -2.840  11.134  17.540  0.00  0.00    +0.000 C 
ATOM      8  N   UNL     1      -0.466  11.092  18.000  0.00  0.00    +0.000 N 
ATOM      9  H   UNL     1      -0.337  10.452  17.216  0.00  0.00    +0.000 HD
ENDROOT
BRANCH   2  10
ATOM     10  C   UNL     1       1.071   9.821  19.375  0.00  0.00    +0.000 A 
ATOM     11  C   UNL     1       1.800   8.895  18.599  0.00  0.00    +0.000 A 
ATOM     12  C   UNL     1       2.115   7.621  19.081  0.00  0.00    +0.000 A 
ATOM     13  C   UNL     1       1.727   7.258  20.360  0.00  0.00    +0.000 A 
ATOM     14  F   UNL     1       2.033   6.040  20.825  0.00  0.00    +0.000 F 
ATOM     15  C   UNL     1       1.032   8.147  21.164  0.00  0.00    +0.000 A 
ATOM     16  C   UNL     1       0.711   9.419  20.679  0.00  0.00    +0.000 A 
ENDBRANCH   2  10
BRANCH   4  17
ATOM     17  C   UNL     1      -1.057  13.190  21.690  0.00  0.00    +0.000 A 
ATOM     18  C   UNL     1      -0.560  14.491  21.863  0.00  0.00    +0.000 A 
ATOM     19  C   UNL     1      -0.743  15.161  23.076  0.00  0.00    +0.000 A 
ATOM     20  C   UNL     1      -1.410  14.528  24.115  0.00  0.00    +0.000 A 
ATOM     21  F   UNL     1      -1.595  15.175  25.273  0.00  0.00    +0.000 F 
ATOM     22  C   UNL     1      -1.897  13.233  23.966  0.00  0.00    +0.000 A 
ATOM     23  C   UNL     1      -1.722  12.564  22.752  0.00  0.00    +0.000 A 
ENDBRANCH   4  17
BRANCH   5  24
ATOM     24  C   UNL     1      -3.344  12.674  20.001  0.00  0.00    +0.000 C 
ATOM     25  N   UNL     1      -4.486  13.090  20.339  0.00  0.00    +0.000 NA
ENDBRANCH   5  24
BRANCH   7  26
ATOM     26  C   UNL     1      -4.231  11.614  17.918  0.00  0.00    +0.000 C 
ATOM     27  N   UNL     1      -5.387  12.012  18.232  0.00  0.00    +0.000 NA
ENDBRANCH   7  26
BRANCH   7  28
ATOM     28  C   UNL     1      -2.630  10.347  16.258  0.00  0.00    +0.000 C 
ATOM     29  N   UNL     1      -2.454   9.693  15.193  0.00  0.00    +0.000 NA
ENDBRANCH   7  28
TORSDOF 5
ENDMDL
MODEL 8
REMARK VINA RESULT:      -6.0      3.587      5.951
REMARK  Name = 
REMARK  6 active torsions:
REMARK  status: ('A' for Active; 'I' for Inactive)
REMARK    1  A    between atoms: C_1  and  C_2
REMARK    2  A    between atoms: C_2  and  C_3
REMARK    3  A    between atoms: C_11  and  C_12
REMARK    4  A    between atoms: C_19  and  C_20
REMARK    5  A    between atoms: C_23  and  C_24
REMARK    6  A    between atoms: C_23  and  C_26
REMARK                            x       y       z     vdW  Elec       q    Type
REMARK                         _______ _______ _______ _____ _____    ______ ____
ROOT
ATOM      1  C   UNL     1      -1.959  11.689  18.738  0.00  0.00    +0.000 C 
ATOM      2  C   UNL     1      -0.820  11.834  19.778  0.00  0.00    +0.000 C 
ATOM      3  C   UNL     1       0.126  12.943  19.227  0.00  0.00    +0.000 C 
ATOM      4  C   UNL     1       0.680  13.901  20.258  0.00  0.00    +0.000 C 
ATOM      5  C   UNL     1       0.108  14.074  21.474  0.00  0.00    +0.000 C 
ATOM      6  C   UNL     1      -1.026  13.244  21.917  0.00  0.00    +0.000 C 
ATOM      7  C   UNL     1      -1.603  13.449  23.129  0.00  0.00    +0.000 C 
ATOM      8  N   UNL     1      -1.458  12.252  21.032  0.00  0.00    +0.000 N 
ATOM      9  H   UNL     1      -2.130  11.571  21.387  0.00  0.00    +0.000 HD
ENDROOT
BRANCH   2  10
ATOM     10  C   UNL     1      -0.098  10.500  20.058  0.00  0.00    +0.000 A 
ATOM     11  C   UNL     1       0.855   9.978  19.158  0.00  0.00    +0.000 A 
ATOM     12  C   UNL     1       1.517   8.772  19.408  0.00  0.00    +0.000 A 
ATOM     13  C   UNL     1       1.254   8.078  20.578  0.00  0.00    +0.000 A 
ATOM     14  F   UNL     1       1.891   6.925  20.821  0.00  0.00    +0.000 F 
ATOM     15  C   UNL     1       0.345   8.569  21.500  0.00  0.00    +0.000 A 
ATOM     16  C   UNL     1      -0.321   9.773  21.246  0.00  0.00    +0.000 A 
ENDBRANCH   2  10
BRANCH   4  17
ATOM     17  C   UNL     1       1.858  14.664  19.786  0.00  0.00    +0.000 A 
ATOM     18  C   UNL     1       3.151  14.256  20.150  0.00  0.00    +0.000 A 
ATOM     19  C   UNL     1       4.270  14.934  19.657  0.00  0.00    +0.000 A 
ATOM     20  C   UNL     1       4.096  16.020  18.812  0.00  0.00    +0.000 A 
ATOM     21  F   UNL     1       5.168  16.661  18.330  0.00  0.00    +0.000 F 
ATOM     22  C   UNL     1       2.821  16.447  18.451  0.00  0.00    +0.000 A 
ATOM     23  C   UNL     1       1.701  15.767  18.937  0.00  0.00    +0.000 A 
ENDBRANCH   4  17
BRANCH   5  24
ATOM     24  C   UNL     1       0.599  15.233  22.324  0.00  0.00    +0.000 C 
ATOM     25  N   UNL     1       1.007  16.195  23.031  0.00  0.00    +0.000 NA
ENDBRANCH   5  24
BRANCH   7  26
ATOM     26  C   UNL     1      -1.134  14.595  24.009  0.00  0.00    +0.000 C 
ATOM     27  N   UNL     1      -0.745  15.547  24.741  0.00  0.00    +0.000 NA
ENDBRANCH   7  26
BRANCH   7  28
ATOM     28  C   UNL     1      -2.745  12.558  23.586  0.00  0.00    +0.000 C 
ATOM     29  N   UNL     1      -3.695  11.818  23.965  0.00  0.00    +0.000 NA
ENDBRANCH   7  28
TORSDOF 5
ENDMDL
MODEL 9
REMARK VINA RESULT:      -5.9      3.652      6.075
REMARK  Name = 
REMARK  6 active torsions:
REMARK  status: ('A' for Active; 'I' for Inactive)
REMARK    1  A    between atoms: C_1  and  C_2
REMARK    2  A    between atoms: C_2  and  C_3
REMARK    3  A    between atoms: C_11  and  C_12
REMARK    4  A    between atoms: C_19  and  C_20
REMARK    5  A    between atoms: C_23  and  C_24
REMARK    6  A    between atoms: C_23  and  C_26
REMARK                            x       y       z     vdW  Elec       q    Type
REMARK                         _______ _______ _______ _____ _____    ______ ____
ROOT
ATOM      1  C   UNL     1      -1.772  11.759  18.557  0.00  0.00    +0.000 C 
ATOM      2  C   UNL     1      -0.645  11.891  19.612  0.00  0.00    +0.000 C 
ATOM      3  C   UNL     1       0.306  13.007  19.087  0.00  0.00    +0.000 C 
ATOM      4  C   UNL     1       0.848  13.952  20.136  0.00  0.00    +0.000 C 
ATOM      5  C   UNL     1       0.261  14.110  21.347  0.00  0.00    +0.000 C 
ATOM      6  C   UNL     1      -0.878  13.275  21.766  0.00  0.00    +0.000 C 
ATOM      7  C   UNL     1      -1.469  13.465  22.973  0.00  0.00    +0.000 C 
ATOM      8  N   UNL     1      -1.299  12.294  20.864  0.00  0.00    +0.000 N 
ATOM      9  H   UNL     1      -1.975  11.609  21.202  0.00  0.00    +0.000 HD
ENDROOT
BRANCH   2  10
ATOM     10  C   UNL     1       0.073  10.554  19.885  0.00  0.00    +0.000 A 
ATOM     11  C   UNL     1      -0.172   9.815  21.062  0.00  0.00    +0.000 A 
ATOM     12  C   UNL     1       0.472   8.600  21.312  0.00  0.00    +0.000 A 
ATOM     13  C   UNL     1       1.358   8.090  20.377  0.00  0.00    +0.000 A 
ATOM     14  F   UNL     1       1.972   6.923  20.614  0.00  0.00    +0.000 F 
ATOM     15  C   UNL     1       1.607   8.771  19.197  0.00  0.00    +0.000 A 
ATOM     16  C   UNL     1       0.967   9.990  18.950  0.00  0.00    +0.000 A 
ENDBRANCH   2  10
BRANCH   4  17
ATOM     17  C   UNL     1       2.031  14.721  19.688  0.00  0.00    +0.000 A 
ATOM     18  C   UNL     1       1.865  15.884  18.920  0.00  0.00    +0.000 A 
ATOM     19  C   UNL     1       2.975  16.649  18.548  0.00  0.00    +0.000 A 
ATOM     20  C   UNL     1       4.246  16.246  18.932  0.00  0.00    +0.000 A 
ATOM     21  F   UNL     1       5.307  16.985  18.586  0.00  0.00    +0.000 F 
ATOM     22  C   UNL     1       4.431  15.088  19.682  0.00  0.00    +0.000 A 
ATOM     23  C   UNL     1       3.322  14.325  20.062  0.00  0.00    +0.000 A 
ENDBRANCH   4  17
BRANCH   5  24
ATOM     24  C   UNL     1       0.742  15.259  22.217  0.00  0.00    +0.000 C 
ATOM     25  N   UNL     1       1.142  16.212  22.940  0.00  0.00    +0.000 NA
ENDBRANCH   5  24
BRANCH   7  26
ATOM     26  C   UNL     1      -1.011  14.601  23.873  0.00  0.00    +0.000 C 
ATOM     27  N   UNL     1      -0.630  15.543  24.619  0.00  0.00    +0.000 NA
ENDBRANCH   7  26
BRANCH   7  28
ATOM     28  C   UNL     1      -2.617  12.568  23.405  0.00  0.00    +0.000 C 
ATOM     29  N   UNL     1      -3.570  11.823  23.764  0.00  0.00    +0.000 NA
ENDBRANCH   7  28
TORSDOF 5
ENDMDL
