MODEL 1
REMARK VINA RESULT:      -8.5      0.000      0.000
REMARK  Name = 
REMARK  6 active torsions:
REMARK  status: ('A' for Active; 'I' for Inactive)
REMARK    1  A    between atoms: C_1  and  C_2
REMARK    2  A    between atoms: C_3  and  O_4
REMARK    3  A    between atoms: C_6  and  S_7
REMARK    4  A    between atoms: S_7  and  C_8
REMARK    5  A    between atoms: C_15  and  C_16
REMARK    6  A    between atoms: C_16  and  C_17
REMARK                            x       y       z     vdW  Elec       q    Type
REMARK                         _______ _______ _______ _____ _____    ______ ____
ROOT
ATOM      1  C   UNL     1       0.742   4.003  20.117  0.00  0.00    +0.000 C 
ATOM      2  C   UNL     1       1.923   4.052  19.200  0.00  0.00    +0.000 A 
ATOM      3  C   UNL     1       2.274   2.981  18.393  0.00  0.00    +0.000 A 
ATOM      4  N   UNL     1       3.305   2.959  17.547  0.00  0.00    +0.000 NA
ATOM      5  C   UNL     1       4.056   4.063  17.520  0.00  0.00    +0.000 A 
ATOM      6  N   UNL     1       3.862   5.135  18.301  0.00  0.00    +0.000 NA
ATOM      7  C   UNL     1       2.796   5.132  19.136  0.00  0.00    +0.000 A 
ENDROOT
BRANCH   3   8
ATOM      8  O   UNL     1       1.584   1.803  18.426  0.00  0.00    +0.000 OA
ATOM      9  H   UNL     1       0.662   2.014  18.633  0.00  0.00    +0.000 HD
ENDBRANCH   3   8
BRANCH   5  10
ATOM     10  S   UNL     1       5.456   4.072  16.429  0.00  0.00    +0.000 S 
BRANCH  10  11
ATOM     11  C   UNL     1       6.493   5.289  17.220  0.00  0.00    +0.000 A 
ATOM     12  C   UNL     1       7.218   4.923  18.359  0.00  0.00    +0.000 A 
ATOM     13  C   UNL     1       8.045   5.849  19.000  0.00  0.00    +0.000 A 
ATOM     14  C   UNL     1       8.158   7.145  18.501  0.00  0.00    +0.000 A 
ATOM     15  C   UNL     1       7.456   7.514  17.355  0.00  0.00    +0.000 A 
ATOM     16  C   UNL     1       6.633   6.585  16.711  0.00  0.00    +0.000 A 
ENDBRANCH  10  11
ENDBRANCH   5  10
BRANCH   7  17
ATOM     17  C   UNL     1       2.706   6.327  20.064  0.00  0.00    +0.000 C 
BRANCH  17  18
ATOM     18  C   UNL     1       2.038   7.576  19.546  0.00  0.00    +0.000 A 
ATOM     19  C   UNL     1       1.170   8.308  20.362  0.00  0.00    +0.000 A 
ATOM     20  F   UNL     1       0.834   7.834  21.571  0.00  0.00    +0.000 F 
ATOM     21  C   UNL     1       0.664   9.552  19.977  0.00  0.00    +0.000 A 
ATOM     22  C   UNL     1       1.015  10.090  18.743  0.00  0.00    +0.000 A 
ATOM     23  C   UNL     1       1.861   9.369  17.900  0.00  0.00    +0.000 A 
ATOM     24  C   UNL     1       2.364   8.132  18.306  0.00  0.00    +0.000 A 
ATOM     25  F   UNL     1       3.223   7.509  17.489  0.00  0.00    +0.000 F 
ENDBRANCH  17  18
ENDBRANCH   7  17
TORSDOF 5
ENDMDL
MODEL 2
REMARK VINA RESULT:      -8.4      2.859      5.734
REMARK  Name = 
REMARK  6 active torsions:
REMARK  status: ('A' for Active; 'I' for Inactive)
REMARK    1  A    between atoms: C_1  and  C_2
REMARK    2  A    between atoms: C_3  and  O_4
REMARK    3  A    between atoms: C_6  and  S_7
REMARK    4  A    between atoms: S_7  and  C_8
REMARK    5  A    between atoms: C_15  and  C_16
REMARK    6  A    between atoms: C_16  and  C_17
REMARK                            x       y       z     vdW  Elec       q    Type
REMARK                         _______ _______ _______ _____ _____    ______ ____
ROOT
ATOM      1  C   UNL     1       2.138   9.633  17.832  0.00  0.00    +0.000 C 
ATOM      2  C   UNL     1       2.148   8.377  18.644  0.00  0.00    +0.000 A 
ATOM      3  C   UNL     1       1.525   8.295  19.880  0.00  0.00    +0.000 A 
ATOM      4  N   UNL     1       1.486   7.206  20.651  0.00  0.00    +0.000 NA
ATOM      5  C   UNL     1       2.131   6.138  20.178  0.00  0.00    +0.000 A 
ATOM      6  N   UNL     1       2.829   6.113  19.034  0.00  0.00    +0.000 NA
ATOM      7  C   UNL     1       2.834   7.229  18.266  0.00  0.00    +0.000 A 
ENDROOT
BRANCH   3   8
ATOM      8  O   UNL     1       0.906   9.373  20.443  0.00  0.00    +0.000 OA
ATOM      9  H   UNL     1       0.053   9.482  19.999  0.00  0.00    +0.000 HD
ENDBRANCH   3   8
BRANCH   5  10
ATOM     10  S   UNL     1       2.130   4.674  21.182  0.00  0.00    +0.000 S 
BRANCH  10  11
ATOM     11  C   UNL     1       2.617   3.444  19.985  0.00  0.00    +0.000 A 
ATOM     12  C   UNL     1       3.896   2.885  20.070  0.00  0.00    +0.000 A 
ATOM     13  C   UNL     1       4.308   1.914  19.154  0.00  0.00    +0.000 A 
ATOM     14  C   UNL     1       3.440   1.490  18.151  0.00  0.00    +0.000 A 
ATOM     15  C   UNL     1       2.156   2.026  18.069  0.00  0.00    +0.000 A 
ATOM     16  C   UNL     1       1.742   2.993  18.989  0.00  0.00    +0.000 A 
ENDBRANCH  10  11
ENDBRANCH   5  10
BRANCH   7  17
ATOM     17  C   UNL     1       3.732   7.163  17.046  0.00  0.00    +0.000 C 
BRANCH  17  18
ATOM     18  C   UNL     1       4.931   6.250  17.100  0.00  0.00    +0.000 A 
ATOM     19  C   UNL     1       4.810   4.898  16.766  0.00  0.00    +0.000 A 
ATOM     20  F   UNL     1       3.599   4.381  16.512  0.00  0.00    +0.000 F 
ATOM     21  C   UNL     1       5.923   4.062  16.646  0.00  0.00    +0.000 A 
ATOM     22  C   UNL     1       7.198   4.571  16.871  0.00  0.00    +0.000 A 
ATOM     23  C   UNL     1       7.345   5.911  17.229  0.00  0.00    +0.000 A 
ATOM     24  C   UNL     1       6.221   6.733  17.336  0.00  0.00    +0.000 A 
ATOM     25  F   UNL     1       6.419   8.027  17.619  0.00  0.00    +0.000 F 
ENDBRANCH  17  18
ENDBRANCH   7  17
TORSDOF 5
ENDMDL
MODEL 3
REMARK VINA RESULT:      -8.2      2.425      5.201
REMARK  Name = 
REMARK  6 active torsions:
REMARK  status: ('A' for Active; 'I' for Inactive)
REMARK    1  A    between atoms: C_1  and  C_2
REMARK    2  A    between atoms: C_3  and  O_4
REMARK    3  A    between atoms: C_6  and  S_7
REMARK    4  A    between atoms: S_7  and  C_8
REMARK    5  A    between atoms: C_15  and  C_16
REMARK    6  A    between atoms: C_16  and  C_17
REMARK                            x       y       z     vdW  Elec       q    Type
REMARK                         _______ _______ _______ _____ _____    ______ ____
ROOT
ATOM      1  C   UNL     1       3.039   1.597  18.397  0.00  0.00    +0.000 C 
ATOM      2  C   UNL     1       2.671   2.866  19.098  0.00  0.00    +0.000 A 
ATOM      3  C   UNL     1       1.353   3.212  19.352  0.00  0.00    +0.000 A 
ATOM      4  N   UNL     1       0.955   4.320  19.980  0.00  0.00    +0.000 NA
ATOM      5  C   UNL     1       1.927   5.155  20.354  0.00  0.00    +0.000 A 
ATOM      6  N   UNL     1       3.230   4.968  20.103  0.00  0.00    +0.000 NA
ATOM      7  C   UNL     1       3.602   3.824  19.481  0.00  0.00    +0.000 A 
ENDROOT
BRANCH   3   8
ATOM      8  O   UNL     1       0.314   2.430  18.935  0.00  0.00    +0.000 OA
ATOM      9  H   UNL     1       0.646   1.863  18.224  0.00  0.00    +0.000 HD
ENDBRANCH   3   8
BRANCH   5  10
ATOM     10  S   UNL     1       1.445   6.656  21.169  0.00  0.00    +0.000 S 
BRANCH  10  11
ATOM     11  C   UNL     1       1.648   7.838  19.848  0.00  0.00    +0.000 A 
ATOM     12  C   UNL     1       1.049   9.096  19.967  0.00  0.00    +0.000 A 
ATOM     13  C   UNL     1       1.192  10.048  18.955  0.00  0.00    +0.000 A 
ATOM     14  C   UNL     1       1.942   9.750  17.820  0.00  0.00    +0.000 A 
ATOM     15  C   UNL     1       2.560   8.507  17.700  0.00  0.00    +0.000 A 
ATOM     16  C   UNL     1       2.421   7.557  18.715  0.00  0.00    +0.000 A 
ENDBRANCH  10  11
ENDBRANCH   5  10
BRANCH   7  17
ATOM     17  C   UNL     1       5.075   3.734  19.133  0.00  0.00    +0.000 C 
BRANCH  17  18
ATOM     18  C   UNL     1       5.679   4.853  18.322  0.00  0.00    +0.000 A 
ATOM     19  C   UNL     1       6.740   5.607  18.832  0.00  0.00    +0.000 A 
ATOM     20  F   UNL     1       7.146   5.416  20.096  0.00  0.00    +0.000 F 
ATOM     21  C   UNL     1       7.430   6.537  18.050  0.00  0.00    +0.000 A 
ATOM     22  C   UNL     1       7.058   6.740  16.726  0.00  0.00    +0.000 A 
ATOM     23  C   UNL     1       5.988   6.018  16.199  0.00  0.00    +0.000 A 
ATOM     24  C   UNL     1       5.316   5.086  16.993  0.00  0.00    +0.000 A 
ATOM     25  F   UNL     1       4.337   4.371  16.423  0.00  0.00    +0.000 F 
ENDBRANCH  17  18
ENDBRANCH   7  17
TORSDOF 5
ENDMDL
MODEL 4
REMARK VINA RESULT:      -8.2      0.178      1.689
REMARK  Name = 
REMARK  6 active torsions:
REMARK  status: ('A' for Active; 'I' for Inactive)
REMARK    1  A    between atoms: C_1  and  C_2
REMARK    2  A    between atoms: C_3  and  O_4
REMARK    3  A    between atoms: C_6  and  S_7
REMARK    4  A    between atoms: S_7  and  C_8
REMARK    5  A    between atoms: C_15  and  C_16
REMARK    6  A    between atoms: C_16  and  C_17
REMARK                            x       y       z     vdW  Elec       q    Type
REMARK                         _______ _______ _______ _____ _____    ______ ____
ROOT
ATOM      1  C   UNL     1       0.671   3.986  19.951  0.00  0.00    +0.000 C 
ATOM      2  C   UNL     1       1.874   4.033  19.064  0.00  0.00    +0.000 A 
ATOM      3  C   UNL     1       2.187   3.001  18.192  0.00  0.00    +0.000 A 
ATOM      4  N   UNL     1       3.235   2.982  17.367  0.00  0.00    +0.000 NA
ATOM      5  C   UNL     1       4.044   4.042  17.432  0.00  0.00    +0.000 A 
ATOM      6  N   UNL     1       3.889   5.067  18.282  0.00  0.00    +0.000 NA
ATOM      7  C   UNL     1       2.804   5.065  19.093  0.00  0.00    +0.000 A 
ENDROOT
BRANCH   3   8
ATOM      8  O   UNL     1       1.435   1.864  18.129  0.00  0.00    +0.000 OA
ATOM      9  H   UNL     1       1.402   1.589  17.201  0.00  0.00    +0.000 HD
ENDBRANCH   3   8
BRANCH   5  10
ATOM     10  S   UNL     1       5.468   4.049  16.373  0.00  0.00    +0.000 S 
BRANCH  10  11
ATOM     11  C   UNL     1       6.493   5.256  17.193  0.00  0.00    +0.000 A 
ATOM     12  C   UNL     1       7.212   4.874  18.331  0.00  0.00    +0.000 A 
ATOM     13  C   UNL     1       8.030   5.792  18.994  0.00  0.00    +0.000 A 
ATOM     14  C   UNL     1       8.140   7.097  18.519  0.00  0.00    +0.000 A 
ATOM     15  C   UNL     1       7.444   7.483  17.375  0.00  0.00    +0.000 A 
ATOM     16  C   UNL     1       6.630   6.563  16.709  0.00  0.00    +0.000 A 
ENDBRANCH  10  11
ENDBRANCH   5  10
BRANCH   7  17
ATOM     17  C   UNL     1       2.756   6.197  20.100  0.00  0.00    +0.000 C 
BRANCH  17  18
ATOM     18  C   UNL     1       2.164   7.512  19.658  0.00  0.00    +0.000 A 
ATOM     19  C   UNL     1       2.362   7.977  18.354  0.00  0.00    +0.000 A 
ATOM     20  F   UNL     1       3.180   7.310  17.526  0.00  0.00    +0.000 F 
ATOM     21  C   UNL     1       1.697   9.102  17.860  0.00  0.00    +0.000 A 
ATOM     22  C   UNL     1       0.816   9.800  18.680  0.00  0.00    +0.000 A 
ATOM     23  C   UNL     1       0.619   9.372  19.992  0.00  0.00    +0.000 A 
ATOM     24  C   UNL     1       1.286   8.239  20.465  0.00  0.00    +0.000 A 
ATOM     25  F   UNL     1       1.014   7.830  21.711  0.00  0.00    +0.000 F 
ENDBRANCH  17  18
ENDBRANCH   7  17
TORSDOF 5
ENDMDL
MODEL 5
REMARK VINA RESULT:      -8.2      2.811      5.702
REMARK  Name = 
REMARK  6 active torsions:
REMARK  status: ('A' for Active; 'I' for Inactive)
REMARK    1  A    between atoms: C_1  and  C_2
REMARK    2  A    between atoms: C_3  and  O_4
REMARK    3  A    between atoms: C_6  and  S_7
REMARK    4  A    between atoms: S_7  and  C_8
REMARK    5  A    between atoms: C_15  and  C_16
REMARK    6  A    between atoms: C_16  and  C_17
REMARK                            x       y       z     vdW  Elec       q    Type
REMARK                         _______ _______ _______ _____ _____    ______ ____
ROOT
ATOM      1  C   UNL     1       2.167   9.626  17.806  0.00  0.00    +0.000 C 
ATOM      2  C   UNL     1       2.203   8.367  18.613  0.00  0.00    +0.000 A 
ATOM      3  C   UNL     1       1.590   8.269  19.853  0.00  0.00    +0.000 A 
ATOM      4  N   UNL     1       1.574   7.178  20.619  0.00  0.00    +0.000 NA
ATOM      5  C   UNL     1       2.233   6.122  20.138  0.00  0.00    +0.000 A 
ATOM      6  N   UNL     1       2.924   6.113  18.989  0.00  0.00    +0.000 NA
ATOM      7  C   UNL     1       2.905   7.231  18.226  0.00  0.00    +0.000 A 
ENDROOT
BRANCH   3   8
ATOM      8  O   UNL     1       0.958   9.335  20.425  0.00  0.00    +0.000 OA
ATOM      9  H   UNL     1       1.094  10.098  19.845  0.00  0.00    +0.000 HD
ENDBRANCH   3   8
BRANCH   5  10
ATOM     10  S   UNL     1       2.263   4.654  21.136  0.00  0.00    +0.000 S 
BRANCH  10  11
ATOM     11  C   UNL     1       2.694   3.425  19.917  0.00  0.00    +0.000 A 
ATOM     12  C   UNL     1       3.919   2.760  20.029  0.00  0.00    +0.000 A 
ATOM     13  C   UNL     1       4.286   1.787  19.096  0.00  0.00    +0.000 A 
ATOM     14  C   UNL     1       3.426   1.468  18.048  0.00  0.00    +0.000 A 
ATOM     15  C   UNL     1       2.194   2.110  17.937  0.00  0.00    +0.000 A 
ATOM     16  C   UNL     1       1.825   3.080  18.875  0.00  0.00    +0.000 A 
ENDBRANCH  10  11
ENDBRANCH   5  10
BRANCH   7  17
ATOM     17  C   UNL     1       3.796   7.185  17.000  0.00  0.00    +0.000 C 
BRANCH  17  18
ATOM     18  C   UNL     1       5.032   6.325  17.057  0.00  0.00    +0.000 A 
ATOM     19  C   UNL     1       6.255   6.866  17.467  0.00  0.00    +0.000 A 
ATOM     20  F   UNL     1       6.357   8.183  17.696  0.00  0.00    +0.000 F 
ATOM     21  C   UNL     1       7.380   6.068  17.690  0.00  0.00    +0.000 A 
ATOM     22  C   UNL     1       7.304   4.693  17.494  0.00  0.00    +0.000 A 
ATOM     23  C   UNL     1       6.102   4.130  17.063  0.00  0.00    +0.000 A 
ATOM     24  C   UNL     1       4.986   4.944  16.854  0.00  0.00    +0.000 A 
ATOM     25  F   UNL     1       3.838   4.349  16.502  0.00  0.00    +0.000 F 
ENDBRANCH  17  18
ENDBRANCH   7  17
TORSDOF 5
ENDMDL
MODEL 6
REMARK VINA RESULT:      -8.1      2.317      5.221
REMARK  Name = 
REMARK  6 active torsions:
REMARK  status: ('A' for Active; 'I' for Inactive)
REMARK    1  A    between atoms: C_1  and  C_2
REMARK    2  A    between atoms: C_3  and  O_4
REMARK    3  A    between atoms: C_6  and  S_7
REMARK    4  A    between atoms: S_7  and  C_8
REMARK    5  A    between atoms: C_15  and  C_16
REMARK    6  A    between atoms: C_16  and  C_17
REMARK                            x       y       z     vdW  Elec       q    Type
REMARK                         _______ _______ _______ _____ _____    ______ ____
ROOT
ATOM      1  C   UNL     1       3.474   1.687  18.258  0.00  0.00    +0.000 C 
ATOM      2  C   UNL     1       3.042   2.924  18.978  0.00  0.00    +0.000 A 
ATOM      3  C   UNL     1       1.705   3.226  19.187  0.00  0.00    +0.000 A 
ATOM      4  N   UNL     1       1.250   4.304  19.828  0.00  0.00    +0.000 NA
ATOM      5  C   UNL     1       2.182   5.154  20.265  0.00  0.00    +0.000 A 
ATOM      6  N   UNL     1       3.499   5.011  20.063  0.00  0.00    +0.000 NA
ATOM      7  C   UNL     1       3.929   3.896  19.425  0.00  0.00    +0.000 A 
ENDROOT
BRANCH   3   8
ATOM      8  O   UNL     1       0.707   2.429  18.706  0.00  0.00    +0.000 OA
ATOM      9  H   UNL     1      -0.122   2.729  19.107  0.00  0.00    +0.000 HD
ENDBRANCH   3   8
BRANCH   5  10
ATOM     10  S   UNL     1       1.625   6.617  21.101  0.00  0.00    +0.000 S 
BRANCH  10  11
ATOM     11  C   UNL     1       1.723   7.817  19.784  0.00  0.00    +0.000 A 
ATOM     12  C   UNL     1       1.109   9.063  19.956  0.00  0.00    +0.000 A 
ATOM     13  C   UNL     1       1.172  10.028  18.948  0.00  0.00    +0.000 A 
ATOM     14  C   UNL     1       1.854   9.756  17.765  0.00  0.00    +0.000 A 
ATOM     15  C   UNL     1       2.485   8.526  17.591  0.00  0.00    +0.000 A 
ATOM     16  C   UNL     1       2.428   7.563  18.602  0.00  0.00    +0.000 A 
ENDBRANCH  10  11
ENDBRANCH   5  10
BRANCH   7  17
ATOM     17  C   UNL     1       5.417   3.857  19.135  0.00  0.00    +0.000 C 
BRANCH  17  18
ATOM     18  C   UNL     1       6.022   5.020  18.391  0.00  0.00    +0.000 A 
ATOM     19  C   UNL     1       5.410   5.522  17.238  0.00  0.00    +0.000 A 
ATOM     20  F   UNL     1       4.344   4.892  16.722  0.00  0.00    +0.000 F 
ATOM     21  C   UNL     1       5.847   6.695  16.618  0.00  0.00    +0.000 A 
ATOM     22  C   UNL     1       6.930   7.393  17.143  0.00  0.00    +0.000 A 
ATOM     23  C   UNL     1       7.573   6.902  18.279  0.00  0.00    +0.000 A 
ATOM     24  C   UNL     1       7.116   5.732  18.890  0.00  0.00    +0.000 A 
ATOM     25  F   UNL     1       7.726   5.336  20.014  0.00  0.00    +0.000 F 
ENDBRANCH  17  18
ENDBRANCH   7  17
TORSDOF 5
ENDMDL
MODEL 7
REMARK VINA RESULT:      -8.0      2.377      5.869
REMARK  Name = 
REMARK  6 active torsions:
REMARK  status: ('A' for Active; 'I' for Inactive)
REMARK    1  A    between atoms: C_1  and  C_2
REMARK    2  A    between atoms: C_3  and  O_4
REMARK    3  A    between atoms: C_6  and  S_7
REMARK    4  A    between atoms: S_7  and  C_8
REMARK    5  A    between atoms: C_15  and  C_16
REMARK    6  A    between atoms: C_16  and  C_17
REMARK                            x       y       z     vdW  Elec       q    Type
REMARK                         _______ _______ _______ _____ _____    ______ ____
ROOT
ATOM      1  C   UNL     1       2.264   2.664  18.157  0.00  0.00    +0.000 C 
ATOM      2  C   UNL     1       2.185   3.944  18.925  0.00  0.00    +0.000 A 
ATOM      3  C   UNL     1       1.256   4.142  19.935  0.00  0.00    +0.000 A 
ATOM      4  N   UNL     1       1.137   5.251  20.666  0.00  0.00    +0.000 NA
ATOM      5  C   UNL     1       1.975   6.243  20.355  0.00  0.00    +0.000 A 
ATOM      6  N   UNL     1       2.867   6.201  19.356  0.00  0.00    +0.000 NA
ATOM      7  C   UNL     1       2.975   5.053  18.645  0.00  0.00    +0.000 A 
ENDROOT
BRANCH   3   8
ATOM      8  O   UNL     1       0.331   3.189  20.253  0.00  0.00    +0.000 OA
ATOM      9  H   UNL     1       0.791   2.488  20.736  0.00  0.00    +0.000 HD
ENDBRANCH   3   8
BRANCH   5  10
ATOM     10  S   UNL     1       1.836   7.750  21.282  0.00  0.00    +0.000 S 
BRANCH  10  11
ATOM     11  C   UNL     1       1.000   8.796  20.104  0.00  0.00    +0.000 A 
ATOM     12  C   UNL     1      -0.146   9.490  20.507  0.00  0.00    +0.000 A 
ATOM     13  C   UNL     1      -0.822  10.323  19.613  0.00  0.00    +0.000 A 
ATOM     14  C   UNL     1      -0.352  10.473  18.310  0.00  0.00    +0.000 A 
ATOM     15  C   UNL     1       0.800   9.803  17.903  0.00  0.00    +0.000 A 
ATOM     16  C   UNL     1       1.479   8.974  18.800  0.00  0.00    +0.000 A 
ENDBRANCH  10  11
ENDBRANCH   5  10
BRANCH   7  17
ATOM     17  C   UNL     1       3.923   5.118  17.464  0.00  0.00    +0.000 C 
BRANCH  17  18
ATOM     18  C   UNL     1       5.331   5.596  17.714  0.00  0.00    +0.000 A 
ATOM     19  C   UNL     1       5.866   6.652  16.968  0.00  0.00    +0.000 A 
ATOM     20  F   UNL     1       5.168   7.164  15.944  0.00  0.00    +0.000 F 
ATOM     21  C   UNL     1       7.100   7.228  17.280  0.00  0.00    +0.000 A 
ATOM     22  C   UNL     1       7.838   6.744  18.354  0.00  0.00    +0.000 A 
ATOM     23  C   UNL     1       7.339   5.676  19.100  0.00  0.00    +0.000 A 
ATOM     24  C   UNL     1       6.099   5.119  18.779  0.00  0.00    +0.000 A 
ATOM     25  F   UNL     1       5.634   4.138  19.564  0.00  0.00    +0.000 F 
ENDBRANCH  17  18
ENDBRANCH   7  17
TORSDOF 5
ENDMDL
MODEL 8
REMARK VINA RESULT:      -7.9      2.573      4.604
REMARK  Name = 
REMARK  6 active torsions:
REMARK  status: ('A' for Active; 'I' for Inactive)
REMARK    1  A    between atoms: C_1  and  C_2
REMARK    2  A    between atoms: C_3  and  O_4
REMARK    3  A    between atoms: C_6  and  S_7
REMARK    4  A    between atoms: S_7  and  C_8
REMARK    5  A    between atoms: C_15  and  C_16
REMARK    6  A    between atoms: C_16  and  C_17
REMARK                            x       y       z     vdW  Elec       q    Type
REMARK                         _______ _______ _______ _____ _____    ______ ____
ROOT
ATOM      1  C   UNL     1       1.007   7.946  21.243  0.00  0.00    +0.000 C 
ATOM      2  C   UNL     1       1.836   7.776  20.011  0.00  0.00    +0.000 A 
ATOM      3  C   UNL     1       1.870   8.732  19.007  0.00  0.00    +0.000 A 
ATOM      4  N   UNL     1       2.593   8.649  17.889  0.00  0.00    +0.000 NA
ATOM      5  C   UNL     1       3.308   7.532  17.742  0.00  0.00    +0.000 A 
ATOM      6  N   UNL     1       3.304   6.506  18.605  0.00  0.00    +0.000 NA
ATOM      7  C   UNL     1       2.574   6.629  19.739  0.00  0.00    +0.000 A 
ENDROOT
BRANCH   3   8
ATOM      8  O   UNL     1       1.109   9.864  19.071  0.00  0.00    +0.000 OA
ATOM      9  H   UNL     1       0.200   9.615  18.850  0.00  0.00    +0.000 HD
ENDBRANCH   3   8
BRANCH   5  10
ATOM     10  S   UNL     1       4.265   7.364  16.257  0.00  0.00    +0.000 S 
BRANCH  10  11
ATOM     11  C   UNL     1       5.587   6.309  16.824  0.00  0.00    +0.000 A 
ATOM     12  C   UNL     1       5.666   5.001  16.335  0.00  0.00    +0.000 A 
ATOM     13  C   UNL     1       6.692   4.149  16.753  0.00  0.00    +0.000 A 
ATOM     14  C   UNL     1       7.650   4.603  17.657  0.00  0.00    +0.000 A 
ATOM     15  C   UNL     1       7.592   5.911  18.134  0.00  0.00    +0.000 A 
ATOM     16  C   UNL     1       6.569   6.764  17.712  0.00  0.00    +0.000 A 
ENDBRANCH  10  11
ENDBRANCH   5  10
BRANCH   7  17
ATOM     17  C   UNL     1       2.529   5.389  20.610  0.00  0.00    +0.000 C 
BRANCH  17  18
ATOM     18  C   UNL     1       2.592   4.045  19.929  0.00  0.00    +0.000 A 
ATOM     19  C   UNL     1       1.419   3.351  19.618  0.00  0.00    +0.000 A 
ATOM     20  F   UNL     1       0.235   3.825  20.033  0.00  0.00    +0.000 F 
ATOM     21  C   UNL     1       1.429   2.187  18.845  0.00  0.00    +0.000 A 
ATOM     22  C   UNL     1       2.636   1.683  18.370  0.00  0.00    +0.000 A 
ATOM     23  C   UNL     1       3.824   2.343  18.686  0.00  0.00    +0.000 A 
ATOM     24  C   UNL     1       3.791   3.510  19.453  0.00  0.00    +0.000 A 
ATOM     25  F   UNL     1       4.951   4.142  19.675  0.00  0.00    +0.000 F 
ENDBRANCH  17  18
ENDBRANCH   7  17
TORSDOF 5
ENDMDL
MODEL 9
REMARK VINA RESULT:      -7.9      2.381      5.722
REMARK  Name = 
REMARK  6 active torsions:
REMARK  status: ('A' for Active; 'I' for Inactive)
REMARK    1  A    between atoms: C_1  and  C_2
REMARK    2  A    between atoms: C_3  and  O_4
REMARK    3  A    between atoms: C_6  and  S_7
REMARK    4  A    between atoms: S_7  and  C_8
REMARK    5  A    between atoms: C_15  and  C_16
REMARK    6  A    between atoms: C_16  and  C_17
REMARK                            x       y       z     vdW  Elec       q    Type
REMARK                         _______ _______ _______ _____ _____    ______ ____
ROOT
ATOM      1  C   UNL     1       2.337   2.650  18.216  0.00  0.00    +0.000 C 
ATOM      2  C   UNL     1       2.224   3.928  18.984  0.00  0.00    +0.000 A 
ATOM      3  C   UNL     1       1.234   4.131  19.934  0.00  0.00    +0.000 A 
ATOM      4  N   UNL     1       1.081   5.239  20.661  0.00  0.00    +0.000 NA
ATOM      5  C   UNL     1       1.948   6.222  20.409  0.00  0.00    +0.000 A 
ATOM      6  N   UNL     1       2.901   6.174  19.469  0.00  0.00    +0.000 NA
ATOM      7  C   UNL     1       3.042   5.029  18.761  0.00  0.00    +0.000 A 
ENDROOT
BRANCH   3   8
ATOM      8  O   UNL     1       0.280   3.188  20.187  0.00  0.00    +0.000 OA
ATOM      9  H   UNL     1       0.028   2.796  19.338  0.00  0.00    +0.000 HD
ENDBRANCH   3   8
BRANCH   5  10
ATOM     10  S   UNL     1       1.767   7.726  21.333  0.00  0.00    +0.000 S 
BRANCH  10  11
ATOM     11  C   UNL     1       0.979   8.774  20.123  0.00  0.00    +0.000 A 
ATOM     12  C   UNL     1      -0.178   9.473  20.483  0.00  0.00    +0.000 A 
ATOM     13  C   UNL     1      -0.817  10.308  19.563  0.00  0.00    +0.000 A 
ATOM     14  C   UNL     1      -0.300  10.453  18.278  0.00  0.00    +0.000 A 
ATOM     15  C   UNL     1       0.863   9.776  17.915  0.00  0.00    +0.000 A 
ATOM     16  C   UNL     1       1.506   8.946  18.838  0.00  0.00    +0.000 A 
ENDBRANCH  10  11
ENDBRANCH   5  10
BRANCH   7  17
ATOM     17  C   UNL     1       4.064   5.088  17.642  0.00  0.00    +0.000 C 
BRANCH  17  18
ATOM     18  C   UNL     1       5.372   5.787  17.917  0.00  0.00    +0.000 A 
ATOM     19  C   UNL     1       6.221   5.332  18.931  0.00  0.00    +0.000 A 
ATOM     20  F   UNL     1       5.819   4.344  19.743  0.00  0.00    +0.000 F 
ATOM     21  C   UNL     1       7.508   5.848  19.106  0.00  0.00    +0.000 A 
ATOM     22  C   UNL     1       7.972   6.852  18.262  0.00  0.00    +0.000 A 
ATOM     23  C   UNL     1       7.137   7.340  17.258  0.00  0.00    +0.000 A 
ATOM     24  C   UNL     1       5.857   6.805  17.093  0.00  0.00    +0.000 A 
ATOM     25  F   UNL     1       5.117   7.262  16.074  0.00  0.00    +0.000 F 
ENDBRANCH  17  18
ENDBRANCH   7  17
TORSDOF 5
ENDMDL
