MODEL 1
REMARK VINA RESULT:      -7.5      0.000      0.000
REMARK  Name = 
REMARK  8 active torsions:
REMARK  status: ('A' for Active; 'I' for Inactive)
REMARK    1  A    between atoms: C_1  and  O_2
REMARK    2  A    between atoms: O_2  and  C_3
REMARK    3  A    between atoms: C_5  and  N_6
REMARK    4  A    between atoms: C_10  and  C_11
REMARK    5  A    between atoms: C_22  and  O_23
REMARK    6  A    between atoms: O_23  and  C_24
REMARK    7  A    between atoms: C_25  and  O_26
REMARK    8  A    between atoms: O_26  and  C_27
REMARK                            x       y       z     vdW  Elec       q    Type
REMARK                         _______ _______ _______ _____ _____    ______ ____
ROOT
ATOM      1  N   UNL     1       2.803   7.825  18.026  0.00  0.00    +0.000 N 
ATOM      2  C   UNL     1       1.894   8.468  18.800  0.00  0.00    +0.000 A 
ATOM      3  N   UNL     1       1.655   8.355  20.097  0.00  0.00    +0.000 NA
ATOM      4  N   UNL     1       0.705   9.250  20.591  0.00  0.00    +0.000 NA
ATOM      5  C   UNL     1       0.210  10.007  19.640  0.00  0.00    +0.000 A 
ATOM      6  S   UNL     1       0.834   9.607  18.066  0.00  0.00    +0.000 S 
ATOM      7  H   UNL     1       2.865   8.125  17.064  0.00  0.00    +0.000 HD
ENDROOT
BRANCH   5   8
ATOM      8  C   UNL     1      -0.655  11.232  19.827  0.00  0.00    +0.000 A 
ATOM      9  C   UNL     1      -1.326  11.778  18.745  0.00  0.00    +0.000 A 
ATOM     10  N   UNL     1      -1.434  13.105  19.022  0.00  0.00    +0.000 N 
ATOM     11  C   UNL     1      -1.494  13.260  20.382  0.00  0.00    +0.000 A 
ATOM     12  C   UNL     1      -1.941  14.364  21.115  0.00  0.00    +0.000 A 
ATOM     13  C   UNL     1      -1.909  14.264  22.501  0.00  0.00    +0.000 A 
ATOM     14  C   UNL     1      -1.359  13.132  23.114  0.00  0.00    +0.000 A 
ATOM     15  C   UNL     1      -0.848  12.059  22.354  0.00  0.00    +0.000 A 
ATOM     16  C   UNL     1      -0.964  12.087  20.943  0.00  0.00    +0.000 A 
ATOM     17  H   UNL     1      -1.537  13.843  18.341  0.00  0.00    +0.000 HD
ENDBRANCH   5   8
BRANCH   1  20
ATOM     18  C   UNL     1       4.979   4.802  18.574  0.00  0.00    +0.000 A 
ATOM     19  C   UNL     1       4.572   6.122  18.282  0.00  0.00    +0.000 A 
ATOM     20  C   UNL     1       3.228   6.472  18.173  0.00  0.00    +0.000 A 
ATOM     21  C   UNL     1       2.296   5.440  18.188  0.00  0.00    +0.000 A 
ATOM     22  C   UNL     1       2.679   4.101  18.406  0.00  0.00    +0.000 A 
ATOM     23  C   UNL     1       4.030   3.762  18.610  0.00  0.00    +0.000 A 
BRANCH  18  25
ATOM     24  C   UNL     1       7.176   4.653  17.694  0.00  0.00    +0.000 C 
ATOM     25  O   UNL     1       6.307   4.545  18.827  0.00  0.00    +0.000 OA
ENDBRANCH  18  25
BRANCH  22  26
ATOM     26  O   UNL     1       1.604   3.227  18.343  0.00  0.00    +0.000 OA
ATOM     27  C   UNL     1       0.880   2.999  19.545  0.00  0.00    +0.000 C 
ENDBRANCH  22  26
BRANCH  23  28
ATOM     28  O   UNL     1       4.284   2.439  18.827  0.00  0.00    +0.000 OA
ATOM     29  C   UNL     1       4.462   1.903  20.127  0.00  0.00    +0.000 C 
ENDBRANCH  23  28
ENDBRANCH   1  20
TORSDOF 5
ENDMDL
MODEL 2
REMARK VINA RESULT:      -7.5      3.959      9.694
REMARK  Name = 
REMARK  8 active torsions:
REMARK  status: ('A' for Active; 'I' for Inactive)
REMARK    1  A    between atoms: C_1  and  O_2
REMARK    2  A    between atoms: O_2  and  C_3
REMARK    3  A    between atoms: C_5  and  N_6
REMARK    4  A    between atoms: C_10  and  C_11
REMARK    5  A    between atoms: C_22  and  O_23
REMARK    6  A    between atoms: O_23  and  C_24
REMARK    7  A    between atoms: C_25  and  O_26
REMARK    8  A    between atoms: O_26  and  C_27
REMARK                            x       y       z     vdW  Elec       q    Type
REMARK                         _______ _______ _______ _____ _____    ______ ____
ROOT
ATOM      1  N   UNL     1       0.628   9.657  19.684  0.00  0.00    +0.000 N 
ATOM      2  C   UNL     1       1.435   8.884  18.918  0.00  0.00    +0.000 A 
ATOM      3  N   UNL     1       1.773   9.013  17.645  0.00  0.00    +0.000 NA
ATOM      4  N   UNL     1       2.713   8.085  17.197  0.00  0.00    +0.000 NA
ATOM      5  C   UNL     1       3.045   7.235  18.141  0.00  0.00    +0.000 A 
ATOM      6  S   UNL     1       2.159   7.489  19.617  0.00  0.00    +0.000 S 
ATOM      7  H   UNL     1       0.570   9.414  20.662  0.00  0.00    +0.000 HD
ENDROOT
BRANCH   5   8
ATOM      8  C   UNL     1       4.190   6.250  18.101  0.00  0.00    +0.000 A 
ATOM      9  C   UNL     1       4.580   5.593  19.256  0.00  0.00    +0.000 A 
ATOM     10  N   UNL     1       5.908   5.346  19.097  0.00  0.00    +0.000 N 
ATOM     11  C   UNL     1       6.164   5.194  17.760  0.00  0.00    +0.000 A 
ATOM     12  C   UNL     1       7.272   4.604  17.145  0.00  0.00    +0.000 A 
ATOM     13  C   UNL     1       7.286   4.567  15.756  0.00  0.00    +0.000 A 
ATOM     14  C   UNL     1       6.266   5.185  15.024  0.00  0.00    +0.000 A 
ATOM     15  C   UNL     1       5.192   5.837  15.665  0.00  0.00    +0.000 A 
ATOM     16  C   UNL     1       5.096   5.799  17.076  0.00  0.00    +0.000 A 
ATOM     17  H   UNL     1       6.576   5.212  19.843  0.00  0.00    +0.000 HD
ENDBRANCH   5   8
BRANCH   1  20
ATOM     18  C   UNL     1      -2.463  10.557  17.732  0.00  0.00    +0.000 A 
ATOM     19  C   UNL     1      -1.221   9.984  18.080  0.00  0.00    +0.000 A 
ATOM     20  C   UNL     1      -0.550  10.334  19.250  0.00  0.00    +0.000 A 
ATOM     21  C   UNL     1      -1.059  11.399  19.984  0.00  0.00    +0.000 A 
ATOM     22  C   UNL     1      -2.262  12.039  19.620  0.00  0.00    +0.000 A 
ATOM     23  C   UNL     1      -2.987  11.621  18.490  0.00  0.00    +0.000 A 
BRANCH  18  25
ATOM     24  C   UNL     1      -2.885  10.708  15.403  0.00  0.00    +0.000 C 
ATOM     25  O   UNL     1      -3.157  10.060  16.650  0.00  0.00    +0.000 OA
ENDBRANCH  18  25
BRANCH  22  26
ATOM     26  O   UNL     1      -2.571  13.099  20.460  0.00  0.00    +0.000 OA
ATOM     27  C   UNL     1      -3.086  12.782  21.746  0.00  0.00    +0.000 C 
ENDBRANCH  22  26
BRANCH  23  28
ATOM     28  O   UNL     1      -4.145  12.301  18.242  0.00  0.00    +0.000 OA
ATOM     29  C   UNL     1      -5.400  11.870  18.738  0.00  0.00    +0.000 C 
ENDBRANCH  23  28
ENDBRANCH   1  20
TORSDOF 5
ENDMDL
MODEL 3
REMARK VINA RESULT:      -7.4      0.336      2.456
REMARK  Name = 
REMARK  8 active torsions:
REMARK  status: ('A' for Active; 'I' for Inactive)
REMARK    1  A    between atoms: C_1  and  O_2
REMARK    2  A    between atoms: O_2  and  C_3
REMARK    3  A    between atoms: C_5  and  N_6
REMARK    4  A    between atoms: C_10  and  C_11
REMARK    5  A    between atoms: C_22  and  O_23
REMARK    6  A    between atoms: O_23  and  C_24
REMARK    7  A    between atoms: C_25  and  O_26
REMARK    8  A    between atoms: O_26  and  C_27
REMARK                            x       y       z     vdW  Elec       q    Type
REMARK                         _______ _______ _______ _____ _____    ______ ____
ROOT
ATOM      1  N   UNL     1       2.798   7.818  18.091  0.00  0.00    +0.000 N 
ATOM      2  C   UNL     1       1.880   8.486  18.831  0.00  0.00    +0.000 A 
ATOM      3  N   UNL     1       1.539   8.329  20.100  0.00  0.00    +0.000 NA
ATOM      4  N   UNL     1       0.617   9.264  20.572  0.00  0.00    +0.000 NA
ATOM      5  C   UNL     1       0.245  10.098  19.629  0.00  0.00    +0.000 A 
ATOM      6  S   UNL     1       0.956   9.730  18.085  0.00  0.00    +0.000 S 
ATOM      7  H   UNL     1       2.951   8.157  17.152  0.00  0.00    +0.000 HD
ENDROOT
BRANCH   5   8
ATOM      8  C   UNL     1      -0.547  11.372  19.818  0.00  0.00    +0.000 A 
ATOM      9  C   UNL     1      -1.126  11.996  18.726  0.00  0.00    +0.000 A 
ATOM     10  N   UNL     1      -1.161  13.318  19.045  0.00  0.00    +0.000 N 
ATOM     11  C   UNL     1      -1.280  13.432  20.405  0.00  0.00    +0.000 A 
ATOM     12  C   UNL     1      -1.691  14.538  21.155  0.00  0.00    +0.000 A 
ATOM     13  C   UNL     1      -1.735  14.391  22.536  0.00  0.00    +0.000 A 
ATOM     14  C   UNL     1      -1.291  13.206  23.134  0.00  0.00    +0.000 A 
ATOM     15  C   UNL     1      -0.813  12.127  22.361  0.00  0.00    +0.000 A 
ATOM     16  C   UNL     1      -0.856  12.208  20.949  0.00  0.00    +0.000 A 
ATOM     17  H   UNL     1      -1.183  14.083  18.387  0.00  0.00    +0.000 HD
ENDBRANCH   5   8
BRANCH   1  20
ATOM     18  C   UNL     1       2.507   4.065  18.008  0.00  0.00    +0.000 A 
ATOM     19  C   UNL     1       2.161   5.433  18.049  0.00  0.00    +0.000 A 
ATOM     20  C   UNL     1       3.119   6.432  18.197  0.00  0.00    +0.000 A 
ATOM     21  C   UNL     1       4.420   6.032  18.482  0.00  0.00    +0.000 A 
ATOM     22  C   UNL     1       4.783   4.670  18.521  0.00  0.00    +0.000 A 
ATOM     23  C   UNL     1       3.831   3.664  18.276  0.00  0.00    +0.000 A 
BRANCH  18  25
ATOM     24  C   UNL     1       0.812   2.620  18.819  0.00  0.00    +0.000 C 
ATOM     25  O   UNL     1       1.543   3.132  17.700  0.00  0.00    +0.000 OA
ENDBRANCH  18  25
BRANCH  22  26
ATOM     26  O   UNL     1       6.115   4.488  18.860  0.00  0.00    +0.000 OA
ATOM     27  C   UNL     1       7.081   4.687  17.835  0.00  0.00    +0.000 C 
ENDBRANCH  22  26
BRANCH  23  28
ATOM     28  O   UNL     1       4.296   2.382  18.322  0.00  0.00    +0.000 OA
ATOM     29  C   UNL     1       4.257   1.601  19.505  0.00  0.00    +0.000 C 
ENDBRANCH  23  28
ENDBRANCH   1  20
TORSDOF 5
ENDMDL
MODEL 4
REMARK VINA RESULT:      -7.2      7.507     10.446
REMARK  Name = 
REMARK  8 active torsions:
REMARK  status: ('A' for Active; 'I' for Inactive)
REMARK    1  A    between atoms: C_1  and  O_2
REMARK    2  A    between atoms: O_2  and  C_3
REMARK    3  A    between atoms: C_5  and  N_6
REMARK    4  A    between atoms: C_10  and  C_11
REMARK    5  A    between atoms: C_22  and  O_23
REMARK    6  A    between atoms: O_23  and  C_24
REMARK    7  A    between atoms: C_25  and  O_26
REMARK    8  A    between atoms: O_26  and  C_27
REMARK                            x       y       z     vdW  Elec       q    Type
REMARK                         _______ _______ _______ _____ _____    ______ ____
ROOT
ATOM      1  N   UNL     1       9.237   8.738  18.918  0.00  0.00    +0.000 N 
ATOM      2  C   UNL     1       8.186   8.109  18.338  0.00  0.00    +0.000 A 
ATOM      3  N   UNL     1       7.379   8.522  17.373  0.00  0.00    +0.000 NA
ATOM      4  N   UNL     1       6.454   7.570  16.944  0.00  0.00    +0.000 NA
ATOM      5  C   UNL     1       6.554   6.453  17.626  0.00  0.00    +0.000 A 
ATOM      6  S   UNL     1       7.749   6.539  18.888  0.00  0.00    +0.000 S 
ATOM      7  H   UNL     1       9.767   8.201  19.589  0.00  0.00    +0.000 HD
ENDROOT
BRANCH   5   8
ATOM      8  C   UNL     1       5.891   5.136  17.295  0.00  0.00    +0.000 A 
ATOM      9  C   UNL     1       5.933   4.645  16.001  0.00  0.00    +0.000 A 
ATOM     10  N   UNL     1       4.799   3.906  15.861  0.00  0.00    +0.000 N 
ATOM     11  C   UNL     1       4.464   3.391  17.085  0.00  0.00    +0.000 A 
ATOM     12  C   UNL     1       3.609   2.324  17.378  0.00  0.00    +0.000 A 
ATOM     13  C   UNL     1       3.442   1.990  18.716  0.00  0.00    +0.000 A 
ATOM     14  C   UNL     1       4.042   2.764  19.717  0.00  0.00    +0.000 A 
ATOM     15  C   UNL     1       4.844   3.880  19.401  0.00  0.00    +0.000 A 
ATOM     16  C   UNL     1       5.117   4.181  18.045  0.00  0.00    +0.000 A 
ATOM     17  H   UNL     1       4.333   3.702  14.989  0.00  0.00    +0.000 HD
ENDBRANCH   5   8
BRANCH   1  20
ATOM     18  C   UNL     1       9.372  12.039  20.723  0.00  0.00    +0.000 A 
ATOM     19  C   UNL     1       9.122  10.679  20.439  0.00  0.00    +0.000 A 
ATOM     20  C   UNL     1       9.345  10.136  19.176  0.00  0.00    +0.000 A 
ATOM     21  C   UNL     1       9.657  11.019  18.148  0.00  0.00    +0.000 A 
ATOM     22  C   UNL     1       9.842  12.396  18.386  0.00  0.00    +0.000 A 
ATOM     23  C   UNL     1       9.709  12.927  19.683  0.00  0.00    +0.000 A 
BRANCH  18  25
ATOM     24  C   UNL     1       8.298  11.835  22.827  0.00  0.00    +0.000 C 
ATOM     25  O   UNL     1       9.288  12.486  22.022  0.00  0.00    +0.000 OA
ENDBRANCH  18  25
BRANCH  22  26
ATOM     26  O   UNL     1      10.108  13.103  17.223  0.00  0.00    +0.000 OA
ATOM     27  C   UNL     1      11.464  13.181  16.805  0.00  0.00    +0.000 C 
ENDBRANCH  22  26
BRANCH  23  28
ATOM     28  O   UNL     1       9.927  14.269  19.800  0.00  0.00    +0.000 OA
ATOM     29  C   UNL     1      11.181  14.805  20.183  0.00  0.00    +0.000 C 
ENDBRANCH  23  28
ENDBRANCH   1  20
TORSDOF 5
ENDMDL
MODEL 5
REMARK VINA RESULT:      -7.2      1.287      1.308
REMARK  Name = 
REMARK  8 active torsions:
REMARK  status: ('A' for Active; 'I' for Inactive)
REMARK    1  A    between atoms: C_1  and  O_2
REMARK    2  A    between atoms: O_2  and  C_3
REMARK    3  A    between atoms: C_5  and  N_6
REMARK    4  A    between atoms: C_10  and  C_11
REMARK    5  A    between atoms: C_22  and  O_23
REMARK    6  A    between atoms: O_23  and  C_24
REMARK    7  A    between atoms: C_25  and  O_26
REMARK    8  A    between atoms: O_26  and  C_27
REMARK                            x       y       z     vdW  Elec       q    Type
REMARK                         _______ _______ _______ _____ _____    ______ ____
ROOT
ATOM      1  N   UNL     1       3.082   7.545  17.810  0.00  0.00    +0.000 N 
ATOM      2  C   UNL     1       2.291   8.215  18.683  0.00  0.00    +0.000 A 
ATOM      3  N   UNL     1       1.937   7.902  19.919  0.00  0.00    +0.000 NA
ATOM      4  N   UNL     1       1.185   8.878  20.572  0.00  0.00    +0.000 NA
ATOM      5  C   UNL     1       0.948   9.909  19.796  0.00  0.00    +0.000 A 
ATOM      6  S   UNL     1       1.578   9.701  18.188  0.00  0.00    +0.000 S 
ATOM      7  H   UNL     1       3.282   8.010  16.937  0.00  0.00    +0.000 HD
ENDROOT
BRANCH   5   8
ATOM      8  C   UNL     1       0.376  11.242  20.222  0.00  0.00    +0.000 A 
ATOM      9  C   UNL     1       0.568  12.362  19.431  0.00  0.00    +0.000 A 
ATOM     10  N   UNL     1       0.565  13.415  20.293  0.00  0.00    +0.000 N 
ATOM     11  C   UNL     1      -0.241  13.102  21.355  0.00  0.00    +0.000 A 
ATOM     12  C   UNL     1      -0.818  13.962  22.295  0.00  0.00    +0.000 A 
ATOM     13  C   UNL     1      -1.612  13.387  23.281  0.00  0.00    +0.000 A 
ATOM     14  C   UNL     1      -1.736  11.996  23.365  0.00  0.00    +0.000 A 
ATOM     15  C   UNL     1      -1.087  11.143  22.449  0.00  0.00    +0.000 A 
ATOM     16  C   UNL     1      -0.358  11.702  21.371  0.00  0.00    +0.000 A 
ATOM     17  H   UNL     1       1.011  14.307  20.136  0.00  0.00    +0.000 HD
ENDBRANCH   5   8
BRANCH   1  20
ATOM     18  C   UNL     1       4.417   4.105  17.061  0.00  0.00    +0.000 A 
ATOM     19  C   UNL     1       4.262   5.508  17.064  0.00  0.00    +0.000 A 
ATOM     20  C   UNL     1       3.173   6.128  17.673  0.00  0.00    +0.000 A 
ATOM     21  C   UNL     1       2.146   5.310  18.129  0.00  0.00    +0.000 A 
ATOM     22  C   UNL     1       2.239   3.905  18.074  0.00  0.00    +0.000 A 
ATOM     23  C   UNL     1       3.383   3.279  17.544  0.00  0.00    +0.000 A 
BRANCH  18  25
ATOM     24  C   UNL     1       6.637   4.492  16.325  0.00  0.00    +0.000 C 
ATOM     25  O   UNL     1       5.587   3.555  16.587  0.00  0.00    +0.000 OA
ENDBRANCH  18  25
BRANCH  22  26
ATOM     26  O   UNL     1       1.093   3.279  18.543  0.00  0.00    +0.000 OA
ATOM     27  C   UNL     1       0.894   3.257  19.950  0.00  0.00    +0.000 C 
ENDBRANCH  22  26
BRANCH  23  28
ATOM     28  O   UNL     1       3.373   1.915  17.555  0.00  0.00    +0.000 OA
ATOM     29  C   UNL     1       3.857   1.160  18.653  0.00  0.00    +0.000 C 
ENDBRANCH  23  28
ENDBRANCH   1  20
TORSDOF 5
ENDMDL
MODEL 6
REMARK VINA RESULT:      -7.1      4.480      9.447
REMARK  Name = 
REMARK  8 active torsions:
REMARK  status: ('A' for Active; 'I' for Inactive)
REMARK    1  A    between atoms: C_1  and  O_2
REMARK    2  A    between atoms: O_2  and  C_3
REMARK    3  A    between atoms: C_5  and  N_6
REMARK    4  A    between atoms: C_10  and  C_11
REMARK    5  A    between atoms: C_22  and  O_23
REMARK    6  A    between atoms: O_23  and  C_24
REMARK    7  A    between atoms: C_25  and  O_26
REMARK    8  A    between atoms: O_26  and  C_27
REMARK                            x       y       z     vdW  Elec       q    Type
REMARK                         _______ _______ _______ _____ _____    ______ ____
ROOT
ATOM      1  N   UNL     1       0.464  10.748  18.183  0.00  0.00    +0.000 N 
ATOM      2  C   UNL     1       1.038   9.697  18.817  0.00  0.00    +0.000 A 
ATOM      3  N   UNL     1       1.002   9.356  20.096  0.00  0.00    +0.000 NA
ATOM      4  N   UNL     1       1.629   8.145  20.390  0.00  0.00    +0.000 NA
ATOM      5  C   UNL     1       2.167   7.603  19.323  0.00  0.00    +0.000 A 
ATOM      6  S   UNL     1       1.994   8.596  17.904  0.00  0.00    +0.000 S 
ATOM      7  H   UNL     1       0.559  10.772  17.179  0.00  0.00    +0.000 HD
ENDROOT
BRANCH   5   8
ATOM      8  C   UNL     1       2.716   6.200  19.207  0.00  0.00    +0.000 A 
ATOM      9  C   UNL     1       3.957   5.988  18.629  0.00  0.00    +0.000 A 
ATOM     10  N   UNL     1       3.889   4.744  18.082  0.00  0.00    +0.000 N 
ATOM     11  C   UNL     1       3.023   3.989  18.828  0.00  0.00    +0.000 A 
ATOM     12  C   UNL     1       2.892   2.598  18.871  0.00  0.00    +0.000 A 
ATOM     13  C   UNL     1       1.932   2.074  19.728  0.00  0.00    +0.000 A 
ATOM     14  C   UNL     1       1.079   2.927  20.439  0.00  0.00    +0.000 A 
ATOM     15  C   UNL     1       1.182   4.329  20.326  0.00  0.00    +0.000 A 
ATOM     16  C   UNL     1       2.218   4.892  19.543  0.00  0.00    +0.000 A 
ATOM     17  H   UNL     1       4.446   4.408  17.310  0.00  0.00    +0.000 HD
ENDBRANCH   5   8
BRANCH   1  20
ATOM     18  C   UNL     1       1.007  14.388  18.979  0.00  0.00    +0.000 A 
ATOM     19  C   UNL     1       1.249  13.055  18.579  0.00  0.00    +0.000 A 
ATOM     20  C   UNL     1       0.285  12.058  18.717  0.00  0.00    +0.000 A 
ATOM     21  C   UNL     1      -0.867  12.378  19.426  0.00  0.00    +0.000 A 
ATOM     22  C   UNL     1      -1.105  13.684  19.902  0.00  0.00    +0.000 A 
ATOM     23  C   UNL     1      -0.171  14.713  19.678  0.00  0.00    +0.000 A 
BRANCH  18  25
ATOM     24  C   UNL     1       3.297  14.997  18.893  0.00  0.00    +0.000 C 
ATOM     25  O   UNL     1       1.931  15.363  18.674  0.00  0.00    +0.000 OA
ENDBRANCH  18  25
BRANCH  22  26
ATOM     26  O   UNL     1      -2.291  13.779  20.614  0.00  0.00    +0.000 OA
ATOM     27  C   UNL     1      -3.297  12.814  20.336  0.00  0.00    +0.000 C 
ENDBRANCH  22  26
BRANCH  23  28
ATOM     28  O   UNL     1      -0.511  15.940  20.168  0.00  0.00    +0.000 OA
ATOM     29  C   UNL     1      -1.169  16.917  19.380  0.00  0.00    +0.000 C 
ENDBRANCH  23  28
ENDBRANCH   1  20
TORSDOF 5
ENDMDL
MODEL 7
REMARK VINA RESULT:      -7.1      1.941      2.755
REMARK  Name = 
REMARK  8 active torsions:
REMARK  status: ('A' for Active; 'I' for Inactive)
REMARK    1  A    between atoms: C_1  and  O_2
REMARK    2  A    between atoms: O_2  and  C_3
REMARK    3  A    between atoms: C_5  and  N_6
REMARK    4  A    between atoms: C_10  and  C_11
REMARK    5  A    between atoms: C_22  and  O_23
REMARK    6  A    between atoms: O_23  and  C_24
REMARK    7  A    between atoms: C_25  and  O_26
REMARK    8  A    between atoms: O_26  and  C_27
REMARK                            x       y       z     vdW  Elec       q    Type
REMARK                         _______ _______ _______ _____ _____    ______ ____
ROOT
ATOM      1  N   UNL     1       2.438   6.651  19.112  0.00  0.00    +0.000 N 
ATOM      2  C   UNL     1       1.910   7.892  18.983  0.00  0.00    +0.000 A 
ATOM      3  N   UNL     1       1.635   8.587  17.890  0.00  0.00    +0.000 NA
ATOM      4  N   UNL     1       0.998   9.806  18.123  0.00  0.00    +0.000 NA
ATOM      5  C   UNL     1       0.834  10.031  19.406  0.00  0.00    +0.000 A 
ATOM      6  S   UNL     1       1.524   8.784  20.403  0.00  0.00    +0.000 S 
ATOM      7  H   UNL     1       2.491   6.281  20.050  0.00  0.00    +0.000 HD
ENDROOT
BRANCH   5   8
ATOM      8  C   UNL     1      -0.014  11.118  20.026  0.00  0.00    +0.000 A 
ATOM      9  C   UNL     1       0.504  11.910  21.036  0.00  0.00    +0.000 A 
ATOM     10  N   UNL     1      -0.567  12.273  21.793  0.00  0.00    +0.000 N 
ATOM     11  C   UNL     1      -1.669  12.331  20.982  0.00  0.00    +0.000 A 
ATOM     12  C   UNL     1      -2.891  12.971  21.215  0.00  0.00    +0.000 A 
ATOM     13  C   UNL     1      -3.855  12.887  20.218  0.00  0.00    +0.000 A 
ATOM     14  C   UNL     1      -3.625  12.108  19.078  0.00  0.00    +0.000 A 
ATOM     15  C   UNL     1      -2.412  11.412  18.896  0.00  0.00    +0.000 A 
ATOM     16  C   UNL     1      -1.371  11.564  19.844  0.00  0.00    +0.000 A 
ATOM     17  H   UNL     1      -0.538  12.538  22.767  0.00  0.00    +0.000 HD
ENDBRANCH   5   8
BRANCH   1  20
ATOM     18  C   UNL     1       5.494   6.218  16.955  0.00  0.00    +0.000 A 
ATOM     19  C   UNL     1       4.433   6.819  17.666  0.00  0.00    +0.000 A 
ATOM     20  C   UNL     1       3.429   6.065  18.269  0.00  0.00    +0.000 A 
ATOM     21  C   UNL     1       3.405   4.702  18.000  0.00  0.00    +0.000 A 
ATOM     22  C   UNL     1       4.412   4.083  17.231  0.00  0.00    +0.000 A 
ATOM     23  C   UNL     1       5.478   4.833  16.702  0.00  0.00    +0.000 A 
BRANCH  18  25
ATOM     24  C   UNL     1       7.514   7.325  17.515  0.00  0.00    +0.000 C 
ATOM     25  O   UNL     1       6.541   6.997  16.517  0.00  0.00    +0.000 OA
ENDBRANCH  18  25
BRANCH  22  26
ATOM     26  O   UNL     1       4.180   2.727  17.049  0.00  0.00    +0.000 OA
ATOM     27  C   UNL     1       3.554   2.026  18.116  0.00  0.00    +0.000 C 
ENDBRANCH  22  26
BRANCH  23  28
ATOM     28  O   UNL     1       6.404   4.128  15.989  0.00  0.00    +0.000 OA
ATOM     29  C   UNL     1       6.406   4.092  14.572  0.00  0.00    +0.000 C 
ENDBRANCH  23  28
ENDBRANCH   1  20
TORSDOF 5
ENDMDL
MODEL 8
REMARK VINA RESULT:      -7.1      4.284      9.733
REMARK  Name = 
REMARK  8 active torsions:
REMARK  status: ('A' for Active; 'I' for Inactive)
REMARK    1  A    between atoms: C_1  and  O_2
REMARK    2  A    between atoms: O_2  and  C_3
REMARK    3  A    between atoms: C_5  and  N_6
REMARK    4  A    between atoms: C_10  and  C_11
REMARK    5  A    between atoms: C_22  and  O_23
REMARK    6  A    between atoms: O_23  and  C_24
REMARK    7  A    between atoms: C_25  and  O_26
REMARK    8  A    between atoms: O_26  and  C_27
REMARK                            x       y       z     vdW  Elec       q    Type
REMARK                         _______ _______ _______ _____ _____    ______ ____
ROOT
ATOM      1  N   UNL     1       0.454  10.734  19.263  0.00  0.00    +0.000 N 
ATOM      2  C   UNL     1       1.075   9.557  19.521  0.00  0.00    +0.000 A 
ATOM      3  N   UNL     1       1.137   8.860  20.645  0.00  0.00    +0.000 NA
ATOM      4  N   UNL     1       1.785   7.630  20.529  0.00  0.00    +0.000 NA
ATOM      5  C   UNL     1       2.241   7.434  19.314  0.00  0.00    +0.000 A 
ATOM      6  S   UNL     1       1.960   8.790  18.261  0.00  0.00    +0.000 S 
ATOM      7  H   UNL     1       0.472  11.050  18.305  0.00  0.00    +0.000 HD
ENDROOT
BRANCH   5   8
ATOM      8  C   UNL     1       2.781   6.137  18.756  0.00  0.00    +0.000 A 
ATOM      9  C   UNL     1       3.975   6.129  18.055  0.00  0.00    +0.000 A 
ATOM     10  N   UNL     1       3.868   5.096  17.177  0.00  0.00    +0.000 N 
ATOM     11  C   UNL     1       3.060   4.138  17.730  0.00  0.00    +0.000 A 
ATOM     12  C   UNL     1       2.934   2.792  17.376  0.00  0.00    +0.000 A 
ATOM     13  C   UNL     1       2.040   2.021  18.109  0.00  0.00    +0.000 A 
ATOM     14  C   UNL     1       1.242   2.612  19.095  0.00  0.00    +0.000 A 
ATOM     15  C   UNL     1       1.335   3.988  19.389  0.00  0.00    +0.000 A 
ATOM     16  C   UNL     1       2.310   4.777  18.732  0.00  0.00    +0.000 A 
ATOM     17  H   UNL     1       4.367   5.011  16.303  0.00  0.00    +0.000 HD
ENDBRANCH   5   8
BRANCH   1  20
ATOM     18  C   UNL     1      -0.543  12.802  22.247  0.00  0.00    +0.000 A 
ATOM     19  C   UNL     1      -0.521  11.775  21.279  0.00  0.00    +0.000 A 
ATOM     20  C   UNL     1       0.315  11.829  20.166  0.00  0.00    +0.000 A 
ATOM     21  C   UNL     1       1.005  13.015  19.943  0.00  0.00    +0.000 A 
ATOM     22  C   UNL     1       0.946  14.088  20.856  0.00  0.00    +0.000 A 
ATOM     23  C   UNL     1       0.174  13.994  22.029  0.00  0.00    +0.000 A 
BRANCH  18  25
ATOM     24  C   UNL     1      -2.639  12.264  23.216  0.00  0.00    +0.000 C 
ATOM     25  O   UNL     1      -1.267  12.624  23.405  0.00  0.00    +0.000 OA
ENDBRANCH  18  25
BRANCH  22  26
ATOM     26  O   UNL     1       1.673  15.188  20.426  0.00  0.00    +0.000 OA
ATOM     27  C   UNL     1       1.682  15.458  19.031  0.00  0.00    +0.000 C 
ENDBRANCH  22  26
BRANCH  23  28
ATOM     28  O   UNL     1       0.203  15.085  22.848  0.00  0.00    +0.000 OA
ATOM     29  C   UNL     1      -0.811  16.075  22.832  0.00  0.00    +0.000 C 
ENDBRANCH  23  28
ENDBRANCH   1  20
TORSDOF 5
ENDMDL
MODEL 9
REMARK VINA RESULT:      -7.0      1.356      2.447
REMARK  Name = 
REMARK  8 active torsions:
REMARK  status: ('A' for Active; 'I' for Inactive)
REMARK    1  A    between atoms: C_1  and  O_2
REMARK    2  A    between atoms: O_2  and  C_3
REMARK    3  A    between atoms: C_5  and  N_6
REMARK    4  A    between atoms: C_10  and  C_11
REMARK    5  A    between atoms: C_22  and  O_23
REMARK    6  A    between atoms: O_23  and  C_24
REMARK    7  A    between atoms: C_25  and  O_26
REMARK    8  A    between atoms: O_26  and  C_27
REMARK                            x       y       z     vdW  Elec       q    Type
REMARK                         _______ _______ _______ _____ _____    ______ ____
ROOT
ATOM      1  N   UNL     1       2.351   8.300  18.373  0.00  0.00    +0.000 N 
ATOM      2  C   UNL     1       1.435   8.918  19.157  0.00  0.00    +0.000 A 
ATOM      3  N   UNL     1       1.234   8.822  20.462  0.00  0.00    +0.000 NA
ATOM      4  N   UNL     1       0.258   9.684  20.963  0.00  0.00    +0.000 NA
ATOM      5  C   UNL     1      -0.295  10.398  20.011  0.00  0.00    +0.000 A 
ATOM      6  S   UNL     1       0.307   9.994  18.429  0.00  0.00    +0.000 S 
ATOM      7  H   UNL     1       2.376   8.582  17.405  0.00  0.00    +0.000 HD
ENDROOT
BRANCH   5   8
ATOM      8  C   UNL     1      -1.208  11.588  20.195  0.00  0.00    +0.000 A 
ATOM      9  C   UNL     1      -1.587  12.347  19.101  0.00  0.00    +0.000 A 
ATOM     10  N   UNL     1      -1.796  13.600  19.588  0.00  0.00    +0.000 N 
ATOM     11  C   UNL     1      -2.213  13.495  20.889  0.00  0.00    +0.000 A 
ATOM     12  C   UNL     1      -2.863  14.450  21.676  0.00  0.00    +0.000 A 
ATOM     13  C   UNL     1      -3.191  14.087  22.977  0.00  0.00    +0.000 A 
ATOM     14  C   UNL     1      -2.793  12.845  23.485  0.00  0.00    +0.000 A 
ATOM     15  C   UNL     1      -2.075  11.923  22.694  0.00  0.00    +0.000 A 
ATOM     16  C   UNL     1      -1.819  12.222  21.335  0.00  0.00    +0.000 A 
ATOM     17  H   UNL     1      -1.736  14.457  19.057  0.00  0.00    +0.000 HD
ENDBRANCH   5   8
BRANCH   1  20
ATOM     18  C   UNL     1       2.916   4.844  19.757  0.00  0.00    +0.000 A 
ATOM     19  C   UNL     1       2.555   6.205  19.666  0.00  0.00    +0.000 A 
ATOM     20  C   UNL     1       2.840   6.970  18.537  0.00  0.00    +0.000 A 
ATOM     21  C   UNL     1       3.652   6.395  17.565  0.00  0.00    +0.000 A 
ATOM     22  C   UNL     1       4.089   5.058  17.663  0.00  0.00    +0.000 A 
ATOM     23  C   UNL     1       3.720   4.258  18.761  0.00  0.00    +0.000 A 
BRANCH  18  25
ATOM     24  C   UNL     1       1.149   3.563  20.685  0.00  0.00    +0.000 C 
ATOM     25  O   UNL     1       2.470   4.096  20.824  0.00  0.00    +0.000 OA
ENDBRANCH  18  25
BRANCH  22  26
ATOM     26  O   UNL     1       4.918   4.695  16.613  0.00  0.00    +0.000 OA
ATOM     27  C   UNL     1       5.395   5.736  15.771  0.00  0.00    +0.000 C 
ENDBRANCH  22  26
BRANCH  23  28
ATOM     28  O   UNL     1       4.186   2.976  18.744  0.00  0.00    +0.000 OA
ATOM     29  C   UNL     1       3.443   1.904  18.188  0.00  0.00    +0.000 C 
ENDBRANCH  23  28
ENDBRANCH   1  20
TORSDOF 5
ENDMDL
