MODEL 1
REMARK VINA RESULT:      -7.4      0.000      0.000
REMARK  Name = 
REMARK  14 active torsions:
REMARK  status: ('A' for Active; 'I' for Inactive)
REMARK    1  A    between atoms: C_1  and  O_2
REMARK    2  A    between atoms: O_2  and  C_3
REMARK    3  A    between atoms: C_9  and  C_10
REMARK    4  A    between atoms: C_10  and  C_11
REMARK    5  A    between atoms: C_10  and  C_12
REMARK    6  A    between atoms: C_10  and  C_13
REMARK    7  A    between atoms: C_13  and  C_14
REMARK    8  A    between atoms: C_14  and  O_15
REMARK    9  A    between atoms: C_14  and  C_16
REMARK   10  A    between atoms: C_14  and  C_26
REMARK   11  A    between atoms: C_16  and  C_17
REMARK   12  A    between atoms: C_26  and  C_27
REMARK   13  A    between atoms: C_26  and  C_28
REMARK   14  A    between atoms: C_26  and  C_29
REMARK                            x       y       z     vdW  Elec       q    Type
REMARK                         _______ _______ _______ _____ _____    ______ ____
ROOT
ATOM      1  C   UNL     1       3.776   4.276  17.803  0.00  0.00    +0.000 C 
ENDROOT
BRANCH   1   2
ATOM      2  C   UNL     1       3.599   2.980  18.772  0.00  0.00    +0.000 C 
ATOM      3  C   UNL     1       2.243   3.000  19.532  0.00  0.00    +0.000 C 
ATOM      4  C   UNL     1       3.594   1.667  17.951  0.00  0.00    +0.000 C 
ATOM      5  C   UNL     1       4.668   2.846  19.879  0.00  0.00    +0.000 C 
ENDBRANCH   1   2
BRANCH   1   6
ATOM      6  O   UNL     1       4.673   5.154  18.520  0.00  0.00    +0.000 OA
ATOM      7  H   UNL     1       5.577   4.996  18.203  0.00  0.00    +0.000 HD
ENDBRANCH   1   6
BRANCH   1   8
ATOM      8  C   UNL     1       4.479   3.859  16.458  0.00  0.00    +0.000 C 
BRANCH   8   9
ATOM      9  C   UNL     1       5.645   4.637  15.712  0.00  0.00    +0.000 C 
ATOM     10  C   UNL     1       6.955   4.502  16.520  0.00  0.00    +0.000 C 
ATOM     11  C   UNL     1       5.241   6.148  15.813  0.00  0.00    +0.000 C 
BRANCH   9  18
ATOM     12  C   UNL     1       7.097   4.820  13.533  0.00  0.00    +0.000 A 
ATOM     13  C   UNL     1       7.351   4.404  12.209  0.00  0.00    +0.000 A 
ATOM     14  C   UNL     1       6.458   3.581  11.525  0.00  0.00    +0.000 A 
ATOM     15  C   UNL     1       5.300   3.188  12.153  0.00  0.00    +0.000 A 
ATOM     16  F   UNL     1       4.451   2.358  11.533  0.00  0.00    +0.000 F 
ATOM     17  C   UNL     1       5.021   3.603  13.451  0.00  0.00    +0.000 A 
ATOM     18  C   UNL     1       5.912   4.422  14.194  0.00  0.00    +0.000 A 
BRANCH  12  20
ATOM     19  C   UNL     1       9.158   6.025  13.564  0.00  0.00    +0.000 C 
ATOM     20  O   UNL     1       8.014   5.535  14.257  0.00  0.00    +0.000 OA
ENDBRANCH  12  20
ENDBRANCH   9  18
ENDBRANCH   8   9
ENDBRANCH   1   8
BRANCH   1  21
ATOM     21  C   UNL     1       2.446   5.106  17.621  0.00  0.00    +0.000 C 
BRANCH  21  22
ATOM     22  C   UNL     1       2.379   6.453  18.276  0.00  0.00    +0.000 A 
ATOM     23  C   UNL     1       2.346   7.738  17.770  0.00  0.00    +0.000 A 
ATOM     24  C   UNL     1       1.874   8.599  18.787  0.00  0.00    +0.000 A 
ATOM     25  C   UNL     1       1.389   9.907  18.786  0.00  0.00    +0.000 A 
ATOM     26  C   UNL     1       0.854  10.356  19.982  0.00  0.00    +0.000 A 
ATOM     27  N   UNL     1       0.837   9.649  21.134  0.00  0.00    +0.000 NA
ATOM     28  C   UNL     1       1.350   8.395  21.144  0.00  0.00    +0.000 A 
ATOM     29  C   UNL     1       1.842   7.858  19.962  0.00  0.00    +0.000 A 
ATOM     30  N   UNL     1       2.290   6.591  19.652  0.00  0.00    +0.000 N 
ATOM     31  H   UNL     1       2.334   5.833  20.314  0.00  0.00    +0.000 HD
ENDBRANCH  21  22
ENDBRANCH   1  21
TORSDOF 8
ENDMDL
MODEL 2
REMARK VINA RESULT:      -7.4      2.949      5.714
REMARK  Name = 
REMARK  14 active torsions:
REMARK  status: ('A' for Active; 'I' for Inactive)
REMARK    1  A    between atoms: C_1  and  O_2
REMARK    2  A    between atoms: O_2  and  C_3
REMARK    3  A    between atoms: C_9  and  C_10
REMARK    4  A    between atoms: C_10  and  C_11
REMARK    5  A    between atoms: C_10  and  C_12
REMARK    6  A    between atoms: C_10  and  C_13
REMARK    7  A    between atoms: C_13  and  C_14
REMARK    8  A    between atoms: C_14  and  O_15
REMARK    9  A    between atoms: C_14  and  C_16
REMARK   10  A    between atoms: C_14  and  C_26
REMARK   11  A    between atoms: C_16  and  C_17
REMARK   12  A    between atoms: C_26  and  C_27
REMARK   13  A    between atoms: C_26  and  C_28
REMARK   14  A    between atoms: C_26  and  C_29
REMARK                            x       y       z     vdW  Elec       q    Type
REMARK                         _______ _______ _______ _____ _____    ______ ____
ROOT
ATOM      1  C   UNL     1       5.168   5.149  17.664  0.00  0.00    +0.000 C 
ENDROOT
BRANCH   1   2
ATOM      2  C   UNL     1       6.682   5.611  17.285  0.00  0.00    +0.000 C 
ATOM      3  C   UNL     1       7.743   4.951  18.210  0.00  0.00    +0.000 C 
ATOM      4  C   UNL     1       7.056   5.171  15.848  0.00  0.00    +0.000 C 
ATOM      5  C   UNL     1       6.947   7.128  17.402  0.00  0.00    +0.000 C 
ENDBRANCH   1   2
BRANCH   1   6
ATOM      6  O   UNL     1       4.328   5.786  16.674  0.00  0.00    +0.000 OA
ATOM      7  H   UNL     1       3.630   6.280  17.134  0.00  0.00    +0.000 HD
ENDBRANCH   1   6
BRANCH   1   8
ATOM      8  C   UNL     1       5.015   3.592  17.496  0.00  0.00    +0.000 C 
BRANCH   8   9
ATOM      9  C   UNL     1       3.716   2.725  17.786  0.00  0.00    +0.000 C 
ATOM     10  C   UNL     1       3.966   1.263  17.354  0.00  0.00    +0.000 C 
ATOM     11  C   UNL     1       2.639   3.281  16.791  0.00  0.00    +0.000 C 
BRANCH   9  18
ATOM     12  C   UNL     1       3.643   2.470  20.397  0.00  0.00    +0.000 A 
ATOM     13  C   UNL     1       2.997   2.740  21.622  0.00  0.00    +0.000 A 
ATOM     14  C   UNL     1       1.734   3.327  21.661  0.00  0.00    +0.000 A 
ATOM     15  C   UNL     1       1.103   3.627  20.477  0.00  0.00    +0.000 A 
ATOM     16  F   UNL     1      -0.091   4.235  20.489  0.00  0.00    +0.000 F 
ATOM     17  C   UNL     1       1.713   3.350  19.257  0.00  0.00    +0.000 A 
ATOM     18  C   UNL     1       3.008   2.775  19.171  0.00  0.00    +0.000 A 
BRANCH  12  20
ATOM     19  C   UNL     1       5.290   0.978  21.269  0.00  0.00    +0.000 C 
ATOM     20  O   UNL     1       4.927   1.998  20.344  0.00  0.00    +0.000 OA
ENDBRANCH  12  20
ENDBRANCH   9  18
ENDBRANCH   8   9
ENDBRANCH   1   8
BRANCH   1  21
ATOM     21  C   UNL     1       4.671   5.714  19.051  0.00  0.00    +0.000 C 
BRANCH  21  22
ATOM     22  C   UNL     1       3.460   6.599  19.041  0.00  0.00    +0.000 A 
ATOM     23  C   UNL     1       2.430   6.782  19.943  0.00  0.00    +0.000 A 
ATOM     24  C   UNL     1       1.792   8.007  19.639  0.00  0.00    +0.000 A 
ATOM     25  C   UNL     1       0.901   8.823  20.336  0.00  0.00    +0.000 A 
ATOM     26  C   UNL     1       0.627  10.052  19.761  0.00  0.00    +0.000 A 
ATOM     27  N   UNL     1       1.104  10.469  18.566  0.00  0.00    +0.000 NA
ATOM     28  C   UNL     1       1.933   9.656  17.869  0.00  0.00    +0.000 A 
ATOM     29  C   UNL     1       2.302   8.436  18.419  0.00  0.00    +0.000 A 
ATOM     30  N   UNL     1       3.214   7.487  18.007  0.00  0.00    +0.000 N 
ATOM     31  H   UNL     1       3.766   7.565  17.167  0.00  0.00    +0.000 HD
ENDBRANCH  21  22
ENDBRANCH   1  21
TORSDOF 8
ENDMDL
MODEL 3
REMARK VINA RESULT:      -7.4      1.010      1.629
REMARK  Name = 
REMARK  14 active torsions:
REMARK  status: ('A' for Active; 'I' for Inactive)
REMARK    1  A    between atoms: C_1  and  O_2
REMARK    2  A    between atoms: O_2  and  C_3
REMARK    3  A    between atoms: C_9  and  C_10
REMARK    4  A    between atoms: C_10  and  C_11
REMARK    5  A    between atoms: C_10  and  C_12
REMARK    6  A    between atoms: C_10  and  C_13
REMARK    7  A    between atoms: C_13  and  C_14
REMARK    8  A    between atoms: C_14  and  O_15
REMARK    9  A    between atoms: C_14  and  C_16
REMARK   10  A    between atoms: C_14  and  C_26
REMARK   11  A    between atoms: C_16  and  C_17
REMARK   12  A    between atoms: C_26  and  C_27
REMARK   13  A    between atoms: C_26  and  C_28
REMARK   14  A    between atoms: C_26  and  C_29
REMARK                            x       y       z     vdW  Elec       q    Type
REMARK                         _______ _______ _______ _____ _____    ______ ____
ROOT
ATOM      1  C   UNL     1       4.397   4.133  18.125  0.00  0.00    +0.000 C 
ENDROOT
BRANCH   1   2
ATOM      2  C   UNL     1       3.048   3.308  18.508  0.00  0.00    +0.000 C 
ATOM      3  C   UNL     1       3.105   1.835  18.016  0.00  0.00    +0.000 C 
ATOM      4  C   UNL     1       2.862   3.225  20.043  0.00  0.00    +0.000 C 
ATOM      5  C   UNL     1       1.745   3.875  17.901  0.00  0.00    +0.000 C 
ENDBRANCH   1   2
BRANCH   1   6
ATOM      6  O   UNL     1       5.485   3.287  18.562  0.00  0.00    +0.000 OA
ATOM      7  H   UNL     1       6.316   3.653  18.220  0.00  0.00    +0.000 HD
ENDBRANCH   1   6
BRANCH   1   8
ATOM      8  C   UNL     1       4.511   4.300  16.564  0.00  0.00    +0.000 C 
BRANCH   8   9
ATOM      9  C   UNL     1       5.746   4.885  15.755  0.00  0.00    +0.000 C 
ATOM     10  C   UNL     1       7.050   4.616  16.540  0.00  0.00    +0.000 C 
ATOM     11  C   UNL     1       5.543   6.439  15.793  0.00  0.00    +0.000 C 
BRANCH   9  18
ATOM     12  C   UNL     1       7.124   4.848  13.522  0.00  0.00    +0.000 A 
ATOM     13  C   UNL     1       7.299   4.343  12.216  0.00  0.00    +0.000 A 
ATOM     14  C   UNL     1       6.327   3.548  11.610  0.00  0.00    +0.000 A 
ATOM     15  C   UNL     1       5.170   3.271  12.299  0.00  0.00    +0.000 A 
ATOM     16  F   UNL     1       4.243   2.469  11.757  0.00  0.00    +0.000 F 
ATOM     17  C   UNL     1       4.968   3.774  13.580  0.00  0.00    +0.000 A 
ATOM     18  C   UNL     1       5.940   4.569  14.244  0.00  0.00    +0.000 A 
BRANCH  12  20
ATOM     19  C   UNL     1       9.219   5.983  13.395  0.00  0.00    +0.000 C 
ATOM     20  O   UNL     1       8.113   5.535  14.172  0.00  0.00    +0.000 OA
ENDBRANCH  12  20
ENDBRANCH   9  18
ENDBRANCH   8   9
ENDBRANCH   1   8
BRANCH   1  21
ATOM     21  C   UNL     1       4.564   5.472  18.944  0.00  0.00    +0.000 C 
BRANCH  21  22
ATOM     22  C   UNL     1       3.383   6.395  19.004  0.00  0.00    +0.000 A 
ATOM     23  C   UNL     1       2.454   6.659  19.992  0.00  0.00    +0.000 A 
ATOM     24  C   UNL     1       1.823   7.887  19.684  0.00  0.00    +0.000 A 
ATOM     25  C   UNL     1       1.029   8.768  20.420  0.00  0.00    +0.000 A 
ATOM     26  C   UNL     1       0.733   9.972  19.806  0.00  0.00    +0.000 A 
ATOM     27  N   UNL     1       1.098  10.310  18.549  0.00  0.00    +0.000 NA
ATOM     28  C   UNL     1       1.829   9.434  17.819  0.00  0.00    +0.000 A 
ATOM     29  C   UNL     1       2.218   8.233  18.398  0.00  0.00    +0.000 A 
ATOM     30  N   UNL     1       3.058   7.234  17.952  0.00  0.00    +0.000 N 
ATOM     31  H   UNL     1       3.524   7.249  17.058  0.00  0.00    +0.000 HD
ENDBRANCH  21  22
ENDBRANCH   1  21
TORSDOF 8
ENDMDL
MODEL 4
REMARK VINA RESULT:      -7.3      2.124      3.368
REMARK  Name = 
REMARK  14 active torsions:
REMARK  status: ('A' for Active; 'I' for Inactive)
REMARK    1  A    between atoms: C_1  and  O_2
REMARK    2  A    between atoms: O_2  and  C_3
REMARK    3  A    between atoms: C_9  and  C_10
REMARK    4  A    between atoms: C_10  and  C_11
REMARK    5  A    between atoms: C_10  and  C_12
REMARK    6  A    between atoms: C_10  and  C_13
REMARK    7  A    between atoms: C_13  and  C_14
REMARK    8  A    between atoms: C_14  and  O_15
REMARK    9  A    between atoms: C_14  and  C_16
REMARK   10  A    between atoms: C_14  and  C_26
REMARK   11  A    between atoms: C_16  and  C_17
REMARK   12  A    between atoms: C_26  and  C_27
REMARK   13  A    between atoms: C_26  and  C_28
REMARK   14  A    between atoms: C_26  and  C_29
REMARK                            x       y       z     vdW  Elec       q    Type
REMARK                         _______ _______ _______ _____ _____    ______ ____
ROOT
ATOM      1  C   UNL     1       2.440   4.918  20.368  0.00  0.00    +0.000 C 
ENDROOT
BRANCH   1   2
ATOM      2  C   UNL     1       2.131   3.327  20.219  0.00  0.00    +0.000 C 
ATOM      3  C   UNL     1       3.378   2.533  19.740  0.00  0.00    +0.000 C 
ATOM      4  C   UNL     1       1.744   2.705  21.584  0.00  0.00    +0.000 C 
ATOM      5  C   UNL     1       1.023   2.973  19.203  0.00  0.00    +0.000 C 
ENDBRANCH   1   2
BRANCH   1   6
ATOM      6  O   UNL     1       2.688   5.116  21.779  0.00  0.00    +0.000 OA
ATOM      7  H   UNL     1       2.772   4.247  22.202  0.00  0.00    +0.000 HD
ENDBRANCH   1   6
BRANCH   1   8
ATOM      8  C   UNL     1       3.756   5.293  19.590  0.00  0.00    +0.000 C 
BRANCH   8   9
ATOM      9  C   UNL     1       3.874   5.712  18.063  0.00  0.00    +0.000 C 
ATOM     10  C   UNL     1       3.651   7.235  17.927  0.00  0.00    +0.000 C 
ATOM     11  C   UNL     1       2.637   5.040  17.372  0.00  0.00    +0.000 C 
BRANCH   9  18
ATOM     12  C   UNL     1       6.373   4.994  17.708  0.00  0.00    +0.000 A 
ATOM     13  C   UNL     1       7.354   4.384  16.898  0.00  0.00    +0.000 A 
ATOM     14  C   UNL     1       7.077   4.006  15.585  0.00  0.00    +0.000 A 
ATOM     15  C   UNL     1       5.826   4.255  15.071  0.00  0.00    +0.000 A 
ATOM     16  F   UNL     1       5.521   3.858  13.828  0.00  0.00    +0.000 F 
ATOM     17  C   UNL     1       4.850   4.874  15.846  0.00  0.00    +0.000 A 
ATOM     18  C   UNL     1       5.081   5.254  17.195  0.00  0.00    +0.000 A 
BRANCH  12  20
ATOM     19  C   UNL     1       7.833   5.881  19.375  0.00  0.00    +0.000 C 
ATOM     20  O   UNL     1       6.595   5.268  19.031  0.00  0.00    +0.000 OA
ENDBRANCH  12  20
ENDBRANCH   9  18
ENDBRANCH   8   9
ENDBRANCH   1   8
BRANCH   1  21
ATOM     21  C   UNL     1       1.196   5.830  20.037  0.00  0.00    +0.000 C 
BRANCH  21  22
ATOM     22  C   UNL     1       1.224   7.244  20.538  0.00  0.00    +0.000 A 
ATOM     23  C   UNL     1       1.458   8.452  19.912  0.00  0.00    +0.000 A 
ATOM     24  C   UNL     1       0.963   9.482  20.745  0.00  0.00    +0.000 A 
ATOM     25  C   UNL     1       0.680  10.832  20.536  0.00  0.00    +0.000 A 
ATOM     26  C   UNL     1       0.037  11.484  21.573  0.00  0.00    +0.000 A 
ATOM     27  N   UNL     1      -0.263  10.927  22.769  0.00  0.00    +0.000 NA
ATOM     28  C   UNL     1       0.055   9.629  22.987  0.00  0.00    +0.000 A 
ATOM     29  C   UNL     1       0.642   8.896  21.963  0.00  0.00    +0.000 A 
ATOM     30  N   UNL     1       0.944   7.555  21.858  0.00  0.00    +0.000 N 
ATOM     31  H   UNL     1       0.773   6.881  22.588  0.00  0.00    +0.000 HD
ENDBRANCH  21  22
ENDBRANCH   1  21
TORSDOF 8
ENDMDL
MODEL 5
REMARK VINA RESULT:      -7.2      2.910      4.140
REMARK  Name = 
REMARK  14 active torsions:
REMARK  status: ('A' for Active; 'I' for Inactive)
REMARK    1  A    between atoms: C_1  and  O_2
REMARK    2  A    between atoms: O_2  and  C_3
REMARK    3  A    between atoms: C_9  and  C_10
REMARK    4  A    between atoms: C_10  and  C_11
REMARK    5  A    between atoms: C_10  and  C_12
REMARK    6  A    between atoms: C_10  and  C_13
REMARK    7  A    between atoms: C_13  and  C_14
REMARK    8  A    between atoms: C_14  and  O_15
REMARK    9  A    between atoms: C_14  and  C_16
REMARK   10  A    between atoms: C_14  and  C_26
REMARK   11  A    between atoms: C_16  and  C_17
REMARK   12  A    between atoms: C_26  and  C_27
REMARK   13  A    between atoms: C_26  and  C_28
REMARK   14  A    between atoms: C_26  and  C_29
REMARK                            x       y       z     vdW  Elec       q    Type
REMARK                         _______ _______ _______ _____ _____    ______ ____
ROOT
ATOM      1  C   UNL     1       3.914   4.742  18.700  0.00  0.00    +0.000 C 
ENDROOT
BRANCH   1   2
ATOM      2  C   UNL     1       3.348   3.400  19.424  0.00  0.00    +0.000 C 
ATOM      3  C   UNL     1       2.535   3.727  20.709  0.00  0.00    +0.000 C 
ATOM      4  C   UNL     1       2.367   2.638  18.498  0.00  0.00    +0.000 C 
ATOM      5  C   UNL     1       4.434   2.404  19.888  0.00  0.00    +0.000 C 
ENDBRANCH   1   2
BRANCH   1   6
ATOM      6  O   UNL     1       4.351   5.592  19.785  0.00  0.00    +0.000 OA
ATOM      7  H   UNL     1       4.397   6.506  19.462  0.00  0.00    +0.000 HD
ENDBRANCH   1   6
BRANCH   1   8
ATOM      8  C   UNL     1       5.172   4.398  17.820  0.00  0.00    +0.000 C 
BRANCH   8   9
ATOM      9  C   UNL     1       6.066   5.418  16.994  0.00  0.00    +0.000 C 
ATOM     10  C   UNL     1       5.249   5.976  15.807  0.00  0.00    +0.000 C 
ATOM     11  C   UNL     1       7.189   4.531  16.353  0.00  0.00    +0.000 C 
BRANCH   9  18
ATOM     12  C   UNL     1       7.772   6.351  18.756  0.00  0.00    +0.000 A 
ATOM     13  C   UNL     1       8.595   7.407  19.204  0.00  0.00    +0.000 A 
ATOM     14  C   UNL     1       8.536   8.670  18.617  0.00  0.00    +0.000 A 
ATOM     15  C   UNL     1       7.643   8.888  17.595  0.00  0.00    +0.000 A 
ATOM     16  F   UNL     1       7.602  10.079  16.983  0.00  0.00    +0.000 F 
ATOM     17  C   UNL     1       6.808   7.866  17.152  0.00  0.00    +0.000 A 
ATOM     18  C   UNL     1       6.850   6.559  17.705  0.00  0.00    +0.000 A 
BRANCH  12  20
ATOM     19  C   UNL     1       8.602   4.914  20.472  0.00  0.00    +0.000 C 
ATOM     20  O   UNL     1       7.896   5.079  19.246  0.00  0.00    +0.000 OA
ENDBRANCH  12  20
ENDBRANCH   9  18
ENDBRANCH   8   9
ENDBRANCH   1   8
BRANCH   1  21
ATOM     21  C   UNL     1       2.795   5.570  17.955  0.00  0.00    +0.000 C 
BRANCH  21  22
ATOM     22  C   UNL     1       2.562   6.980  18.409  0.00  0.00    +0.000 A 
ATOM     23  C   UNL     1       2.681   8.198  17.770  0.00  0.00    +0.000 A 
ATOM     24  C   UNL     1       1.955   9.157  18.515  0.00  0.00    +0.000 A 
ATOM     25  C   UNL     1       1.500  10.446  18.233  0.00  0.00    +0.000 A 
ATOM     26  C   UNL     1       0.663  11.012  19.178  0.00  0.00    +0.000 A 
ATOM     27  N   UNL     1       0.324  10.438  20.354  0.00  0.00    +0.000 NA
ATOM     28  C   UNL     1       0.804   9.206  20.646  0.00  0.00    +0.000 A 
ATOM     29  C   UNL     1       1.597   8.552  19.713  0.00  0.00    +0.000 A 
ATOM     30  N   UNL     1       2.102   7.269  19.683  0.00  0.00    +0.000 N 
ATOM     31  H   UNL     1       1.956   6.590  20.414  0.00  0.00    +0.000 HD
ENDBRANCH  21  22
ENDBRANCH   1  21
TORSDOF 8
ENDMDL
MODEL 6
REMARK VINA RESULT:      -7.1      1.615      2.253
REMARK  Name = 
REMARK  14 active torsions:
REMARK  status: ('A' for Active; 'I' for Inactive)
REMARK    1  A    between atoms: C_1  and  O_2
REMARK    2  A    between atoms: O_2  and  C_3
REMARK    3  A    between atoms: C_9  and  C_10
REMARK    4  A    between atoms: C_10  and  C_11
REMARK    5  A    between atoms: C_10  and  C_12
REMARK    6  A    between atoms: C_10  and  C_13
REMARK    7  A    between atoms: C_13  and  C_14
REMARK    8  A    between atoms: C_14  and  O_15
REMARK    9  A    between atoms: C_14  and  C_16
REMARK   10  A    between atoms: C_14  and  C_26
REMARK   11  A    between atoms: C_16  and  C_17
REMARK   12  A    between atoms: C_26  and  C_27
REMARK   13  A    between atoms: C_26  and  C_28
REMARK   14  A    between atoms: C_26  and  C_29
REMARK                            x       y       z     vdW  Elec       q    Type
REMARK                         _______ _______ _______ _____ _____    ______ ____
ROOT
ATOM      1  C   UNL     1       2.892   4.523  19.559  0.00  0.00    +0.000 C 
ENDROOT
BRANCH   1   2
ATOM      2  C   UNL     1       2.748   2.988  20.078  0.00  0.00    +0.000 C 
ATOM      3  C   UNL     1       1.849   2.135  19.139  0.00  0.00    +0.000 C 
ATOM      4  C   UNL     1       4.122   2.273  20.095  0.00  0.00    +0.000 C 
ATOM      5  C   UNL     1       2.114   2.832  21.478  0.00  0.00    +0.000 C 
ENDBRANCH   1   2
BRANCH   1   6
ATOM      6  O   UNL     1       3.742   5.166  20.536  0.00  0.00    +0.000 OA
ATOM      7  H   UNL     1       3.875   6.089  20.269  0.00  0.00    +0.000 HD
ENDBRANCH   1   6
BRANCH   1   8
ATOM      8  C   UNL     1       3.636   4.562  18.172  0.00  0.00    +0.000 C 
BRANCH   8   9
ATOM      9  C   UNL     1       4.939   5.396  17.812  0.00  0.00    +0.000 C 
ATOM     10  C   UNL     1       5.980   5.239  18.944  0.00  0.00    +0.000 C 
ATOM     11  C   UNL     1       4.477   6.894  17.868  0.00  0.00    +0.000 C 
BRANCH   9  18
ATOM     12  C   UNL     1       6.969   5.594  16.162  0.00  0.00    +0.000 A 
ATOM     13  C   UNL     1       7.566   5.251  14.931  0.00  0.00    +0.000 A 
ATOM     14  C   UNL     1       6.855   4.567  13.946  0.00  0.00    +0.000 A 
ATOM     15  C   UNL     1       5.540   4.242  14.180  0.00  0.00    +0.000 A 
ATOM     16  F   UNL     1       4.850   3.543  13.270  0.00  0.00    +0.000 F 
ATOM     17  C   UNL     1       4.926   4.589  15.380  0.00  0.00    +0.000 A 
ATOM     18  C   UNL     1       5.618   5.265  16.419  0.00  0.00    +0.000 A 
BRANCH  12  20
ATOM     19  C   UNL     1       7.775   7.587  17.200  0.00  0.00    +0.000 C 
ATOM     20  O   UNL     1       7.685   6.166  17.179  0.00  0.00    +0.000 OA
ENDBRANCH  12  20
ENDBRANCH   9  18
ENDBRANCH   8   9
ENDBRANCH   1   8
BRANCH   1  21
ATOM     21  C   UNL     1       1.535   5.327  19.601  0.00  0.00    +0.000 C 
BRANCH  21  22
ATOM     22  C   UNL     1       1.601   6.772  19.998  0.00  0.00    +0.000 A 
ATOM     23  C   UNL     1       1.619   7.942  19.265  0.00  0.00    +0.000 A 
ATOM     24  C   UNL     1       1.275   9.007  20.130  0.00  0.00    +0.000 A 
ATOM     25  C   UNL     1       0.878  10.327  19.914  0.00  0.00    +0.000 A 
ATOM     26  C   UNL     1       0.458  11.024  21.033  0.00  0.00    +0.000 A 
ATOM     27  N   UNL     1       0.472  10.540  22.296  0.00  0.00    +0.000 NA
ATOM     28  C   UNL     1       0.902   9.273  22.509  0.00  0.00    +0.000 A 
ATOM     29  C   UNL     1       1.275   8.495  21.421  0.00  0.00    +0.000 A 
ATOM     30  N   UNL     1       1.617   7.162  21.327  0.00  0.00    +0.000 N 
ATOM     31  H   UNL     1       1.656   6.535  22.114  0.00  0.00    +0.000 HD
ENDBRANCH  21  22
ENDBRANCH   1  21
TORSDOF 8
ENDMDL
MODEL 7
REMARK VINA RESULT:      -7.1      1.781      2.871
REMARK  Name = 
REMARK  14 active torsions:
REMARK  status: ('A' for Active; 'I' for Inactive)
REMARK    1  A    between atoms: C_1  and  O_2
REMARK    2  A    between atoms: O_2  and  C_3
REMARK    3  A    between atoms: C_9  and  C_10
REMARK    4  A    between atoms: C_10  and  C_11
REMARK    5  A    between atoms: C_10  and  C_12
REMARK    6  A    between atoms: C_10  and  C_13
REMARK    7  A    between atoms: C_13  and  C_14
REMARK    8  A    between atoms: C_14  and  O_15
REMARK    9  A    between atoms: C_14  and  C_16
REMARK   10  A    between atoms: C_14  and  C_26
REMARK   11  A    between atoms: C_16  and  C_17
REMARK   12  A    between atoms: C_26  and  C_27
REMARK   13  A    between atoms: C_26  and  C_28
REMARK   14  A    between atoms: C_26  and  C_29
REMARK                            x       y       z     vdW  Elec       q    Type
REMARK                         _______ _______ _______ _____ _____    ______ ____
ROOT
ATOM      1  C   UNL     1       2.750   4.238  20.218  0.00  0.00    +0.000 C 
ENDROOT
BRANCH   1   2
ATOM      2  C   UNL     1       2.269   2.764  20.713  0.00  0.00    +0.000 C 
ATOM      3  C   UNL     1       1.334   2.841  21.953  0.00  0.00    +0.000 C 
ATOM      4  C   UNL     1       1.442   2.050  19.615  0.00  0.00    +0.000 C 
ATOM      5  C   UNL     1       3.412   1.816  21.139  0.00  0.00    +0.000 C 
ENDBRANCH   1   2
BRANCH   1   6
ATOM      6  O   UNL     1       3.169   4.915  21.426  0.00  0.00    +0.000 OA
ATOM      7  H   UNL     1       4.131   5.040  21.390  0.00  0.00    +0.000 HD
ENDBRANCH   1   6
BRANCH   1   8
ATOM      8  C   UNL     1       4.003   4.114  19.274  0.00  0.00    +0.000 C 
BRANCH   8   9
ATOM      9  C   UNL     1       4.002   3.737  17.732  0.00  0.00    +0.000 C 
ATOM     10  C   UNL     1       2.588   3.959  17.149  0.00  0.00    +0.000 C 
ATOM     11  C   UNL     1       4.230   2.186  17.705  0.00  0.00    +0.000 C 
BRANCH   9  18
ATOM     12  C   UNL     1       6.306   4.871  17.192  0.00  0.00    +0.000 A 
ATOM     13  C   UNL     1       7.325   5.158  16.260  0.00  0.00    +0.000 A 
ATOM     14  C   UNL     1       7.171   4.865  14.906  0.00  0.00    +0.000 A 
ATOM     15  C   UNL     1       5.992   4.305  14.476  0.00  0.00    +0.000 A 
ATOM     16  F   UNL     1       5.839   3.970  13.188  0.00  0.00    +0.000 F 
ATOM     17  C   UNL     1       4.966   4.032  15.376  0.00  0.00    +0.000 A 
ATOM     18  C   UNL     1       5.088   4.292  16.767  0.00  0.00    +0.000 A 
BRANCH  12  20
ATOM     19  C   UNL     1       7.668   5.720  18.959  0.00  0.00    +0.000 C 
ATOM     20  O   UNL     1       6.484   5.050  18.538  0.00  0.00    +0.000 OA
ENDBRANCH  12  20
ENDBRANCH   9  18
ENDBRANCH   8   9
ENDBRANCH   1   8
BRANCH   1  21
ATOM     21  C   UNL     1       1.574   5.118  19.640  0.00  0.00    +0.000 C 
BRANCH  21  22
ATOM     22  C   UNL     1       1.801   6.597  19.549  0.00  0.00    +0.000 A 
ATOM     23  C   UNL     1       2.219   7.416  18.518  0.00  0.00    +0.000 A 
ATOM     24  C   UNL     1       1.868   8.746  18.844  0.00  0.00    +0.000 A 
ATOM     25  C   UNL     1       1.788   9.926  18.103  0.00  0.00    +0.000 A 
ATOM     26  C   UNL     1       1.231  11.014  18.753  0.00  0.00    +0.000 A 
ATOM     27  N   UNL     1       0.835  11.022  20.046  0.00  0.00    +0.000 NA
ATOM     28  C   UNL     1       0.957   9.888  20.777  0.00  0.00    +0.000 A 
ATOM     29  C   UNL     1       1.445   8.741  20.168  0.00  0.00    +0.000 A 
ATOM     30  N   UNL     1       1.549   7.441  20.618  0.00  0.00    +0.000 N 
ATOM     31  H   UNL     1       1.271   7.141  21.539  0.00  0.00    +0.000 HD
ENDBRANCH  21  22
ENDBRANCH   1  21
TORSDOF 8
ENDMDL
MODEL 8
REMARK VINA RESULT:      -7.0      2.824      4.074
REMARK  Name = 
REMARK  14 active torsions:
REMARK  status: ('A' for Active; 'I' for Inactive)
REMARK    1  A    between atoms: C_1  and  O_2
REMARK    2  A    between atoms: O_2  and  C_3
REMARK    3  A    between atoms: C_9  and  C_10
REMARK    4  A    between atoms: C_10  and  C_11
REMARK    5  A    between atoms: C_10  and  C_12
REMARK    6  A    between atoms: C_10  and  C_13
REMARK    7  A    between atoms: C_13  and  C_14
REMARK    8  A    between atoms: C_14  and  O_15
REMARK    9  A    between atoms: C_14  and  C_16
REMARK   10  A    between atoms: C_14  and  C_26
REMARK   11  A    between atoms: C_16  and  C_17
REMARK   12  A    between atoms: C_26  and  C_27
REMARK   13  A    between atoms: C_26  and  C_28
REMARK   14  A    between atoms: C_26  and  C_29
REMARK                            x       y       z     vdW  Elec       q    Type
REMARK                         _______ _______ _______ _____ _____    ______ ____
ROOT
ATOM      1  C   UNL     1       3.580   5.022  18.522  0.00  0.00    +0.000 C 
ENDROOT
BRANCH   1   2
ATOM      2  C   UNL     1       3.266   3.523  19.071  0.00  0.00    +0.000 C 
ATOM      3  C   UNL     1       2.159   3.522  20.163  0.00  0.00    +0.000 C 
ATOM      4  C   UNL     1       2.729   2.615  17.937  0.00  0.00    +0.000 C 
ATOM      5  C   UNL     1       4.467   2.806  19.727  0.00  0.00    +0.000 C 
ENDBRANCH   1   2
BRANCH   1   6
ATOM      6  O   UNL     1       4.249   5.686  19.619  0.00  0.00    +0.000 OA
ATOM      7  H   UNL     1       3.920   6.597  19.673  0.00  0.00    +0.000 HD
ENDBRANCH   1   6
BRANCH   1   8
ATOM      8  C   UNL     1       4.584   4.960  17.311  0.00  0.00    +0.000 C 
BRANCH   8   9
ATOM      9  C   UNL     1       5.398   6.170  16.685  0.00  0.00    +0.000 C 
ATOM     10  C   UNL     1       4.420   7.145  15.991  0.00  0.00    +0.000 C 
ATOM     11  C   UNL     1       6.240   5.525  15.530  0.00  0.00    +0.000 C 
BRANCH   9  18
ATOM     12  C   UNL     1       7.352   6.346  18.428  0.00  0.00    +0.000 A 
ATOM     13  C   UNL     1       8.410   7.091  18.990  0.00  0.00    +0.000 A 
ATOM     14  C   UNL     1       8.607   8.431  18.659  0.00  0.00    +0.000 A 
ATOM     15  C   UNL     1       7.737   9.035  17.783  0.00  0.00    +0.000 A 
ATOM     16  F   UNL     1       7.934  10.308  17.413  0.00  0.00    +0.000 F 
ATOM     17  C   UNL     1       6.675   8.324  17.233  0.00  0.00    +0.000 A 
ATOM     18  C   UNL     1       6.450   6.952  17.523  0.00  0.00    +0.000 A 
BRANCH  12  20
ATOM     19  C   UNL     1       8.156   4.132  18.043  0.00  0.00    +0.000 C 
ATOM     20  O   UNL     1       7.211   5.003  18.656  0.00  0.00    +0.000 OA
ENDBRANCH  12  20
ENDBRANCH   9  18
ENDBRANCH   8   9
ENDBRANCH   1   8
BRANCH   1  21
ATOM     21  C   UNL     1       2.280   5.876  18.255  0.00  0.00    +0.000 C 
BRANCH  21  22
ATOM     22  C   UNL     1       2.152   7.182  18.982  0.00  0.00    +0.000 A 
ATOM     23  C   UNL     1       2.006   8.483  18.543  0.00  0.00    +0.000 A 
ATOM     24  C   UNL     1       1.525   9.259  19.623  0.00  0.00    +0.000 A 
ATOM     25  C   UNL     1       0.952  10.528  19.712  0.00  0.00    +0.000 A 
ATOM     26  C   UNL     1       0.447  10.880  20.952  0.00  0.00    +0.000 A 
ATOM     27  N   UNL     1       0.535  10.119  22.066  0.00  0.00    +0.000 NA
ATOM     28  C   UNL     1       1.133   8.906  21.988  0.00  0.00    +0.000 A 
ATOM     29  C   UNL     1       1.603   8.463  20.759  0.00  0.00    +0.000 A 
ATOM     30  N   UNL     1       2.122   7.247  20.365  0.00  0.00    +0.000 N 
ATOM     31  H   UNL     1       2.250   6.463  20.984  0.00  0.00    +0.000 HD
ENDBRANCH  21  22
ENDBRANCH   1  21
TORSDOF 8
ENDMDL
MODEL 9
REMARK VINA RESULT:      -7.0      1.510      2.426
REMARK  Name = 
REMARK  14 active torsions:
REMARK  status: ('A' for Active; 'I' for Inactive)
REMARK    1  A    between atoms: C_1  and  O_2
REMARK    2  A    between atoms: O_2  and  C_3
REMARK    3  A    between atoms: C_9  and  C_10
REMARK    4  A    between atoms: C_10  and  C_11
REMARK    5  A    between atoms: C_10  and  C_12
REMARK    6  A    between atoms: C_10  and  C_13
REMARK    7  A    between atoms: C_13  and  C_14
REMARK    8  A    between atoms: C_14  and  O_15
REMARK    9  A    between atoms: C_14  and  C_16
REMARK   10  A    between atoms: C_14  and  C_26
REMARK   11  A    between atoms: C_16  and  C_17
REMARK   12  A    between atoms: C_26  and  C_27
REMARK   13  A    between atoms: C_26  and  C_28
REMARK   14  A    between atoms: C_26  and  C_29
REMARK                            x       y       z     vdW  Elec       q    Type
REMARK                         _______ _______ _______ _____ _____    ______ ____
ROOT
ATOM      1  C   UNL     1       3.216   4.364  19.690  0.00  0.00    +0.000 C 
ENDROOT
BRANCH   1   2
ATOM      2  C   UNL     1       2.738   3.026  20.484  0.00  0.00    +0.000 C 
ATOM      3  C   UNL     1       1.732   2.182  19.652  0.00  0.00    +0.000 C 
ATOM      4  C   UNL     1       3.937   2.085  20.762  0.00  0.00    +0.000 C 
ATOM      5  C   UNL     1       2.018   3.289  21.825  0.00  0.00    +0.000 C 
ENDBRANCH   1   2
BRANCH   1   6
ATOM      6  O   UNL     1       3.752   5.231  20.715  0.00  0.00    +0.000 OA
ATOM      7  H   UNL     1       3.980   4.690  21.488  0.00  0.00    +0.000 HD
ENDBRANCH   1   6
BRANCH   1   8
ATOM      8  C   UNL     1       4.383   4.018  18.692  0.00  0.00    +0.000 C 
BRANCH   8   9
ATOM      9  C   UNL     1       4.242   3.610  17.164  0.00  0.00    +0.000 C 
ATOM     10  C   UNL     1       2.771   3.778  16.720  0.00  0.00    +0.000 C 
ATOM     11  C   UNL     1       4.518   2.067  17.139  0.00  0.00    +0.000 C 
BRANCH   9  18
ATOM     12  C   UNL     1       6.286   5.052  16.369  0.00  0.00    +0.000 A 
ATOM     13  C   UNL     1       7.239   5.356  15.374  0.00  0.00    +0.000 A 
ATOM     14  C   UNL     1       7.159   4.798  14.099  0.00  0.00    +0.000 A 
ATOM     15  C   UNL     1       6.116   3.951  13.808  0.00  0.00    +0.000 A 
ATOM     16  F   UNL     1       6.044   3.364  12.606  0.00  0.00    +0.000 F 
ATOM     17  C   UNL     1       5.154   3.653  14.768  0.00  0.00    +0.000 A 
ATOM     18  C   UNL     1       5.209   4.181  16.086  0.00  0.00    +0.000 A 
BRANCH  12  20
ATOM     19  C   UNL     1       7.384   6.514  17.903  0.00  0.00    +0.000 C 
ATOM     20  O   UNL     1       6.413   5.503  17.655  0.00  0.00    +0.000 OA
ENDBRANCH  12  20
ENDBRANCH   9  18
ENDBRANCH   8   9
ENDBRANCH   1   8
BRANCH   1  21
ATOM     21  C   UNL     1       2.021   5.172  19.050  0.00  0.00    +0.000 C 
BRANCH  21  22
ATOM     22  C   UNL     1       2.068   6.667  19.150  0.00  0.00    +0.000 A 
ATOM     23  C   UNL     1       2.286   7.660  18.214  0.00  0.00    +0.000 A 
ATOM     24  C   UNL     1       1.820   8.881  18.753  0.00  0.00    +0.000 A 
ATOM     25  C   UNL     1       1.534  10.128  18.195  0.00  0.00    +0.000 A 
ATOM     26  C   UNL     1       0.924  11.043  19.036  0.00  0.00    +0.000 A 
ATOM     27  N   UNL     1       0.660  10.832  20.345  0.00  0.00    +0.000 NA
ATOM     28  C   UNL     1       0.981   9.637  20.897  0.00  0.00    +0.000 A 
ATOM     29  C   UNL     1       1.534   8.650  20.093  0.00  0.00    +0.000 A 
ATOM     30  N   UNL     1       1.829   7.326  20.345  0.00  0.00    +0.000 N 
ATOM     31  H   UNL     1       1.679   6.876  21.234  0.00  0.00    +0.000 HD
ENDBRANCH  21  22
ENDBRANCH   1  21
TORSDOF 8
ENDMDL
