MODEL 1
REMARK VINA RESULT:      -7.6      0.000      0.000
REMARK  Name = 
REMARK  3 active torsions:
REMARK  status: ('A' for Active; 'I' for Inactive)
REMARK    1  A    between atoms: O_1  and  C_2
REMARK    2  A    between atoms: C_5  and  C_6
REMARK    3  A    between atoms: C_12  and  C_13
REMARK                            x       y       z     vdW  Elec       q    Type
REMARK                         _______ _______ _______ _____ _____    ______ ____
ROOT
ATOM      1  C   UNL     1       3.359   1.887  18.590  0.00  0.00    +0.000 A 
ATOM      2  O   UNL     1       2.159   1.697  19.183  0.00  0.00    +0.000 OA
ATOM      3  N   UNL     1       1.597   2.919  19.485  0.00  0.00    +0.000 NA
ATOM      4  C   UNL     1       2.475   3.852  19.067  0.00  0.00    +0.000 A 
ATOM      5  C   UNL     1       3.635   3.227  18.486  0.00  0.00    +0.000 A 
ENDROOT
BRANCH   5   6
ATOM      6  C   UNL     1       4.828   3.827  17.919  0.00  0.00    +0.000 C 
ATOM      7  N   UNL     1       4.996   3.610  16.667  0.00  0.00    +0.000 NA
ATOM      8  C   UNL     1       5.934   4.233  15.756  0.00  0.00    +0.000 C 
ATOM      9  C   UNL     1       7.261   4.644  16.353  0.00  0.00    +0.000 C 
ATOM     10  C   UNL     1       7.177   5.946  17.149  0.00  0.00    +0.000 C 
ATOM     11  C   UNL     1       6.025   6.017  18.146  0.00  0.00    +0.000 C 
ATOM     12  C   UNL     1       5.725   4.675  18.797  0.00  0.00    +0.000 C 
ENDBRANCH   5   6
BRANCH   4  13
ATOM     13  C   UNL     1       2.173   5.283  19.204  0.00  0.00    +0.000 A 
ATOM     14  C   UNL     1       1.801   5.837  20.437  0.00  0.00    +0.000 A 
ATOM     15  C   UNL     1       1.756   7.221  20.619  0.00  0.00    +0.000 A 
ATOM     16  C   UNL     1       2.000   8.069  19.544  0.00  0.00    +0.000 A 
ATOM     17  C   UNL     1       2.260   7.531  18.284  0.00  0.00    +0.000 A 
ATOM     18  C   UNL     1       2.349   6.146  18.114  0.00  0.00    +0.000 A 
ENDBRANCH   4  13
BRANCH   1  19
ATOM     19  O   UNL     1       3.979   0.775  18.238  0.00  0.00    +0.000 OA
ATOM     20  H   UNL     1       3.536   0.503  17.413  0.00  0.00    +0.000 HD
ENDBRANCH   1  19
TORSDOF 3
ENDMDL
MODEL 2
REMARK VINA RESULT:      -7.6      0.781      1.391
REMARK  Name = 
REMARK  3 active torsions:
REMARK  status: ('A' for Active; 'I' for Inactive)
REMARK    1  A    between atoms: O_1  and  C_2
REMARK    2  A    between atoms: C_5  and  C_6
REMARK    3  A    between atoms: C_12  and  C_13
REMARK                            x       y       z     vdW  Elec       q    Type
REMARK                         _______ _______ _______ _____ _____    ______ ____
ROOT
ATOM      1  C   UNL     1       3.560   1.980  18.577  0.00  0.00    +0.000 A 
ATOM      2  O   UNL     1       2.438   1.731  19.291  0.00  0.00    +0.000 OA
ATOM      3  N   UNL     1       1.838   2.923  19.634  0.00  0.00    +0.000 NA
ATOM      4  C   UNL     1       2.612   3.898  19.118  0.00  0.00    +0.000 A 
ATOM      5  C   UNL     1       3.743   3.331  18.429  0.00  0.00    +0.000 A 
ENDROOT
BRANCH   5   6
ATOM      6  C   UNL     1       4.835   3.989  17.736  0.00  0.00    +0.000 C 
ATOM      7  N   UNL     1       5.853   4.256  18.468  0.00  0.00    +0.000 NA
ATOM      8  C   UNL     1       7.173   4.691  18.062  0.00  0.00    +0.000 C 
ATOM      9  C   UNL     1       7.232   5.559  16.826  0.00  0.00    +0.000 C 
ATOM     10  C   UNL     1       7.104   4.758  15.532  0.00  0.00    +0.000 C 
ATOM     11  C   UNL     1       5.952   3.757  15.506  0.00  0.00    +0.000 C 
ATOM     12  C   UNL     1       4.723   4.254  16.249  0.00  0.00    +0.000 C 
ENDBRANCH   5   6
BRANCH   4  13
ATOM     13  C   UNL     1       2.240   5.312  19.268  0.00  0.00    +0.000 A 
ATOM     14  C   UNL     1       1.786   5.822  20.492  0.00  0.00    +0.000 A 
ATOM     15  C   UNL     1       1.672   7.198  20.698  0.00  0.00    +0.000 A 
ATOM     16  C   UNL     1       1.928   8.079  19.653  0.00  0.00    +0.000 A 
ATOM     17  C   UNL     1       2.270   7.580  18.397  0.00  0.00    +0.000 A 
ATOM     18  C   UNL     1       2.429   6.204  18.204  0.00  0.00    +0.000 A 
ENDBRANCH   4  13
BRANCH   1  19
ATOM     19  O   UNL     1       4.206   0.899  18.176  0.00  0.00    +0.000 OA
ATOM     20  H   UNL     1       4.292   0.357  18.981  0.00  0.00    +0.000 HD
ENDBRANCH   1  19
TORSDOF 3
ENDMDL
MODEL 3
REMARK VINA RESULT:      -7.4      1.118      1.129
REMARK  Name = 
REMARK  3 active torsions:
REMARK  status: ('A' for Active; 'I' for Inactive)
REMARK    1  A    between atoms: O_1  and  C_2
REMARK    2  A    between atoms: C_5  and  C_6
REMARK    3  A    between atoms: C_12  and  C_13
REMARK                            x       y       z     vdW  Elec       q    Type
REMARK                         _______ _______ _______ _____ _____    ______ ____
ROOT
ATOM      1  C   UNL     1       4.251   2.611  20.021  0.00  0.00    +0.000 A 
ATOM      2  O   UNL     1       3.208   2.545  20.879  0.00  0.00    +0.000 OA
ATOM      3  N   UNL     1       2.477   3.711  20.803  0.00  0.00    +0.000 NA
ATOM      4  C   UNL     1       3.092   4.484  19.887  0.00  0.00    +0.000 A 
ATOM      5  C   UNL     1       4.251   3.812  19.358  0.00  0.00    +0.000 A 
ENDROOT
BRANCH   5   6
ATOM      6  C   UNL     1       5.214   4.258  18.367  0.00  0.00    +0.000 C 
ATOM      7  N   UNL     1       5.019   3.803  17.185  0.00  0.00    +0.000 NA
ATOM      8  C   UNL     1       5.637   4.214  15.942  0.00  0.00    +0.000 C 
ATOM      9  C   UNL     1       7.068   4.691  16.041  0.00  0.00    +0.000 C 
ATOM     10  C   UNL     1       7.182   6.122  16.565  0.00  0.00    +0.000 C 
ATOM     11  C   UNL     1       6.366   6.414  17.821  0.00  0.00    +0.000 C 
ATOM     12  C   UNL     1       6.303   5.230  18.772  0.00  0.00    +0.000 C 
ENDBRANCH   5   6
BRANCH   4  13
ATOM     13  C   UNL     1       2.549   5.801  19.527  0.00  0.00    +0.000 A 
ATOM     14  C   UNL     1       2.002   6.655  20.495  0.00  0.00    +0.000 A 
ATOM     15  C   UNL     1       1.717   7.989  20.198  0.00  0.00    +0.000 A 
ATOM     16  C   UNL     1       1.896   8.463  18.903  0.00  0.00    +0.000 A 
ATOM     17  C   UNL     1       2.333   7.596  17.903  0.00  0.00    +0.000 A 
ATOM     18  C   UNL     1       2.661   6.272  18.212  0.00  0.00    +0.000 A 
ENDBRANCH   4  13
BRANCH   1  19
ATOM     19  O   UNL     1       5.011   1.530  19.997  0.00  0.00    +0.000 OA
ATOM     20  H   UNL     1       5.817   1.791  20.477  0.00  0.00    +0.000 HD
ENDBRANCH   1  19
TORSDOF 3
ENDMDL
MODEL 4
REMARK VINA RESULT:      -7.4      0.396      1.173
REMARK  Name = 
REMARK  3 active torsions:
REMARK  status: ('A' for Active; 'I' for Inactive)
REMARK    1  A    between atoms: O_1  and  C_2
REMARK    2  A    between atoms: C_5  and  C_6
REMARK    3  A    between atoms: C_12  and  C_13
REMARK                            x       y       z     vdW  Elec       q    Type
REMARK                         _______ _______ _______ _____ _____    ______ ____
ROOT
ATOM      1  C   UNL     1       3.204   2.228  18.623  0.00  0.00    +0.000 A 
ATOM      2  O   UNL     1       2.043   2.153  19.311  0.00  0.00    +0.000 OA
ATOM      3  N   UNL     1       1.620   3.424  19.638  0.00  0.00    +0.000 NA
ATOM      4  C   UNL     1       2.542   4.269  19.138  0.00  0.00    +0.000 A 
ATOM      5  C   UNL     1       3.591   3.536  18.477  0.00  0.00    +0.000 A 
ENDROOT
BRANCH   5   6
ATOM      6  C   UNL     1       4.785   4.019  17.808  0.00  0.00    +0.000 C 
ATOM      7  N   UNL     1       4.825   3.792  16.547  0.00  0.00    +0.000 NA
ATOM      8  C   UNL     1       5.738   4.324  15.558  0.00  0.00    +0.000 C 
ATOM      9  C   UNL     1       7.144   4.603  16.039  0.00  0.00    +0.000 C 
ATOM     10  C   UNL     1       7.253   5.904  16.832  0.00  0.00    +0.000 C 
ATOM     11  C   UNL     1       6.202   6.082  17.923  0.00  0.00    +0.000 C 
ATOM     12  C   UNL     1       5.830   4.774  18.603  0.00  0.00    +0.000 C 
ENDBRANCH   5   6
BRANCH   4  13
ATOM     13  C   UNL     1       2.383   5.723  19.276  0.00  0.00    +0.000 A 
ATOM     14  C   UNL     1       2.558   6.584  18.183  0.00  0.00    +0.000 A 
ATOM     15  C   UNL     1       2.169   7.923  18.254  0.00  0.00    +0.000 A 
ATOM     16  C   UNL     1       1.678   8.439  19.449  0.00  0.00    +0.000 A 
ATOM     17  C   UNL     1       1.604   7.623  20.577  0.00  0.00    +0.000 A 
ATOM     18  C   UNL     1       1.952   6.271  20.492  0.00  0.00    +0.000 A 
ENDBRANCH   4  13
BRANCH   1  19
ATOM     19  O   UNL     1       3.690   1.060  18.240  0.00  0.00    +0.000 OA
ATOM     20  H   UNL     1       3.017   0.415  18.519  0.00  0.00    +0.000 HD
ENDBRANCH   1  19
TORSDOF 3
ENDMDL
MODEL 5
REMARK VINA RESULT:      -7.3      1.329      1.758
REMARK  Name = 
REMARK  3 active torsions:
REMARK  status: ('A' for Active; 'I' for Inactive)
REMARK    1  A    between atoms: O_1  and  C_2
REMARK    2  A    between atoms: C_5  and  C_6
REMARK    3  A    between atoms: C_12  and  C_13
REMARK                            x       y       z     vdW  Elec       q    Type
REMARK                         _______ _______ _______ _____ _____    ______ ____
ROOT
ATOM      1  C   UNL     1       4.212   2.819  19.838  0.00  0.00    +0.000 A 
ATOM      2  O   UNL     1       3.198   2.683  20.722  0.00  0.00    +0.000 OA
ATOM      3  N   UNL     1       2.446   3.838  20.738  0.00  0.00    +0.000 NA
ATOM      4  C   UNL     1       3.019   4.675  19.851  0.00  0.00    +0.000 A 
ATOM      5  C   UNL     1       4.171   4.056  19.248  0.00  0.00    +0.000 A 
ENDROOT
BRANCH   5   6
ATOM      6  C   UNL     1       5.095   4.578  18.257  0.00  0.00    +0.000 C 
ATOM      7  N   UNL     1       6.175   5.073  18.736  0.00  0.00    +0.000 NA
ATOM      8  C   UNL     1       7.382   5.463  18.038  0.00  0.00    +0.000 C 
ATOM      9  C   UNL     1       7.193   5.995  16.636  0.00  0.00    +0.000 C 
ATOM     10  C   UNL     1       6.961   4.889  15.608  0.00  0.00    +0.000 C 
ATOM     11  C   UNL     1       5.911   3.854  16.001  0.00  0.00    +0.000 C 
ATOM     12  C   UNL     1       4.756   4.455  16.785  0.00  0.00    +0.000 C 
ENDBRANCH   5   6
BRANCH   4  13
ATOM     13  C   UNL     1       2.443   6.001  19.588  0.00  0.00    +0.000 A 
ATOM     14  C   UNL     1       1.873   6.767  20.614  0.00  0.00    +0.000 A 
ATOM     15  C   UNL     1       1.554   8.112  20.415  0.00  0.00    +0.000 A 
ATOM     16  C   UNL     1       1.723   8.684  19.159  0.00  0.00    +0.000 A 
ATOM     17  C   UNL     1       2.183   7.904  18.099  0.00  0.00    +0.000 A 
ATOM     18  C   UNL     1       2.545   6.570  18.311  0.00  0.00    +0.000 A 
ENDBRANCH   4  13
BRANCH   1  19
ATOM     19  O   UNL     1       4.988   1.755  19.726  0.00  0.00    +0.000 OA
ATOM     20  H   UNL     1       5.710   1.916  20.360  0.00  0.00    +0.000 HD
ENDBRANCH   1  19
TORSDOF 3
ENDMDL
MODEL 6
REMARK VINA RESULT:      -7.3      0.878      1.824
REMARK  Name = 
REMARK  3 active torsions:
REMARK  status: ('A' for Active; 'I' for Inactive)
REMARK    1  A    between atoms: O_1  and  C_2
REMARK    2  A    between atoms: C_5  and  C_6
REMARK    3  A    between atoms: C_12  and  C_13
REMARK                            x       y       z     vdW  Elec       q    Type
REMARK                         _______ _______ _______ _____ _____    ______ ____
ROOT
ATOM      1  C   UNL     1       3.481   2.285  18.630  0.00  0.00    +0.000 A 
ATOM      2  O   UNL     1       2.383   2.147  19.407  0.00  0.00    +0.000 OA
ATOM      3  N   UNL     1       1.908   3.393  19.757  0.00  0.00    +0.000 NA
ATOM      4  C   UNL     1       2.734   4.288  19.181  0.00  0.00    +0.000 A 
ATOM      5  C   UNL     1       3.773   3.613  18.445  0.00  0.00    +0.000 A 
ENDROOT
BRANCH   5   6
ATOM      6  C   UNL     1       4.879   4.162  17.682  0.00  0.00    +0.000 C 
ATOM      7  N   UNL     1       5.943   4.383  18.361  0.00  0.00    +0.000 NA
ATOM      8  C   UNL     1       7.272   4.705  17.886  0.00  0.00    +0.000 C 
ATOM      9  C   UNL     1       7.340   5.515  16.612  0.00  0.00    +0.000 C 
ATOM     10  C   UNL     1       7.101   4.674  15.359  0.00  0.00    +0.000 C 
ATOM     11  C   UNL     1       5.881   3.759  15.422  0.00  0.00    +0.000 C 
ATOM     12  C   UNL     1       4.723   4.374  16.191  0.00  0.00    +0.000 C 
ENDBRANCH   5   6
BRANCH   4  13
ATOM     13  C   UNL     1       2.495   5.731  19.321  0.00  0.00    +0.000 A 
ATOM     14  C   UNL     1       2.679   6.609  18.244  0.00  0.00    +0.000 A 
ATOM     15  C   UNL     1       2.219   7.926  18.304  0.00  0.00    +0.000 A 
ATOM     16  C   UNL     1       1.646   8.406  19.477  0.00  0.00    +0.000 A 
ATOM     17  C   UNL     1       1.559   7.577  20.595  0.00  0.00    +0.000 A 
ATOM     18  C   UNL     1       1.979   6.245  20.517  0.00  0.00    +0.000 A 
ENDBRANCH   4  13
BRANCH   1  19
ATOM     19  O   UNL     1       4.009   1.146  18.218  0.00  0.00    +0.000 OA
ATOM     20  H   UNL     1       4.899   1.135  18.614  0.00  0.00    +0.000 HD
ENDBRANCH   1  19
TORSDOF 3
ENDMDL
MODEL 7
REMARK VINA RESULT:      -7.3      1.598      2.057
REMARK  Name = 
REMARK  3 active torsions:
REMARK  status: ('A' for Active; 'I' for Inactive)
REMARK    1  A    between atoms: O_1  and  C_2
REMARK    2  A    between atoms: C_5  and  C_6
REMARK    3  A    between atoms: C_12  and  C_13
REMARK                            x       y       z     vdW  Elec       q    Type
REMARK                         _______ _______ _______ _____ _____    ______ ____
ROOT
ATOM      1  C   UNL     1       4.220   3.315  19.661  0.00  0.00    +0.000 A 
ATOM      2  O   UNL     1       2.986   2.940  20.069  0.00  0.00    +0.000 OA
ATOM      3  N   UNL     1       2.143   4.031  20.042  0.00  0.00    +0.000 NA
ATOM      4  C   UNL     1       2.884   5.071  19.612  0.00  0.00    +0.000 A 
ATOM      5  C   UNL     1       4.239   4.653  19.359  0.00  0.00    +0.000 A 
ENDROOT
BRANCH   5   6
ATOM      6  C   UNL     1       5.380   5.423  18.900  0.00  0.00    +0.000 C 
ATOM      7  N   UNL     1       6.449   5.264  19.588  0.00  0.00    +0.000 NA
ATOM      8  C   UNL     1       7.798   5.693  19.281  0.00  0.00    +0.000 C 
ATOM      9  C   UNL     1       7.921   6.979  18.497  0.00  0.00    +0.000 C 
ATOM     10  C   UNL     1       7.645   6.794  17.006  0.00  0.00    +0.000 C 
ATOM     11  C   UNL     1       6.377   6.013  16.678  0.00  0.00    +0.000 C 
ATOM     12  C   UNL     1       5.248   6.283  17.659  0.00  0.00    +0.000 C 
ENDBRANCH   5   6
BRANCH   4  13
ATOM     13  C   UNL     1       2.282   6.399  19.430  0.00  0.00    +0.000 A 
ATOM     14  C   UNL     1       1.810   7.143  20.520  0.00  0.00    +0.000 A 
ATOM     15  C   UNL     1       1.471   8.489  20.377  0.00  0.00    +0.000 A 
ATOM     16  C   UNL     1       1.517   9.086  19.122  0.00  0.00    +0.000 A 
ATOM     17  C   UNL     1       1.876   8.328  18.008  0.00  0.00    +0.000 A 
ATOM     18  C   UNL     1       2.260   6.991  18.160  0.00  0.00    +0.000 A 
ENDBRANCH   4  13
BRANCH   1  19
ATOM     19  O   UNL     1       5.107   2.336  19.629  0.00  0.00    +0.000 OA
ATOM     20  H   UNL     1       5.709   2.531  20.370  0.00  0.00    +0.000 HD
ENDBRANCH   1  19
TORSDOF 3
ENDMDL
MODEL 8
REMARK VINA RESULT:      -7.2      1.384      4.704
REMARK  Name = 
REMARK  3 active torsions:
REMARK  status: ('A' for Active; 'I' for Inactive)
REMARK    1  A    between atoms: O_1  and  C_2
REMARK    2  A    between atoms: C_5  and  C_6
REMARK    3  A    between atoms: C_12  and  C_13
REMARK                            x       y       z     vdW  Elec       q    Type
REMARK                         _______ _______ _______ _____ _____    ______ ____
ROOT
ATOM      1  C   UNL     1       1.858   3.462  19.967  0.00  0.00    +0.000 A 
ATOM      2  O   UNL     1       2.447   2.246  19.906  0.00  0.00    +0.000 OA
ATOM      3  N   UNL     1       3.607   2.335  19.168  0.00  0.00    +0.000 NA
ATOM      4  C   UNL     1       3.712   3.622  18.782  0.00  0.00    +0.000 A 
ATOM      5  C   UNL     1       2.596   4.387  19.274  0.00  0.00    +0.000 A 
ENDROOT
BRANCH   5   6
ATOM      6  C   UNL     1       2.284   5.794  19.101  0.00  0.00    +0.000 C 
ATOM      7  N   UNL     1       1.995   6.418  20.183  0.00  0.00    +0.000 NA
ATOM      8  C   UNL     1       1.861   7.843  20.400  0.00  0.00    +0.000 C 
ATOM      9  C   UNL     1       1.333   8.643  19.231  0.00  0.00    +0.000 C 
ATOM     10  C   UNL     1       2.396   8.910  18.166  0.00  0.00    +0.000 C 
ATOM     11  C   UNL     1       3.201   7.687  17.739  0.00  0.00    +0.000 C 
ATOM     12  C   UNL     1       2.371   6.413  17.721  0.00  0.00    +0.000 C 
ENDBRANCH   5   6
BRANCH   4  13
ATOM     13  C   UNL     1       4.868   4.080  17.999  0.00  0.00    +0.000 A 
ATOM     14  C   UNL     1       5.985   4.661  18.616  0.00  0.00    +0.000 A 
ATOM     15  C   UNL     1       7.170   4.866  17.908  0.00  0.00    +0.000 A 
ATOM     16  C   UNL     1       7.226   4.572  16.550  0.00  0.00    +0.000 A 
ATOM     17  C   UNL     1       6.088   4.101  15.897  0.00  0.00    +0.000 A 
ATOM     18  C   UNL     1       4.915   3.853  16.617  0.00  0.00    +0.000 A 
ENDBRANCH   4  13
BRANCH   1  19
ATOM     19  O   UNL     1       0.741   3.495  20.674  0.00  0.00    +0.000 OA
ATOM     20  H   UNL     1       0.352   2.611  20.551  0.00  0.00    +0.000 HD
ENDBRANCH   1  19
TORSDOF 3
ENDMDL
MODEL 9
REMARK VINA RESULT:      -7.2      1.530      2.374
REMARK  Name = 
REMARK  3 active torsions:
REMARK  status: ('A' for Active; 'I' for Inactive)
REMARK    1  A    between atoms: O_1  and  C_2
REMARK    2  A    between atoms: C_5  and  C_6
REMARK    3  A    between atoms: C_12  and  C_13
REMARK                            x       y       z     vdW  Elec       q    Type
REMARK                         _______ _______ _______ _____ _____    ______ ____
ROOT
ATOM      1  C   UNL     1       3.405   3.540  19.954  0.00  0.00    +0.000 A 
ATOM      2  O   UNL     1       2.287   3.591  20.712  0.00  0.00    +0.000 OA
ATOM      3  N   UNL     1       1.747   4.858  20.649  0.00  0.00    +0.000 NA
ATOM      4  C   UNL     1       2.554   5.573  19.842  0.00  0.00    +0.000 A 
ATOM      5  C   UNL     1       3.646   4.759  19.373  0.00  0.00    +0.000 A 
ENDROOT
BRANCH   5   6
ATOM      6  C   UNL     1       4.755   5.102  18.501  0.00  0.00    +0.000 C 
ATOM      7  N   UNL     1       5.813   5.497  19.107  0.00  0.00    +0.000 NA
ATOM      8  C   UNL     1       7.144   5.695  18.572  0.00  0.00    +0.000 C 
ATOM      9  C   UNL     1       7.217   6.154  17.133  0.00  0.00    +0.000 C 
ATOM     10  C   UNL     1       6.990   5.019  16.136  0.00  0.00    +0.000 C 
ATOM     11  C   UNL     1       5.774   4.143  16.423  0.00  0.00    +0.000 C 
ATOM     12  C   UNL     1       4.607   4.926  17.004  0.00  0.00    +0.000 C 
ENDBRANCH   5   6
BRANCH   4  13
ATOM     13  C   UNL     1       2.249   6.975  19.523  0.00  0.00    +0.000 A 
ATOM     14  C   UNL     1       2.428   7.485  18.229  0.00  0.00    +0.000 A 
ATOM     15  C   UNL     1       1.911   8.731  17.871  0.00  0.00    +0.000 A 
ATOM     16  C   UNL     1       1.281   9.521  18.827  0.00  0.00    +0.000 A 
ATOM     17  C   UNL     1       1.196   9.075  20.145  0.00  0.00    +0.000 A 
ATOM     18  C   UNL     1       1.674   7.807  20.492  0.00  0.00    +0.000 A 
ENDBRANCH   4  13
BRANCH   1  19
ATOM     19  O   UNL     1       3.995   2.358  19.926  0.00  0.00    +0.000 OA
ATOM     20  H   UNL     1       4.311   2.225  20.838  0.00  0.00    +0.000 HD
ENDBRANCH   1  19
TORSDOF 3
ENDMDL
