MODEL 1
REMARK VINA RESULT:      -7.4      0.000      0.000
REMARK  Name = 
REMARK  7 active torsions:
REMARK  status: ('A' for Active; 'I' for Inactive)
REMARK    1  A    between atoms: C_1  and  C_2
REMARK    2  A    between atoms: N_4  and  C_5
REMARK    3  A    between atoms: C_5  and  C_6
REMARK    4  A    between atoms: C_6  and  C_7
REMARK    5  A    between atoms: C_6  and  C_8
REMARK    6  A    between atoms: C_11  and  C_12
REMARK    7  A    between atoms: C_12  and  N_13
REMARK                            x       y       z     vdW  Elec       q    Type
REMARK                         _______ _______ _______ _____ _____    ______ ____
ROOT
ATOM      1  N   UNL     1       6.130   5.996  16.857  0.00  0.00    +0.000 NA
ATOM      2  C   UNL     1       7.179   5.022  16.668  0.00  0.00    +0.000 C 
ATOM      3  C   UNL     1       6.859   3.966  15.614  0.00  0.00    +0.000 C 
ATOM      4  C   UNL     1       6.267   4.526  14.323  0.00  0.00    +0.000 C 
ATOM      5  C   UNL     1       5.274   5.665  14.503  0.00  0.00    +0.000 C 
ATOM      6  C   UNL     1       5.535   6.596  15.681  0.00  0.00    +0.000 C 
ATOM      7  N   UNL     1       5.626   3.452  13.564  0.00  0.00    +0.000 N 
ATOM      8  C   UNL     1       6.242   3.197  12.365  0.00  0.00    +0.000 C 
ATOM      9  O   UNL     1       5.837   2.409  11.530  0.00  0.00    +0.000 OA
ATOM     10  N   UNL     1       7.328   3.988  12.271  0.00  0.00    +0.000 N 
ATOM     11  C   UNL     1       7.380   4.873  13.314  0.00  0.00    +0.000 C 
ATOM     12  O   UNL     1       8.189   5.771  13.416  0.00  0.00    +0.000 OA
ATOM     13  H   UNL     1       4.726   3.044  13.777  0.00  0.00    +0.000 HD
ATOM     14  H   UNL     1       7.922   4.020  11.458  0.00  0.00    +0.000 HD
ENDROOT
BRANCH   1  15
ATOM     15  C   UNL     1       5.480   6.030  18.163  0.00  0.00    +0.000 C 
BRANCH  15  22
ATOM     16  C   UNL     1       2.952   8.034  17.875  0.00  0.00    +0.000 C 
ATOM     17  C   UNL     1       2.920   6.552  18.013  0.00  0.00    +0.000 A 
ATOM     18  N   UNL     1       1.753   5.896  18.148  0.00  0.00    +0.000 NA
ATOM     19  N   UNL     1       2.120   4.591  18.266  0.00  0.00    +0.000 N 
ATOM     20  C   UNL     1       3.458   4.421  18.052  0.00  0.00    +0.000 A 
ATOM     21 CL   UNL     1       4.150   2.871  17.941  0.00  0.00    +0.000 Cl
ATOM     22  C   UNL     1       4.038   5.667  18.065  0.00  0.00    +0.000 A 
BRANCH  19  23
ATOM     23  C   UNL     1       1.139   3.586  18.673  0.00  0.00    +0.000 C 
BRANCH  23  24
ATOM     24  C   UNL     1       1.000   3.442  20.208  0.00  0.00    +0.000 C 
ATOM     25  C   UNL     1       1.806   2.260  20.753  0.00  0.00    +0.000 C 
ATOM     26  C   UNL     1       1.440   4.709  20.952  0.00  0.00    +0.000 C 
ENDBRANCH  23  24
ENDBRANCH  19  23
ENDBRANCH  15  22
ENDBRANCH   1  15
TORSDOF 4
ENDMDL
MODEL 2
REMARK VINA RESULT:      -7.0      4.677      6.811
REMARK  Name = 
REMARK  7 active torsions:
REMARK  status: ('A' for Active; 'I' for Inactive)
REMARK    1  A    between atoms: C_1  and  C_2
REMARK    2  A    between atoms: N_4  and  C_5
REMARK    3  A    between atoms: C_5  and  C_6
REMARK    4  A    between atoms: C_6  and  C_7
REMARK    5  A    between atoms: C_6  and  C_8
REMARK    6  A    between atoms: C_11  and  C_12
REMARK    7  A    between atoms: C_12  and  N_13
REMARK                            x       y       z     vdW  Elec       q    Type
REMARK                         _______ _______ _______ _____ _____    ______ ____
ROOT
ATOM      1  N   UNL     1       1.732   6.637  19.956  0.00  0.00    +0.000 NA
ATOM      2  C   UNL     1       2.513   6.459  18.754  0.00  0.00    +0.000 C 
ATOM      3  C   UNL     1       3.375   5.201  18.759  0.00  0.00    +0.000 C 
ATOM      4  C   UNL     1       2.654   3.946  19.244  0.00  0.00    +0.000 C 
ATOM      5  C   UNL     1       1.704   4.153  20.414  0.00  0.00    +0.000 C 
ATOM      6  C   UNL     1       0.993   5.501  20.466  0.00  0.00    +0.000 C 
ATOM      7  N   UNL     1       3.631   2.918  19.601  0.00  0.00    +0.000 N 
ATOM      8  C   UNL     1       3.571   1.812  18.792  0.00  0.00    +0.000 C 
ATOM      9  O   UNL     1       4.226   0.798  18.952  0.00  0.00    +0.000 OA
ATOM     10  N   UNL     1       2.647   2.036  17.838  0.00  0.00    +0.000 N 
ATOM     11  C   UNL     1       1.982   3.210  18.067  0.00  0.00    +0.000 C 
ATOM     12  O   UNL     1       1.028   3.598  17.426  0.00  0.00    +0.000 OA
ATOM     13  H   UNL     1       4.182   2.906  20.449  0.00  0.00    +0.000 HD
ATOM     14  H   UNL     1       2.385   1.350  17.147  0.00  0.00    +0.000 HD
ENDROOT
BRANCH   1  15
ATOM     15  C   UNL     1       2.032   7.804  20.779  0.00  0.00    +0.000 C 
BRANCH  15  22
ATOM     16  C   UNL     1      -0.131   9.190  22.754  0.00  0.00    +0.000 C 
ATOM     17  C   UNL     1       0.111   9.498  21.317  0.00  0.00    +0.000 A 
ATOM     18  N   UNL     1      -0.681  10.360  20.654  0.00  0.00    +0.000 NA
ATOM     19  N   UNL     1      -0.175  10.368  19.391  0.00  0.00    +0.000 N 
ATOM     20  C   UNL     1       0.989   9.660  19.309  0.00  0.00    +0.000 A 
ATOM     21 CL   UNL     1       1.939   9.671  17.897  0.00  0.00    +0.000 Cl
ATOM     22  C   UNL     1       1.114   8.938  20.472  0.00  0.00    +0.000 A 
BRANCH  19  23
ATOM     23  C   UNL     1      -0.918  11.008  18.306  0.00  0.00    +0.000 C 
BRANCH  23  24
ATOM     24  C   UNL     1      -2.280  10.335  18.008  0.00  0.00    +0.000 C 
ATOM     25  C   UNL     1      -3.458  11.281  18.255  0.00  0.00    +0.000 C 
ATOM     26  C   UNL     1      -2.370   9.821  16.565  0.00  0.00    +0.000 C 
ENDBRANCH  23  24
ENDBRANCH  19  23
ENDBRANCH  15  22
ENDBRANCH   1  15
TORSDOF 4
ENDMDL
MODEL 3
REMARK VINA RESULT:      -6.8      3.253      6.856
REMARK  Name = 
REMARK  7 active torsions:
REMARK  status: ('A' for Active; 'I' for Inactive)
REMARK    1  A    between atoms: C_1  and  C_2
REMARK    2  A    between atoms: N_4  and  C_5
REMARK    3  A    between atoms: C_5  and  C_6
REMARK    4  A    between atoms: C_6  and  C_7
REMARK    5  A    between atoms: C_6  and  C_8
REMARK    6  A    between atoms: C_11  and  C_12
REMARK    7  A    between atoms: C_12  and  N_13
REMARK                            x       y       z     vdW  Elec       q    Type
REMARK                         _______ _______ _______ _____ _____    ______ ____
ROOT
ATOM      1  N   UNL     1       3.753   6.767  18.394  0.00  0.00    +0.000 NA
ATOM      2  C   UNL     1       2.319   6.870  18.258  0.00  0.00    +0.000 C 
ATOM      3  C   UNL     1       1.627   5.536  17.998  0.00  0.00    +0.000 C 
ATOM      4  C   UNL     1       2.104   4.394  18.892  0.00  0.00    +0.000 C 
ATOM      5  C   UNL     1       3.599   4.369  19.173  0.00  0.00    +0.000 C 
ATOM      6  C   UNL     1       4.286   5.728  19.249  0.00  0.00    +0.000 C 
ATOM      7  N   UNL     1       1.707   3.111  18.316  0.00  0.00    +0.000 N 
ATOM      8  C   UNL     1       0.802   2.428  19.088  0.00  0.00    +0.000 C 
ATOM      9  O   UNL     1       0.395   1.304  18.853  0.00  0.00    +0.000 OA
ATOM     10  N   UNL     1       0.487   3.196  20.149  0.00  0.00    +0.000 N 
ATOM     11  C   UNL     1       1.264   4.323  20.185  0.00  0.00    +0.000 C 
ATOM     12  O   UNL     1       1.267   5.129  21.090  0.00  0.00    +0.000 OA
ATOM     13  H   UNL     1       2.157   2.659  17.532  0.00  0.00    +0.000 HD
ATOM     14  H   UNL     1      -0.125   2.895  20.890  0.00  0.00    +0.000 HD
ENDROOT
BRANCH   1  15
ATOM     15  C   UNL     1       4.568   7.444  17.390  0.00  0.00    +0.000 C 
BRANCH  15  22
ATOM     16  C   UNL     1       7.769   7.873  17.641  0.00  0.00    +0.000 C 
ATOM     17  C   UNL     1       7.055   6.782  16.920  0.00  0.00    +0.000 A 
ATOM     18  N   UNL     1       7.732   5.890  16.174  0.00  0.00    +0.000 NA
ATOM     19  N   UNL     1       6.763   5.081  15.667  0.00  0.00    +0.000 N 
ATOM     20  C   UNL     1       5.540   5.360  16.205  0.00  0.00    +0.000 A 
ATOM     21 CL   UNL     1       4.189   4.372  15.901  0.00  0.00    +0.000 Cl
ATOM     22  C   UNL     1       5.648   6.555  16.875  0.00  0.00    +0.000 A 
BRANCH  19  23
ATOM     23  C   UNL     1       7.083   4.126  14.607  0.00  0.00    +0.000 C 
BRANCH  23  24
ATOM     24  C   UNL     1       6.583   4.563  13.208  0.00  0.00    +0.000 C 
ATOM     25  C   UNL     1       7.696   5.189  12.365  0.00  0.00    +0.000 C 
ATOM     26  C   UNL     1       5.978   3.396  12.418  0.00  0.00    +0.000 C 
ENDBRANCH  23  24
ENDBRANCH  19  23
ENDBRANCH  15  22
ENDBRANCH   1  15
TORSDOF 4
ENDMDL
MODEL 4
REMARK VINA RESULT:      -6.8      1.166      1.500
REMARK  Name = 
REMARK  7 active torsions:
REMARK  status: ('A' for Active; 'I' for Inactive)
REMARK    1  A    between atoms: C_1  and  C_2
REMARK    2  A    between atoms: N_4  and  C_5
REMARK    3  A    between atoms: C_5  and  C_6
REMARK    4  A    between atoms: C_6  and  C_7
REMARK    5  A    between atoms: C_6  and  C_8
REMARK    6  A    between atoms: C_11  and  C_12
REMARK    7  A    between atoms: C_12  and  N_13
REMARK                            x       y       z     vdW  Elec       q    Type
REMARK                         _______ _______ _______ _____ _____    ______ ____
ROOT
ATOM      1  N   UNL     1       6.512   6.026  17.587  0.00  0.00    +0.000 NA
ATOM      2  C   UNL     1       7.300   4.866  17.242  0.00  0.00    +0.000 C 
ATOM      3  C   UNL     1       6.684   4.006  16.143  0.00  0.00    +0.000 C 
ATOM      4  C   UNL     1       6.152   4.794  14.950  0.00  0.00    +0.000 C 
ATOM      5  C   UNL     1       5.456   6.103  15.294  0.00  0.00    +0.000 C 
ATOM      6  C   UNL     1       5.994   6.845  16.511  0.00  0.00    +0.000 C 
ATOM      7  N   UNL     1       5.238   3.961  14.169  0.00  0.00    +0.000 N 
ATOM      8  C   UNL     1       5.703   3.684  12.909  0.00  0.00    +0.000 C 
ATOM      9  O   UNL     1       5.078   3.083  12.054  0.00  0.00    +0.000 OA
ATOM     10  N   UNL     1       6.931   4.223  12.783  0.00  0.00    +0.000 N 
ATOM     11  C   UNL     1       7.248   4.978  13.880  0.00  0.00    +0.000 C 
ATOM     12  O   UNL     1       8.244   5.663  13.981  0.00  0.00    +0.000 OA
ATOM     13  H   UNL     1       4.285   3.742  14.425  0.00  0.00    +0.000 HD
ATOM     14  H   UNL     1       7.464   4.196  11.929  0.00  0.00    +0.000 HD
ENDROOT
BRANCH   1  15
ATOM     15  C   UNL     1       5.972   6.085  18.941  0.00  0.00    +0.000 C 
BRANCH  15  22
ATOM     16  C   UNL     1       3.103   7.406  18.222  0.00  0.00    +0.000 C 
ATOM     17  C   UNL     1       3.361   6.048  18.777  0.00  0.00    +0.000 A 
ATOM     18  N   UNL     1       2.343   5.250  19.149  0.00  0.00    +0.000 NA
ATOM     19  N   UNL     1       2.957   4.129  19.614  0.00  0.00    +0.000 N 
ATOM     20  C   UNL     1       4.304   4.160  19.391  0.00  0.00    +0.000 A 
ATOM     21 CL   UNL     1       5.286   2.803  19.689  0.00  0.00    +0.000 Cl
ATOM     22  C   UNL     1       4.629   5.443  19.021  0.00  0.00    +0.000 A 
BRANCH  19  23
ATOM     23  C   UNL     1       2.188   3.116  20.336  0.00  0.00    +0.000 C 
BRANCH  23  24
ATOM     24  C   UNL     1       1.548   2.050  19.414  0.00  0.00    +0.000 C 
ATOM     25  C   UNL     1       0.240   2.540  18.785  0.00  0.00    +0.000 C 
ATOM     26  C   UNL     1       2.492   1.617  18.285  0.00  0.00    +0.000 C 
ENDBRANCH  23  24
ENDBRANCH  19  23
ENDBRANCH  15  22
ENDBRANCH   1  15
TORSDOF 4
ENDMDL
MODEL 5
REMARK VINA RESULT:      -6.6      3.215      6.826
REMARK  Name = 
REMARK  7 active torsions:
REMARK  status: ('A' for Active; 'I' for Inactive)
REMARK    1  A    between atoms: C_1  and  C_2
REMARK    2  A    between atoms: N_4  and  C_5
REMARK    3  A    between atoms: C_5  and  C_6
REMARK    4  A    between atoms: C_6  and  C_7
REMARK    5  A    between atoms: C_6  and  C_8
REMARK    6  A    between atoms: C_11  and  C_12
REMARK    7  A    between atoms: C_12  and  N_13
REMARK                            x       y       z     vdW  Elec       q    Type
REMARK                         _______ _______ _______ _____ _____    ______ ____
ROOT
ATOM      1  N   UNL     1       4.813   6.454  18.537  0.00  0.00    +0.000 NA
ATOM      2  C   UNL     1       3.458   6.883  18.282  0.00  0.00    +0.000 C 
ATOM      3  C   UNL     1       2.514   5.748  17.896  0.00  0.00    +0.000 C 
ATOM      4  C   UNL     1       2.636   4.503  18.770  0.00  0.00    +0.000 C 
ATOM      5  C   UNL     1       4.054   4.132  19.178  0.00  0.00    +0.000 C 
ATOM      6  C   UNL     1       5.016   5.296  19.383  0.00  0.00    +0.000 C 
ATOM      7  N   UNL     1       2.020   3.360  18.098  0.00  0.00    +0.000 N 
ATOM      8  C   UNL     1       0.916   2.877  18.753  0.00  0.00    +0.000 C 
ATOM      9  O   UNL     1       0.294   1.883  18.428  0.00  0.00    +0.000 OA
ATOM     10  N   UNL     1       0.680   3.666  19.819  0.00  0.00    +0.000 N 
ATOM     11  C   UNL     1       1.681   4.586  19.979  0.00  0.00    +0.000 C 
ATOM     12  O   UNL     1       1.777   5.344  20.921  0.00  0.00    +0.000 OA
ATOM     13  H   UNL     1       2.432   2.841  17.334  0.00  0.00    +0.000 HD
ATOM     14  H   UNL     1      -0.052   3.490  20.488  0.00  0.00    +0.000 HD
ENDROOT
BRANCH   1  15
ATOM     15  C   UNL     1       5.851   6.958  17.643  0.00  0.00    +0.000 C 
BRANCH  15  22
ATOM     16  C   UNL     1       7.908   4.487  18.043  0.00  0.00    +0.000 C 
ATOM     17  C   UNL     1       7.210   4.890  16.791  0.00  0.00    +0.000 A 
ATOM     18  N   UNL     1       7.484   4.282  15.622  0.00  0.00    +0.000 NA
ATOM     19  N   UNL     1       6.686   4.919  14.724  0.00  0.00    +0.000 N 
ATOM     20  C   UNL     1       5.827   5.786  15.337  0.00  0.00    +0.000 A 
ATOM     21 CL   UNL     1       4.584   6.564  14.474  0.00  0.00    +0.000 Cl
ATOM     22  C   UNL     1       6.249   5.932  16.637  0.00  0.00    +0.000 A 
BRANCH  19  23
ATOM     23  C   UNL     1       6.874   4.702  13.290  0.00  0.00    +0.000 C 
BRANCH  23  24
ATOM     24  C   UNL     1       6.193   3.414  12.765  0.00  0.00    +0.000 C 
ATOM     25  C   UNL     1       4.796   3.686  12.203  0.00  0.00    +0.000 C 
ATOM     26  C   UNL     1       7.023   2.721  11.677  0.00  0.00    +0.000 C 
ENDBRANCH  23  24
ENDBRANCH  19  23
ENDBRANCH  15  22
ENDBRANCH   1  15
TORSDOF 4
ENDMDL
MODEL 6
REMARK VINA RESULT:      -6.6      6.333      9.001
REMARK  Name = 
REMARK  7 active torsions:
REMARK  status: ('A' for Active; 'I' for Inactive)
REMARK    1  A    between atoms: C_1  and  C_2
REMARK    2  A    between atoms: N_4  and  C_5
REMARK    3  A    between atoms: C_5  and  C_6
REMARK    4  A    between atoms: C_6  and  C_7
REMARK    5  A    between atoms: C_6  and  C_8
REMARK    6  A    between atoms: C_11  and  C_12
REMARK    7  A    between atoms: C_12  and  N_13
REMARK                            x       y       z     vdW  Elec       q    Type
REMARK                         _______ _______ _______ _____ _____    ______ ____
ROOT
ATOM      1  N   UNL     1      -0.787  11.247  19.501  0.00  0.00    +0.000 NA
ATOM      2  C   UNL     1      -1.072  12.401  18.681  0.00  0.00    +0.000 C 
ATOM      3  C   UNL     1      -1.424  12.060  17.236  0.00  0.00    +0.000 C 
ATOM      4  C   UNL     1      -2.413  10.908  17.085  0.00  0.00    +0.000 C 
ATOM      5  C   UNL     1      -2.219   9.752  18.054  0.00  0.00    +0.000 C 
ATOM      6  C   UNL     1      -1.695  10.122  19.437  0.00  0.00    +0.000 C 
ATOM      7  N   UNL     1      -2.373  10.394  15.716  0.00  0.00    +0.000 N 
ATOM      8  C   UNL     1      -3.544  10.589  15.030  0.00  0.00    +0.000 C 
ATOM      9  O   UNL     1      -3.772  10.170  13.910  0.00  0.00    +0.000 OA
ATOM     10  N   UNL     1      -4.388  11.278  15.823  0.00  0.00    +0.000 N 
ATOM     11  C   UNL     1      -3.865  11.430  17.079  0.00  0.00    +0.000 C 
ATOM     12  O   UNL     1      -4.460  11.912  18.020  0.00  0.00    +0.000 OA
ATOM     13  H   UNL     1      -1.649   9.797  15.339  0.00  0.00    +0.000 HD
ATOM     14  H   UNL     1      -5.334  11.505  15.561  0.00  0.00    +0.000 HD
ENDROOT
BRANCH   1  15
ATOM     15  C   UNL     1       0.567  11.127  20.035  0.00  0.00    +0.000 C 
BRANCH  15  22
ATOM     16  C   UNL     1       0.359   9.353  22.737  0.00  0.00    +0.000 C 
ATOM     17  C   UNL     1       0.934   8.942  21.426  0.00  0.00    +0.000 A 
ATOM     18  N   UNL     1       1.553   7.756  21.286  0.00  0.00    +0.000 NA
ATOM     19  N   UNL     1       1.954   7.744  19.986  0.00  0.00    +0.000 N 
ATOM     20  C   UNL     1       1.463   8.815  19.296  0.00  0.00    +0.000 A 
ATOM     21 CL   UNL     1       1.641   8.944  17.609  0.00  0.00    +0.000 Cl
ATOM     22  C   UNL     1       0.956   9.700  20.218  0.00  0.00    +0.000 A 
BRANCH  19  23
ATOM     23  C   UNL     1       2.879   6.716  19.511  0.00  0.00    +0.000 C 
BRANCH  23  24
ATOM     24  C   UNL     1       2.180   5.551  18.767  0.00  0.00    +0.000 C 
ATOM     25  C   UNL     1       3.093   4.900  17.725  0.00  0.00    +0.000 C 
ATOM     26  C   UNL     1       1.691   4.460  19.728  0.00  0.00    +0.000 C 
ENDBRANCH  23  24
ENDBRANCH  19  23
ENDBRANCH  15  22
ENDBRANCH   1  15
TORSDOF 4
ENDMDL
MODEL 7
REMARK VINA RESULT:      -6.5      2.885      4.656
REMARK  Name = 
REMARK  7 active torsions:
REMARK  status: ('A' for Active; 'I' for Inactive)
REMARK    1  A    between atoms: C_1  and  C_2
REMARK    2  A    between atoms: N_4  and  C_5
REMARK    3  A    between atoms: C_5  and  C_6
REMARK    4  A    between atoms: C_6  and  C_7
REMARK    5  A    between atoms: C_6  and  C_8
REMARK    6  A    between atoms: C_11  and  C_12
REMARK    7  A    between atoms: C_12  and  N_13
REMARK                            x       y       z     vdW  Elec       q    Type
REMARK                         _______ _______ _______ _____ _____    ______ ____
ROOT
ATOM      1  N   UNL     1       4.180   3.598  17.957  0.00  0.00    +0.000 NA
ATOM      2  C   UNL     1       4.274   4.167  16.633  0.00  0.00    +0.000 C 
ATOM      3  C   UNL     1       4.812   5.594  16.612  0.00  0.00    +0.000 C 
ATOM      4  C   UNL     1       6.039   5.818  17.492  0.00  0.00    +0.000 C 
ATOM      5  C   UNL     1       6.021   5.092  18.829  0.00  0.00    +0.000 C 
ATOM      6  C   UNL     1       5.315   3.741  18.845  0.00  0.00    +0.000 C 
ATOM      7  N   UNL     1       6.226   7.249  17.730  0.00  0.00    +0.000 N 
ATOM      8  C   UNL     1       7.380   7.742  17.177  0.00  0.00    +0.000 C 
ATOM      9  O   UNL     1       7.787   8.881  17.318  0.00  0.00    +0.000 OA
ATOM     10  N   UNL     1       7.983   6.745  16.500  0.00  0.00    +0.000 N 
ATOM     11  C   UNL     1       7.336   5.556  16.700  0.00  0.00    +0.000 C 
ATOM     12  O   UNL     1       7.730   4.481  16.300  0.00  0.00    +0.000 OA
ATOM     13  H   UNL     1       5.685   7.808  18.375  0.00  0.00    +0.000 HD
ATOM     14  H   UNL     1       8.875   6.846  16.042  0.00  0.00    +0.000 HD
ENDROOT
BRANCH   1  15
ATOM     15  C   UNL     1       2.846   3.262  18.446  0.00  0.00    +0.000 C 
BRANCH  15  22
ATOM     16  C   UNL     1       2.503   2.617  21.602  0.00  0.00    +0.000 C 
ATOM     17  C   UNL     1       2.187   3.892  20.899  0.00  0.00    +0.000 A 
ATOM     18  N   UNL     1       1.590   4.908  21.548  0.00  0.00    +0.000 NA
ATOM     19  N   UNL     1       1.448   5.869  20.595  0.00  0.00    +0.000 N 
ATOM     20  C   UNL     1       2.078   5.527  19.434  0.00  0.00    +0.000 A 
ATOM     21 CL   UNL     1       2.232   6.629  18.147  0.00  0.00    +0.000 Cl
ATOM     22  C   UNL     1       2.410   4.196  19.523  0.00  0.00    +0.000 A 
BRANCH  19  23
ATOM     23  C   UNL     1       0.619   7.045  20.856  0.00  0.00    +0.000 C 
BRANCH  23  24
ATOM     24  C   UNL     1       1.425   8.365  20.940  0.00  0.00    +0.000 C 
ATOM     25  C   UNL     1       1.030   9.354  19.840  0.00  0.00    +0.000 C 
ATOM     26  C   UNL     1       1.259   9.061  22.296  0.00  0.00    +0.000 C 
ENDBRANCH  23  24
ENDBRANCH  19  23
ENDBRANCH  15  22
ENDBRANCH   1  15
TORSDOF 4
ENDMDL
MODEL 8
REMARK VINA RESULT:      -6.5      3.354      5.289
REMARK  Name = 
REMARK  7 active torsions:
REMARK  status: ('A' for Active; 'I' for Inactive)
REMARK    1  A    between atoms: C_1  and  C_2
REMARK    2  A    between atoms: N_4  and  C_5
REMARK    3  A    between atoms: C_5  and  C_6
REMARK    4  A    between atoms: C_6  and  C_7
REMARK    5  A    between atoms: C_6  and  C_8
REMARK    6  A    between atoms: C_11  and  C_12
REMARK    7  A    between atoms: C_12  and  N_13
REMARK                            x       y       z     vdW  Elec       q    Type
REMARK                         _______ _______ _______ _____ _____    ______ ____
ROOT
ATOM      1  N   UNL     1       3.250   5.157  17.495  0.00  0.00    +0.000 NA
ATOM      2  C   UNL     1       4.210   6.136  17.043  0.00  0.00    +0.000 C 
ATOM      3  C   UNL     1       5.399   6.314  17.983  0.00  0.00    +0.000 C 
ATOM      4  C   UNL     1       6.006   5.007  18.484  0.00  0.00    +0.000 C 
ATOM      5  C   UNL     1       5.005   3.909  18.814  0.00  0.00    +0.000 C 
ATOM      6  C   UNL     1       3.743   3.878  17.959  0.00  0.00    +0.000 C 
ATOM      7  N   UNL     1       6.836   5.262  19.661  0.00  0.00    +0.000 N 
ATOM      8  C   UNL     1       8.167   5.005  19.450  0.00  0.00    +0.000 C 
ATOM      9  O   UNL     1       9.030   5.063  20.306  0.00  0.00    +0.000 OA
ATOM     10  N   UNL     1       8.328   4.646  18.161  0.00  0.00    +0.000 N 
ATOM     11  C   UNL     1       7.118   4.519  17.533  0.00  0.00    +0.000 C 
ATOM     12  O   UNL     1       6.968   4.100  16.405  0.00  0.00    +0.000 OA
ATOM     13  H   UNL     1       6.488   5.436  20.594  0.00  0.00    +0.000 HD
ATOM     14  H   UNL     1       9.212   4.361  17.771  0.00  0.00    +0.000 HD
ENDROOT
BRANCH   1  15
ATOM     15  C   UNL     1       1.909   5.637  17.815  0.00  0.00    +0.000 C 
BRANCH  15  22
ATOM     16  C   UNL     1       1.828   4.712  20.918  0.00  0.00    +0.000 C 
ATOM     17  C   UNL     1       1.805   6.104  20.388  0.00  0.00    +0.000 A 
ATOM     18  N   UNL     1       1.627   7.153  21.211  0.00  0.00    +0.000 NA
ATOM     19  N   UNL     1       1.643   8.230  20.381  0.00  0.00    +0.000 N 
ATOM     20  C   UNL     1       1.980   7.879  19.105  0.00  0.00    +0.000 A 
ATOM     21 CL   UNL     1       2.271   9.052  17.908  0.00  0.00    +0.000 Cl
ATOM     22  C   UNL     1       1.917   6.508  19.025  0.00  0.00    +0.000 A 
BRANCH  19  23
ATOM     23  C   UNL     1       1.238   9.545  20.875  0.00  0.00    +0.000 C 
BRANCH  23  24
ATOM     24  C   UNL     1      -0.268   9.640  21.220  0.00  0.00    +0.000 C 
ATOM     25  C   UNL     1      -0.518   9.620  22.730  0.00  0.00    +0.000 C 
ATOM     26  C   UNL     1      -0.917  10.903  20.641  0.00  0.00    +0.000 C 
ENDBRANCH  23  24
ENDBRANCH  19  23
ENDBRANCH  15  22
ENDBRANCH   1  15
TORSDOF 4
ENDMDL
MODEL 9
REMARK VINA RESULT:      -6.5      4.516      8.042
REMARK  Name = 
REMARK  7 active torsions:
REMARK  status: ('A' for Active; 'I' for Inactive)
REMARK    1  A    between atoms: C_1  and  C_2
REMARK    2  A    between atoms: N_4  and  C_5
REMARK    3  A    between atoms: C_5  and  C_6
REMARK    4  A    between atoms: C_6  and  C_7
REMARK    5  A    between atoms: C_6  and  C_8
REMARK    6  A    between atoms: C_11  and  C_12
REMARK    7  A    between atoms: C_12  and  N_13
REMARK                            x       y       z     vdW  Elec       q    Type
REMARK                         _______ _______ _______ _____ _____    ______ ____
ROOT
ATOM      1  N   UNL     1       2.082   7.612  18.939  0.00  0.00    +0.000 NA
ATOM      2  C   UNL     1       1.173   7.980  19.999  0.00  0.00    +0.000 C 
ATOM      3  C   UNL     1       1.169   9.471  20.319  0.00  0.00    +0.000 C 
ATOM      4  C   UNL     1       1.121  10.378  19.092  0.00  0.00    +0.000 C 
ATOM      5  C   UNL     1       1.956   9.914  17.908  0.00  0.00    +0.000 C 
ATOM      6  C   UNL     1       2.078   8.405  17.728  0.00  0.00    +0.000 C 
ATOM      7  N   UNL     1       1.529  11.734  19.459  0.00  0.00    +0.000 N 
ATOM      8  C   UNL     1       0.521  12.655  19.332  0.00  0.00    +0.000 C 
ATOM      9  O   UNL     1       0.649  13.854  19.498  0.00  0.00    +0.000 OA
ATOM     10  N   UNL     1      -0.600  12.005  18.960  0.00  0.00    +0.000 N 
ATOM     11  C   UNL     1      -0.337  10.688  18.696  0.00  0.00    +0.000 C 
ATOM     12  O   UNL     1      -1.140   9.904  18.236  0.00  0.00    +0.000 OA
ATOM     13  H   UNL     1       2.481  12.033  19.620  0.00  0.00    +0.000 HD
ATOM     14  H   UNL     1      -1.469  12.472  18.756  0.00  0.00    +0.000 HD
ENDROOT
BRANCH   1  15
ATOM     15  C   UNL     1       3.192   6.730  19.290  0.00  0.00    +0.000 C 
BRANCH  15  22
ATOM     16  C   UNL     1       1.489   4.127  18.387  0.00  0.00    +0.000 C 
ATOM     17  C   UNL     1       2.793   4.591  17.837  0.00  0.00    +0.000 A 
ATOM     18  N   UNL     1       3.463   3.852  16.934  0.00  0.00    +0.000 NA
ATOM     19  N   UNL     1       4.590   4.573  16.689  0.00  0.00    +0.000 N 
ATOM     20  C   UNL     1       4.550   5.796  17.296  0.00  0.00    +0.000 A 
ATOM     21 CL   UNL     1       5.736   6.978  16.994  0.00  0.00    +0.000 Cl
ATOM     22  C   UNL     1       3.502   5.778  18.185  0.00  0.00    +0.000 A 
BRANCH  19  23
ATOM     23  C   UNL     1       5.693   3.980  15.935  0.00  0.00    +0.000 C 
BRANCH  23  24
ATOM     24  C   UNL     1       5.889   4.602  14.531  0.00  0.00    +0.000 C 
ATOM     25  C   UNL     1       7.323   5.088  14.308  0.00  0.00    +0.000 C 
ATOM     26  C   UNL     1       5.533   3.621  13.406  0.00  0.00    +0.000 C 
ENDBRANCH  23  24
ENDBRANCH  19  23
ENDBRANCH  15  22
ENDBRANCH   1  15
TORSDOF 4
ENDMDL
