MODEL 1
REMARK VINA RESULT:      -7.0      0.000      0.000
REMARK  Name = 
REMARK  6 active torsions:
REMARK  status: ('A' for Active; 'I' for Inactive)
REMARK    1  A    between atoms: C_1  and  C_2
REMARK    2  A    between atoms: C_2  and  O_3
REMARK    3  A    between atoms: O_3  and  C_4
REMARK    4  A    between atoms: C_4  and  C_6
REMARK    5  A    between atoms: C_7  and  N_8
REMARK    6  A    between atoms: C_11  and  C_12
REMARK                            x       y       z     vdW  Elec       q    Type
REMARK                         _______ _______ _______ _____ _____    ______ ____
ROOT
ATOM      1  N   UNL     1       4.463   4.799  17.521  0.00  0.00    +0.000 N 
ATOM      2  N   UNL     1       4.172   4.330  18.775  0.00  0.00    +0.000 NA
ATOM      3  N   UNL     1       3.497   5.291  19.387  0.00  0.00    +0.000 NA
ATOM      4  C   UNL     1       3.281   6.270  18.461  0.00  0.00    +0.000 A 
ATOM      5  N   UNL     1       3.824   5.983  17.273  0.00  0.00    +0.000 NA
ENDROOT
BRANCH   4   6
ATOM      6  C   UNL     1       2.489   7.466  18.716  0.00  0.00    +0.000 A 
ATOM      7  C   UNL     1       2.265   8.408  17.702  0.00  0.00    +0.000 A 
ATOM      8  C   UNL     1       1.526   9.567  17.963  0.00  0.00    +0.000 A 
ATOM      9  C   UNL     1       1.010   9.798  19.238  0.00  0.00    +0.000 A 
ATOM     10  C   UNL     1       1.226   8.864  20.249  0.00  0.00    +0.000 A 
ATOM     11  I   UNL     1       0.476   9.210  22.157  0.00  0.00    +0.000 I 
ATOM     12  C   UNL     1       1.954   7.702  19.993  0.00  0.00    +0.000 A 
ENDBRANCH   4   6
BRANCH   1  14
ATOM     13  C   UNL     1       6.540   4.223  16.352  0.00  0.00    +0.000 C 
ATOM     14  C   UNL     1       5.221   4.097  16.575  0.00  0.00    +0.000 C 
BRANCH  13  15
ATOM     15  C   UNL     1       7.407   4.906  17.334  0.00  0.00    +0.000 C 
ATOM     16  O   UNL     1       8.012   4.329  18.224  0.00  0.00    +0.000 OA
BRANCH  15  17
ATOM     17  O   UNL     1       7.444   6.224  17.043  0.00  0.00    +0.000 OA
BRANCH  17  19
ATOM     18  C   UNL     1       8.044   8.451  17.652  0.00  0.00    +0.000 C 
ATOM     19  C   UNL     1       7.689   7.073  18.176  0.00  0.00    +0.000 C 
ENDBRANCH  17  19
ENDBRANCH  15  17
ENDBRANCH  13  15
ENDBRANCH   1  14
TORSDOF 5
ENDMDL
MODEL 2
REMARK VINA RESULT:      -7.0      3.164      4.137
REMARK  Name = 
REMARK  6 active torsions:
REMARK  status: ('A' for Active; 'I' for Inactive)
REMARK    1  A    between atoms: C_1  and  C_2
REMARK    2  A    between atoms: C_2  and  O_3
REMARK    3  A    between atoms: O_3  and  C_4
REMARK    4  A    between atoms: C_4  and  C_6
REMARK    5  A    between atoms: C_7  and  N_8
REMARK    6  A    between atoms: C_11  and  C_12
REMARK                            x       y       z     vdW  Elec       q    Type
REMARK                         _______ _______ _______ _____ _____    ______ ____
ROOT
ATOM      1  N   UNL     1       3.615   4.332  18.108  0.00  0.00    +0.000 N 
ATOM      2  N   UNL     1       4.568   4.739  19.003  0.00  0.00    +0.000 NA
ATOM      3  N   UNL     1       4.280   5.994  19.314  0.00  0.00    +0.000 NA
ATOM      4  C   UNL     1       3.093   6.287  18.704  0.00  0.00    +0.000 A 
ATOM      5  N   UNL     1       2.621   5.265  17.983  0.00  0.00    +0.000 NA
ENDROOT
BRANCH   4   6
ATOM      6  C   UNL     1       2.386   7.548  18.874  0.00  0.00    +0.000 A 
ATOM      7  C   UNL     1       2.347   8.494  17.839  0.00  0.00    +0.000 A 
ATOM      8  C   UNL     1       1.688   9.715  18.020  0.00  0.00    +0.000 A 
ATOM      9  C   UNL     1       1.068  10.004  19.236  0.00  0.00    +0.000 A 
ATOM     10  C   UNL     1       1.101   9.068  20.267  0.00  0.00    +0.000 A 
ATOM     11  I   UNL     1       0.195   9.499  22.088  0.00  0.00    +0.000 I 
ATOM     12  C   UNL     1       1.747   7.844  20.090  0.00  0.00    +0.000 A 
ENDBRANCH   4   6
BRANCH   1  14
ATOM     13  C   UNL     1       2.853   2.015  17.851  0.00  0.00    +0.000 C 
ATOM     14  C   UNL     1       3.599   3.075  17.492  0.00  0.00    +0.000 C 
BRANCH  13  15
ATOM     15  C   UNL     1       1.704   2.181  18.765  0.00  0.00    +0.000 C 
ATOM     16  O   UNL     1       0.562   2.395  18.391  0.00  0.00    +0.000 OA
BRANCH  15  17
ATOM     17  O   UNL     1       2.127   2.005  20.036  0.00  0.00    +0.000 OA
BRANCH  17  19
ATOM     18  C   UNL     1       2.061   3.956  21.406  0.00  0.00    +0.000 C 
ATOM     19  C   UNL     1       1.333   2.683  21.022  0.00  0.00    +0.000 C 
ENDBRANCH  17  19
ENDBRANCH  15  17
ENDBRANCH  13  15
ENDBRANCH   1  14
TORSDOF 5
ENDMDL
MODEL 3
REMARK VINA RESULT:      -6.9      0.937      1.345
REMARK  Name = 
REMARK  6 active torsions:
REMARK  status: ('A' for Active; 'I' for Inactive)
REMARK    1  A    between atoms: C_1  and  C_2
REMARK    2  A    between atoms: C_2  and  O_3
REMARK    3  A    between atoms: O_3  and  C_4
REMARK    4  A    between atoms: C_4  and  C_6
REMARK    5  A    between atoms: C_7  and  N_8
REMARK    6  A    between atoms: C_11  and  C_12
REMARK                            x       y       z     vdW  Elec       q    Type
REMARK                         _______ _______ _______ _____ _____    ______ ____
ROOT
ATOM      1  N   UNL     1       4.155   4.613  17.800  0.00  0.00    +0.000 N 
ATOM      2  N   UNL     1       4.364   4.516  19.150  0.00  0.00    +0.000 NA
ATOM      3  N   UNL     1       3.820   5.595  19.692  0.00  0.00    +0.000 NA
ATOM      4  C   UNL     1       3.184   6.262  18.685  0.00  0.00    +0.000 A 
ATOM      5  N   UNL     1       3.327   5.660  17.499  0.00  0.00    +0.000 NA
ENDROOT
BRANCH   4   6
ATOM      6  C   UNL     1       2.382   7.461  18.888  0.00  0.00    +0.000 A 
ATOM      7  C   UNL     1       2.157   8.360  17.836  0.00  0.00    +0.000 A 
ATOM      8  C   UNL     1       1.409   9.523  18.046  0.00  0.00    +0.000 A 
ATOM      9  C   UNL     1       0.883   9.801  19.308  0.00  0.00    +0.000 A 
ATOM     10  C   UNL     1       1.101   8.910  20.358  0.00  0.00    +0.000 A 
ATOM     11  I   UNL     1       0.337   9.325  22.246  0.00  0.00    +0.000 I 
ATOM     12  C   UNL     1       1.838   7.743  20.152  0.00  0.00    +0.000 A 
ENDBRANCH   4   6
BRANCH   1  14
ATOM     13  C   UNL     1       5.573   3.907  15.927  0.00  0.00    +0.000 C 
ATOM     14  C   UNL     1       4.631   3.689  16.861  0.00  0.00    +0.000 C 
BRANCH  13  15
ATOM     15  C   UNL     1       6.455   5.089  16.013  0.00  0.00    +0.000 C 
ATOM     16  O   UNL     1       6.107   6.221  15.714  0.00  0.00    +0.000 OA
BRANCH  15  17
ATOM     17  O   UNL     1       7.650   4.708  16.513  0.00  0.00    +0.000 OA
BRANCH  17  19
ATOM     18  C   UNL     1       7.652   6.081  18.464  0.00  0.00    +0.000 C 
ATOM     19  C   UNL     1       7.701   4.656  17.947  0.00  0.00    +0.000 C 
ENDBRANCH  17  19
ENDBRANCH  15  17
ENDBRANCH  13  15
ENDBRANCH   1  14
TORSDOF 5
ENDMDL
MODEL 4
REMARK VINA RESULT:      -6.7      2.766      3.636
REMARK  Name = 
REMARK  6 active torsions:
REMARK  status: ('A' for Active; 'I' for Inactive)
REMARK    1  A    between atoms: C_1  and  C_2
REMARK    2  A    between atoms: C_2  and  O_3
REMARK    3  A    between atoms: O_3  and  C_4
REMARK    4  A    between atoms: C_4  and  C_6
REMARK    5  A    between atoms: C_7  and  N_8
REMARK    6  A    between atoms: C_11  and  C_12
REMARK                            x       y       z     vdW  Elec       q    Type
REMARK                         _______ _______ _______ _____ _____    ______ ____
ROOT
ATOM      1  N   UNL     1       3.431   4.521  17.733  0.00  0.00    +0.000 N 
ATOM      2  N   UNL     1       4.626   5.119  18.034  0.00  0.00    +0.000 NA
ATOM      3  N   UNL     1       4.352   6.384  18.315  0.00  0.00    +0.000 NA
ATOM      4  C   UNL     1       2.992   6.503  18.303  0.00  0.00    +0.000 A 
ATOM      5  N   UNL     1       2.379   5.356  17.993  0.00  0.00    +0.000 NA
ENDROOT
BRANCH   4   6
ATOM      6  C   UNL     1       2.284   7.726  18.655  0.00  0.00    +0.000 A 
ATOM      7  C   UNL     1       2.129   8.760  17.721  0.00  0.00    +0.000 A 
ATOM      8  C   UNL     1       1.471   9.942  18.076  0.00  0.00    +0.000 A 
ATOM      9  C   UNL     1       0.967  10.105  19.367  0.00  0.00    +0.000 A 
ATOM     10  C   UNL     1       1.116   9.080  20.299  0.00  0.00    +0.000 A 
ATOM     11  I   UNL     1       0.384   9.322  22.230  0.00  0.00    +0.000 I 
ATOM     12  C   UNL     1       1.762   7.895  19.949  0.00  0.00    +0.000 A 
ENDBRANCH   4   6
BRANCH   1  14
ATOM     13  C   UNL     1       3.583   2.094  18.055  0.00  0.00    +0.000 C 
ATOM     14  C   UNL     1       3.298   3.188  17.326  0.00  0.00    +0.000 C 
BRANCH  13  15
ATOM     15  C   UNL     1       3.767   2.194  19.517  0.00  0.00    +0.000 C 
ATOM     16  O   UNL     1       4.854   2.307  20.060  0.00  0.00    +0.000 OA
BRANCH  15  17
ATOM     17  O   UNL     1       2.554   2.191  20.112  0.00  0.00    +0.000 OA
BRANCH  17  19
ATOM     18  C   UNL     1       1.165   4.027  20.734  0.00  0.00    +0.000 C 
ATOM     19  C   UNL     1       2.383   3.208  21.112  0.00  0.00    +0.000 C 
ENDBRANCH  17  19
ENDBRANCH  15  17
ENDBRANCH  13  15
ENDBRANCH   1  14
TORSDOF 5
ENDMDL
MODEL 5
REMARK VINA RESULT:      -6.7      2.847      4.018
REMARK  Name = 
REMARK  6 active torsions:
REMARK  status: ('A' for Active; 'I' for Inactive)
REMARK    1  A    between atoms: C_1  and  C_2
REMARK    2  A    between atoms: C_2  and  O_3
REMARK    3  A    between atoms: O_3  and  C_4
REMARK    4  A    between atoms: C_4  and  C_6
REMARK    5  A    between atoms: C_7  and  N_8
REMARK    6  A    between atoms: C_11  and  C_12
REMARK                            x       y       z     vdW  Elec       q    Type
REMARK                         _______ _______ _______ _____ _____    ______ ____
ROOT
ATOM      1  N   UNL     1       4.256   4.750  18.779  0.00  0.00    +0.000 N 
ATOM      2  N   UNL     1       4.597   5.257  17.554  0.00  0.00    +0.000 NA
ATOM      3  N   UNL     1       3.873   6.354  17.387  0.00  0.00    +0.000 NA
ATOM      4  C   UNL     1       3.202   6.563  18.557  0.00  0.00    +0.000 A 
ATOM      5  N   UNL     1       3.449   5.615  19.467  0.00  0.00    +0.000 NA
ENDROOT
BRANCH   4   6
ATOM      6  C   UNL     1       2.364   7.726  18.813  0.00  0.00    +0.000 A 
ATOM      7  C   UNL     1       2.112   8.665  17.801  0.00  0.00    +0.000 A 
ATOM      8  C   UNL     1       1.327   9.794  18.062  0.00  0.00    +0.000 A 
ATOM      9  C   UNL     1       0.793   9.998  19.335  0.00  0.00    +0.000 A 
ATOM     10  C   UNL     1       1.037   9.067  20.343  0.00  0.00    +0.000 A 
ATOM     11  I   UNL     1       0.259   9.374  22.247  0.00  0.00    +0.000 I 
ATOM     12  C   UNL     1       1.810   7.935  20.087  0.00  0.00    +0.000 A 
ENDBRANCH   4   6
BRANCH   1  14
ATOM     13  C   UNL     1       4.100   2.395  19.446  0.00  0.00    +0.000 C 
ATOM     14  C   UNL     1       4.763   3.556  19.307  0.00  0.00    +0.000 C 
BRANCH  13  15
ATOM     15  C   UNL     1       2.823   2.171  18.738  0.00  0.00    +0.000 C 
ATOM     16  O   UNL     1       2.678   2.312  17.534  0.00  0.00    +0.000 OA
BRANCH  15  17
ATOM     17  O   UNL     1       1.899   1.745  19.626  0.00  0.00    +0.000 OA
BRANCH  17  19
ATOM     18  C   UNL     1       0.780   3.764  20.225  0.00  0.00    +0.000 C 
ATOM     19  C   UNL     1       1.674   2.645  20.723  0.00  0.00    +0.000 C 
ENDBRANCH  17  19
ENDBRANCH  15  17
ENDBRANCH  13  15
ENDBRANCH   1  14
TORSDOF 5
ENDMDL
MODEL 6
REMARK VINA RESULT:      -6.4      4.731      7.092
REMARK  Name = 
REMARK  6 active torsions:
REMARK  status: ('A' for Active; 'I' for Inactive)
REMARK    1  A    between atoms: C_1  and  C_2
REMARK    2  A    between atoms: C_2  and  O_3
REMARK    3  A    between atoms: O_3  and  C_4
REMARK    4  A    between atoms: C_4  and  C_6
REMARK    5  A    between atoms: C_7  and  N_8
REMARK    6  A    between atoms: C_11  and  C_12
REMARK                            x       y       z     vdW  Elec       q    Type
REMARK                         _______ _______ _______ _____ _____    ______ ____
ROOT
ATOM      1  N   UNL     1       6.100   5.082  18.099  0.00  0.00    +0.000 N 
ATOM      2  N   UNL     1       7.398   4.676  18.260  0.00  0.00    +0.000 NA
ATOM      3  N   UNL     1       7.857   4.398  17.049  0.00  0.00    +0.000 NA
ATOM      4  C   UNL     1       6.878   4.757  16.167  0.00  0.00    +0.000 A 
ATOM      5  N   UNL     1       5.787   5.232  16.776  0.00  0.00    +0.000 NA
ENDROOT
BRANCH   4   6
ATOM      6  C   UNL     1       7.030   4.694  14.720  0.00  0.00    +0.000 A 
ATOM      7  C   UNL     1       8.016   5.449  14.068  0.00  0.00    +0.000 A 
ATOM      8  C   UNL     1       8.137   5.405  12.675  0.00  0.00    +0.000 A 
ATOM      9  C   UNL     1       7.273   4.610  11.921  0.00  0.00    +0.000 A 
ATOM     10  C   UNL     1       6.293   3.854  12.562  0.00  0.00    +0.000 A 
ATOM     11  I   UNL     1       4.991   2.682  11.444  0.00  0.00    +0.000 I 
ATOM     12  C   UNL     1       6.174   3.887  13.952  0.00  0.00    +0.000 A 
ENDBRANCH   4   6
BRANCH   1  14
ATOM     13  C   UNL     1       4.268   4.645  19.670  0.00  0.00    +0.000 C 
ATOM     14  C   UNL     1       5.243   5.415  19.156  0.00  0.00    +0.000 C 
BRANCH  13  15
ATOM     15  C   UNL     1       4.216   3.200  19.370  0.00  0.00    +0.000 C 
ATOM     16  O   UNL     1       4.825   2.351  20.002  0.00  0.00    +0.000 OA
BRANCH  15  17
ATOM     17  O   UNL     1       3.362   2.996  18.344  0.00  0.00    +0.000 OA
BRANCH  17  19
ATOM     18  C   UNL     1       1.174   2.525  19.170  0.00  0.00    +0.000 C 
ATOM     19  C   UNL     1       2.426   1.927  18.557  0.00  0.00    +0.000 C 
ENDBRANCH  17  19
ENDBRANCH  15  17
ENDBRANCH  13  15
ENDBRANCH   1  14
TORSDOF 5
ENDMDL
MODEL 7
REMARK VINA RESULT:      -6.3      4.140      5.471
REMARK  Name = 
REMARK  6 active torsions:
REMARK  status: ('A' for Active; 'I' for Inactive)
REMARK    1  A    between atoms: C_1  and  C_2
REMARK    2  A    between atoms: C_2  and  O_3
REMARK    3  A    between atoms: O_3  and  C_4
REMARK    4  A    between atoms: C_4  and  C_6
REMARK    5  A    between atoms: C_7  and  N_8
REMARK    6  A    between atoms: C_11  and  C_12
REMARK                            x       y       z     vdW  Elec       q    Type
REMARK                         _______ _______ _______ _____ _____    ______ ____
ROOT
ATOM      1  N   UNL     1       6.824   4.933  14.374  0.00  0.00    +0.000 N 
ATOM      2  N   UNL     1       7.534   4.398  15.416  0.00  0.00    +0.000 NA
ATOM      3  N   UNL     1       6.771   4.521  16.492  0.00  0.00    +0.000 NA
ATOM      4  C   UNL     1       5.570   5.010  16.068  0.00  0.00    +0.000 A 
ATOM      5  N   UNL     1       5.543   5.235  14.750  0.00  0.00    +0.000 NA
ENDROOT
BRANCH   4   6
ATOM      6  C   UNL     1       4.420   5.202  16.941  0.00  0.00    +0.000 A 
ATOM      7  C   UNL     1       4.091   6.477  17.423  0.00  0.00    +0.000 A 
ATOM      8  C   UNL     1       3.001   6.649  18.284  0.00  0.00    +0.000 A 
ATOM      9  C   UNL     1       2.236   5.550  18.675  0.00  0.00    +0.000 A 
ATOM     10  C   UNL     1       2.556   4.281  18.198  0.00  0.00    +0.000 A 
ATOM     11  I   UNL     1       1.432   2.636  18.790  0.00  0.00    +0.000 I 
ATOM     12  C   UNL     1       3.635   4.104  17.331  0.00  0.00    +0.000 A 
ENDBRANCH   4   6
BRANCH   1  14
ATOM     13  C   UNL     1       7.050   4.215  12.040  0.00  0.00    +0.000 C 
ATOM     14  C   UNL     1       7.309   5.045  13.065  0.00  0.00    +0.000 C 
BRANCH  13  15
ATOM     15  C   UNL     1       5.934   3.250  12.119  0.00  0.00    +0.000 C 
ATOM     16  O   UNL     1       6.064   2.085  12.459  0.00  0.00    +0.000 OA
BRANCH  15  17
ATOM     17  O   UNL     1       4.783   3.886  11.809  0.00  0.00    +0.000 OA
BRANCH  17  19
ATOM     18  C   UNL     1       3.223   3.991  10.007  0.00  0.00    +0.000 C 
ATOM     19  C   UNL     1       3.855   3.092  11.053  0.00  0.00    +0.000 C 
ENDBRANCH  17  19
ENDBRANCH  15  17
ENDBRANCH  13  15
ENDBRANCH   1  14
TORSDOF 5
ENDMDL
MODEL 8
REMARK VINA RESULT:      -6.3      3.097      4.451
REMARK  Name = 
REMARK  6 active torsions:
REMARK  status: ('A' for Active; 'I' for Inactive)
REMARK    1  A    between atoms: C_1  and  C_2
REMARK    2  A    between atoms: C_2  and  O_3
REMARK    3  A    between atoms: O_3  and  C_4
REMARK    4  A    between atoms: C_4  and  C_6
REMARK    5  A    between atoms: C_7  and  N_8
REMARK    6  A    between atoms: C_11  and  C_12
REMARK                            x       y       z     vdW  Elec       q    Type
REMARK                         _______ _______ _______ _____ _____    ______ ____
ROOT
ATOM      1  N   UNL     1       3.734   5.679  18.524  0.00  0.00    +0.000 N 
ATOM      2  N   UNL     1       3.882   6.611  17.532  0.00  0.00    +0.000 NA
ATOM      3  N   UNL     1       3.063   7.609  17.829  0.00  0.00    +0.000 NA
ATOM      4  C   UNL     1       2.527   7.325  19.053  0.00  0.00    +0.000 A 
ATOM      5  N   UNL     1       2.955   6.157  19.542  0.00  0.00    +0.000 NA
ENDROOT
BRANCH   4   6
ATOM      6  C   UNL     1       1.641   8.225  19.777  0.00  0.00    +0.000 A 
ATOM      7  C   UNL     1       1.330   7.996  21.125  0.00  0.00    +0.000 A 
ATOM      8  C   UNL     1       0.456   8.850  21.806  0.00  0.00    +0.000 A 
ATOM      9  C   UNL     1      -0.120   9.937  21.146  0.00  0.00    +0.000 A 
ATOM     10  C   UNL     1       0.187  10.172  19.807  0.00  0.00    +0.000 A 
ATOM     11  I   UNL     1      -0.680  11.778  18.812  0.00  0.00    +0.000 I 
ATOM     12  C   UNL     1       1.066   9.330  19.125  0.00  0.00    +0.000 A 
ENDBRANCH   4   6
BRANCH   1  14
ATOM     13  C   UNL     1       3.819   3.228  18.487  0.00  0.00    +0.000 C 
ATOM     14  C   UNL     1       4.392   4.443  18.547  0.00  0.00    +0.000 C 
BRANCH  13  15
ATOM     15  C   UNL     1       2.413   3.082  18.056  0.00  0.00    +0.000 C 
ATOM     16  O   UNL     1       1.982   3.491  16.989  0.00  0.00    +0.000 OA
BRANCH  15  17
ATOM     17  O   UNL     1       1.735   2.392  18.998  0.00  0.00    +0.000 OA
BRANCH  17  19
ATOM     18  C   UNL     1       1.366   2.846  21.311  0.00  0.00    +0.000 C 
ATOM     19  C   UNL     1       0.968   3.211  19.894  0.00  0.00    +0.000 C 
ENDBRANCH  17  19
ENDBRANCH  15  17
ENDBRANCH  13  15
ENDBRANCH   1  14
TORSDOF 5
ENDMDL
MODEL 9
REMARK VINA RESULT:      -6.2      3.484      4.615
REMARK  Name = 
REMARK  6 active torsions:
REMARK  status: ('A' for Active; 'I' for Inactive)
REMARK    1  A    between atoms: C_1  and  C_2
REMARK    2  A    between atoms: C_2  and  O_3
REMARK    3  A    between atoms: O_3  and  C_4
REMARK    4  A    between atoms: C_4  and  C_6
REMARK    5  A    between atoms: C_7  and  N_8
REMARK    6  A    between atoms: C_11  and  C_12
REMARK                            x       y       z     vdW  Elec       q    Type
REMARK                         _______ _______ _______ _____ _____    ______ ____
ROOT
ATOM      1  N   UNL     1       2.442   4.767  20.776  0.00  0.00    +0.000 N 
ATOM      2  N   UNL     1       3.653   4.969  20.170  0.00  0.00    +0.000 NA
ATOM      3  N   UNL     1       3.562   6.124  19.527  0.00  0.00    +0.000 NA
ATOM      4  C   UNL     1       2.350   6.661  19.854  0.00  0.00    +0.000 A 
ATOM      5  N   UNL     1       1.641   5.872  20.667  0.00  0.00    +0.000 NA
ENDROOT
BRANCH   4   6
ATOM      6  C   UNL     1       1.905   7.978  19.420  0.00  0.00    +0.000 A 
ATOM      7  C   UNL     1       2.211   8.451  18.135  0.00  0.00    +0.000 A 
ATOM      8  C   UNL     1       1.804   9.729  17.736  0.00  0.00    +0.000 A 
ATOM      9  C   UNL     1       1.093  10.546  18.616  0.00  0.00    +0.000 A 
ATOM     10  C   UNL     1       0.784  10.080  19.893  0.00  0.00    +0.000 A 
ATOM     11  I   UNL     1      -0.259  11.299  21.216  0.00  0.00    +0.000 I 
ATOM     12  C   UNL     1       1.178   8.804  20.294  0.00  0.00    +0.000 A 
ENDBRANCH   4   6
BRANCH   1  14
ATOM     13  C   UNL     1       1.440   2.548  21.068  0.00  0.00    +0.000 C 
ATOM     14  C   UNL     1       2.112   3.623  21.514  0.00  0.00    +0.000 C 
BRANCH  13  15
ATOM     15  C   UNL     1       1.257   2.325  19.619  0.00  0.00    +0.000 C 
ATOM     16  O   UNL     1       0.210   2.531  19.025  0.00  0.00    +0.000 OA
BRANCH  15  17
ATOM     17  O   UNL     1       2.430   1.917  19.087  0.00  0.00    +0.000 OA
BRANCH  17  19
ATOM     18  C   UNL     1       2.458   3.530  17.330  0.00  0.00    +0.000 C 
ATOM     19  C   UNL     1       2.509   2.051  17.659  0.00  0.00    +0.000 C 
ENDBRANCH  17  19
ENDBRANCH  15  17
ENDBRANCH  13  15
ENDBRANCH   1  14
TORSDOF 5
ENDMDL
