MODEL 1
REMARK VINA RESULT:      -6.8      0.000      0.000
REMARK  Name = 
REMARK  13 active torsions:
REMARK  status: ('A' for Active; 'I' for Inactive)
REMARK    1  A    between atoms: C_1  and  C_2
REMARK    2  A    between atoms: C_2  and  C_3
REMARK    3  A    between atoms: C_3  and  C_4
REMARK    4  A    between atoms: C_4  and  C_5
REMARK    5  A    between atoms: C_5  and  C_6
REMARK    6  A    between atoms: C_6  and  C_7
REMARK    7  A    between atoms: C_11  and  C_12
REMARK    8  A    between atoms: C_12  and  C_13
REMARK    9  A    between atoms: C_13  and  C_14
REMARK   10  A    between atoms: C_13  and  O_15
REMARK   11  A    between atoms: O_15  and  C_16
REMARK   12  A    between atoms: C_16  and  C_18
REMARK   13  A    between atoms: C_18  and  N_19
REMARK                            x       y       z     vdW  Elec       q    Type
REMARK                         _______ _______ _______ _____ _____    ______ ____
ROOT
ATOM      1  C   UNL     1       6.425   4.634  13.296  0.00  0.00    +0.000 C 
ATOM      2  C   UNL     1       7.711   5.416  13.647  0.00  0.00    +0.000 C 
ATOM      3  O   UNL     1       8.616   5.958  13.059  0.00  0.00    +0.000 OA
ATOM      4  O   UNL     1       7.507   5.331  14.987  0.00  0.00    +0.000 OA
ATOM      5  C   UNL     1       6.406   4.391  14.823  0.00  0.00    +0.000 C 
ENDROOT
BRANCH   1   6
ATOM      6  C   UNL     1       6.640   3.440  12.378  0.00  0.00    +0.000 C 
BRANCH   6   7
ATOM      7  C   UNL     1       5.300   2.833  11.954  0.00  0.00    +0.000 C 
BRANCH   7   8
ATOM      8  C   UNL     1       4.402   3.885  11.297  0.00  0.00    +0.000 C 
BRANCH   8   9
ATOM      9  C   UNL     1       3.224   3.245  10.561  0.00  0.00    +0.000 C 
BRANCH   9  11
ATOM     10  C   UNL     1       2.174   5.034   9.124  0.00  0.00    +0.000 C 
ATOM     11  C   UNL     1       3.076   3.810   9.147  0.00  0.00    +0.000 C 
ENDBRANCH   9  11
ENDBRANCH   8   9
ENDBRANCH   7   8
ENDBRANCH   6   7
ENDBRANCH   1   6
BRANCH   5  12
ATOM     12  C   UNL     1       5.170   4.817  15.607  0.00  0.00    +0.000 C 
BRANCH  12  13
ATOM     13  C   UNL     1       4.911   3.854  16.773  0.00  0.00    +0.000 C 
ATOM     14  C   UNL     1       5.616   4.332  18.041  0.00  0.00    +0.000 C 
BRANCH  13  15
ATOM     15  O   UNL     1       3.494   3.832  17.027  0.00  0.00    +0.000 OA
BRANCH  15  16
ATOM     16  C   UNL     1       3.008   2.761  17.718  0.00  0.00    +0.000 C 
ATOM     17  O   UNL     1       3.621   1.729  17.959  0.00  0.00    +0.000 OA
BRANCH  16  18
ATOM     18  C   UNL     1       1.611   3.048  18.248  0.00  0.00    +0.000 C 
BRANCH  18  19
ATOM     19  N   UNL     1       1.619   4.215  19.109  0.00  0.00    +0.000 N 
ATOM     20  C   UNL     1       1.298   4.104  20.434  0.00  0.00    +0.000 C 
ATOM     21  O   UNL     1       1.063   3.056  21.022  0.00  0.00    +0.000 OA
ATOM     22  H   UNL     1       1.642   5.134  18.683  0.00  0.00    +0.000 HD
ENDBRANCH  18  19
ENDBRANCH  16  18
ENDBRANCH  15  16
ENDBRANCH  13  15
ENDBRANCH  12  13
ENDBRANCH   5  12
TORSDOF 11
ENDMDL
MODEL 2
REMARK VINA RESULT:      -6.7      2.817      7.204
REMARK  Name = 
REMARK  13 active torsions:
REMARK  status: ('A' for Active; 'I' for Inactive)
REMARK    1  A    between atoms: C_1  and  C_2
REMARK    2  A    between atoms: C_2  and  C_3
REMARK    3  A    between atoms: C_3  and  C_4
REMARK    4  A    between atoms: C_4  and  C_5
REMARK    5  A    between atoms: C_5  and  C_6
REMARK    6  A    between atoms: C_6  and  C_7
REMARK    7  A    between atoms: C_11  and  C_12
REMARK    8  A    between atoms: C_12  and  C_13
REMARK    9  A    between atoms: C_13  and  C_14
REMARK   10  A    between atoms: C_13  and  O_15
REMARK   11  A    between atoms: O_15  and  C_16
REMARK   12  A    between atoms: C_16  and  C_18
REMARK   13  A    between atoms: C_18  and  N_19
REMARK                            x       y       z     vdW  Elec       q    Type
REMARK                         _______ _______ _______ _____ _____    ______ ____
ROOT
ATOM      1  C   UNL     1       4.876   4.426  18.003  0.00  0.00    +0.000 C 
ATOM      2  C   UNL     1       4.828   3.487  19.230  0.00  0.00    +0.000 C 
ATOM      3  O   UNL     1       4.295   2.448  19.539  0.00  0.00    +0.000 OA
ATOM      4  O   UNL     1       5.682   4.249  19.961  0.00  0.00    +0.000 OA
ATOM      5  C   UNL     1       5.645   5.334  18.991  0.00  0.00    +0.000 C 
ENDROOT
BRANCH   1   6
ATOM      6  C   UNL     1       3.514   4.891  17.506  0.00  0.00    +0.000 C 
BRANCH   6   7
ATOM      7  C   UNL     1       2.573   3.701  17.309  0.00  0.00    +0.000 C 
BRANCH   7   8
ATOM      8  C   UNL     1       1.258   3.906  18.067  0.00  0.00    +0.000 C 
BRANCH   8   9
ATOM      9  C   UNL     1       0.923   2.709  18.957  0.00  0.00    +0.000 C 
BRANCH   9  11
ATOM     10  C   UNL     1       1.553   4.454  20.668  0.00  0.00    +0.000 C 
ATOM     11  C   UNL     1       0.899   3.100  20.436  0.00  0.00    +0.000 C 
ENDBRANCH   9  11
ENDBRANCH   8   9
ENDBRANCH   7   8
ENDBRANCH   6   7
ENDBRANCH   1   6
BRANCH   5  12
ATOM     12  C   UNL     1       7.044   5.800  18.603  0.00  0.00    +0.000 C 
BRANCH  12  13
ATOM     13  C   UNL     1       6.980   6.764  17.410  0.00  0.00    +0.000 C 
ATOM     14  C   UNL     1       7.837   8.002  17.663  0.00  0.00    +0.000 C 
BRANCH  13  15
ATOM     15  O   UNL     1       7.504   6.082  16.256  0.00  0.00    +0.000 OA
BRANCH  15  16
ATOM     16  C   UNL     1       6.610   5.727  15.290  0.00  0.00    +0.000 C 
ATOM     17  O   UNL     1       5.523   6.255  15.094  0.00  0.00    +0.000 OA
BRANCH  16  18
ATOM     18  C   UNL     1       7.178   4.630  14.403  0.00  0.00    +0.000 C 
BRANCH  18  19
ATOM     19  N   UNL     1       6.122   3.760  13.922  0.00  0.00    +0.000 N 
ATOM     20  C   UNL     1       6.073   3.386  12.608  0.00  0.00    +0.000 C 
ATOM     21  O   UNL     1       6.912   3.662  11.759  0.00  0.00    +0.000 OA
ATOM     22  H   UNL     1       5.307   3.616  14.506  0.00  0.00    +0.000 HD
ENDBRANCH  18  19
ENDBRANCH  16  18
ENDBRANCH  15  16
ENDBRANCH  13  15
ENDBRANCH  12  13
ENDBRANCH   5  12
TORSDOF 11
ENDMDL
MODEL 3
REMARK VINA RESULT:      -6.7      3.566      7.706
REMARK  Name = 
REMARK  13 active torsions:
REMARK  status: ('A' for Active; 'I' for Inactive)
REMARK    1  A    between atoms: C_1  and  C_2
REMARK    2  A    between atoms: C_2  and  C_3
REMARK    3  A    between atoms: C_3  and  C_4
REMARK    4  A    between atoms: C_4  and  C_5
REMARK    5  A    between atoms: C_5  and  C_6
REMARK    6  A    between atoms: C_6  and  C_7
REMARK    7  A    between atoms: C_11  and  C_12
REMARK    8  A    between atoms: C_12  and  C_13
REMARK    9  A    between atoms: C_13  and  C_14
REMARK   10  A    between atoms: C_13  and  O_15
REMARK   11  A    between atoms: O_15  and  C_16
REMARK   12  A    between atoms: C_16  and  C_18
REMARK   13  A    between atoms: C_18  and  N_19
REMARK                            x       y       z     vdW  Elec       q    Type
REMARK                         _______ _______ _______ _____ _____    ______ ____
ROOT
ATOM      1  C   UNL     1       1.927   3.514  20.109  0.00  0.00    +0.000 C 
ATOM      2  C   UNL     1       2.163   2.736  21.423  0.00  0.00    +0.000 C 
ATOM      3  O   UNL     1       1.550   2.478  22.431  0.00  0.00    +0.000 OA
ATOM      4  O   UNL     1       3.420   2.356  21.079  0.00  0.00    +0.000 OA
ATOM      5  C   UNL     1       3.435   3.230  19.914  0.00  0.00    +0.000 C 
ENDROOT
BRANCH   1   6
ATOM      6  C   UNL     1       1.483   4.958  20.297  0.00  0.00    +0.000 C 
BRANCH   6   7
ATOM      7  C   UNL     1       2.659   5.917  20.096  0.00  0.00    +0.000 C 
BRANCH   7   8
ATOM      8  C   UNL     1       2.173   7.295  19.637  0.00  0.00    +0.000 C 
BRANCH   8   9
ATOM      9  C   UNL     1       2.453   7.530  18.152  0.00  0.00    +0.000 C 
BRANCH   9  11
ATOM     10  C   UNL     1       0.890   9.510  18.106  0.00  0.00    +0.000 C 
ATOM     11  C   UNL     1       2.286   9.003  17.777  0.00  0.00    +0.000 C 
ENDBRANCH   9  11
ENDBRANCH   8   9
ENDBRANCH   7   8
ENDBRANCH   6   7
ENDBRANCH   1   6
BRANCH   5  12
ATOM     12  C   UNL     1       3.873   2.494  18.653  0.00  0.00    +0.000 C 
BRANCH  12  13
ATOM     13  C   UNL     1       4.577   3.453  17.685  0.00  0.00    +0.000 C 
ATOM     14  C   UNL     1       3.561   4.218  16.839  0.00  0.00    +0.000 C 
BRANCH  13  15
ATOM     15  O   UNL     1       5.323   4.407  18.464  0.00  0.00    +0.000 OA
BRANCH  15  16
ATOM     16  C   UNL     1       6.055   5.329  17.776  0.00  0.00    +0.000 C 
ATOM     17  O   UNL     1       5.887   6.541  17.805  0.00  0.00    +0.000 OA
BRANCH  16  18
ATOM     18  C   UNL     1       7.194   4.660  17.021  0.00  0.00    +0.000 C 
BRANCH  18  19
ATOM     19  N   UNL     1       7.413   5.309  15.743  0.00  0.00    +0.000 N 
ATOM     20  C   UNL     1       6.940   4.749  14.588  0.00  0.00    +0.000 C 
ATOM     21  O   UNL     1       6.251   3.739  14.519  0.00  0.00    +0.000 OA
ATOM     22  H   UNL     1       8.101   6.050  15.685  0.00  0.00    +0.000 HD
ENDBRANCH  18  19
ENDBRANCH  16  18
ENDBRANCH  15  16
ENDBRANCH  13  15
ENDBRANCH  12  13
ENDBRANCH   5  12
TORSDOF 11
ENDMDL
MODEL 4
REMARK VINA RESULT:      -6.5      4.616      6.738
REMARK  Name = 
REMARK  13 active torsions:
REMARK  status: ('A' for Active; 'I' for Inactive)
REMARK    1  A    between atoms: C_1  and  C_2
REMARK    2  A    between atoms: C_2  and  C_3
REMARK    3  A    between atoms: C_3  and  C_4
REMARK    4  A    between atoms: C_4  and  C_5
REMARK    5  A    between atoms: C_5  and  C_6
REMARK    6  A    between atoms: C_6  and  C_7
REMARK    7  A    between atoms: C_11  and  C_12
REMARK    8  A    between atoms: C_12  and  C_13
REMARK    9  A    between atoms: C_13  and  C_14
REMARK   10  A    between atoms: C_13  and  O_15
REMARK   11  A    between atoms: O_15  and  C_16
REMARK   12  A    between atoms: C_16  and  C_18
REMARK   13  A    between atoms: C_18  and  N_19
REMARK                            x       y       z     vdW  Elec       q    Type
REMARK                         _______ _______ _______ _____ _____    ______ ____
ROOT
ATOM      1  C   UNL     1       6.870   6.139  18.227  0.00  0.00    +0.000 C 
ATOM      2  C   UNL     1       7.062   4.826  17.434  0.00  0.00    +0.000 C 
ATOM      3  O   UNL     1       7.975   4.200  16.951  0.00  0.00    +0.000 OA
ATOM      4  O   UNL     1       5.740   4.519  17.446  0.00  0.00    +0.000 OA
ATOM      5  C   UNL     1       5.376   5.822  17.985  0.00  0.00    +0.000 C 
ENDROOT
BRANCH   1   6
ATOM      6  C   UNL     1       7.463   7.374  17.564  0.00  0.00    +0.000 C 
BRANCH   6   7
ATOM      7  C   UNL     1       8.438   8.082  18.507  0.00  0.00    +0.000 C 
BRANCH   7   8
ATOM      8  C   UNL     1       8.610   9.553  18.120  0.00  0.00    +0.000 C 
BRANCH   8   9
ATOM      9  C   UNL     1       9.265  10.362  19.240  0.00  0.00    +0.000 C 
BRANCH   9  11
ATOM     10  C   UNL     1      10.692  11.803  17.739  0.00  0.00    +0.000 C 
ATOM     11  C   UNL     1       9.589  11.787  18.785  0.00  0.00    +0.000 C 
ENDBRANCH   9  11
ENDBRANCH   8   9
ENDBRANCH   7   8
ENDBRANCH   6   7
ENDBRANCH   1   6
BRANCH   5  12
ATOM     12  C   UNL     1       4.458   5.703  19.196  0.00  0.00    +0.000 C 
BRANCH  12  13
ATOM     13  C   UNL     1       3.026   6.118  18.831  0.00  0.00    +0.000 C 
ATOM     14  C   UNL     1       3.030   7.296  17.860  0.00  0.00    +0.000 C 
BRANCH  13  15
ATOM     15  O   UNL     1       2.390   5.001  18.181  0.00  0.00    +0.000 OA
BRANCH  15  16
ATOM     16  C   UNL     1       1.828   4.057  18.989  0.00  0.00    +0.000 C 
ATOM     17  O   UNL     1       1.110   4.278  19.955  0.00  0.00    +0.000 OA
BRANCH  16  18
ATOM     18  C   UNL     1       2.132   2.657  18.476  0.00  0.00    +0.000 C 
BRANCH  18  19
ATOM     19  N   UNL     1       3.559   2.399  18.504  0.00  0.00    +0.000 N 
ATOM     20  C   UNL     1       4.215   2.243  19.694  0.00  0.00    +0.000 C 
ATOM     21  O   UNL     1       3.686   2.224  20.799  0.00  0.00    +0.000 OA
ATOM     22  H   UNL     1       4.099   2.557  17.661  0.00  0.00    +0.000 HD
ENDBRANCH  18  19
ENDBRANCH  16  18
ENDBRANCH  15  16
ENDBRANCH  13  15
ENDBRANCH  12  13
ENDBRANCH   5  12
TORSDOF 11
ENDMDL
MODEL 5
REMARK VINA RESULT:      -6.5      1.771      2.680
REMARK  Name = 
REMARK  13 active torsions:
REMARK  status: ('A' for Active; 'I' for Inactive)
REMARK    1  A    between atoms: C_1  and  C_2
REMARK    2  A    between atoms: C_2  and  C_3
REMARK    3  A    between atoms: C_3  and  C_4
REMARK    4  A    between atoms: C_4  and  C_5
REMARK    5  A    between atoms: C_5  and  C_6
REMARK    6  A    between atoms: C_6  and  C_7
REMARK    7  A    between atoms: C_11  and  C_12
REMARK    8  A    between atoms: C_12  and  C_13
REMARK    9  A    between atoms: C_13  and  C_14
REMARK   10  A    between atoms: C_13  and  O_15
REMARK   11  A    between atoms: O_15  and  C_16
REMARK   12  A    between atoms: C_16  and  C_18
REMARK   13  A    between atoms: C_18  and  N_19
REMARK                            x       y       z     vdW  Elec       q    Type
REMARK                         _______ _______ _______ _____ _____    ______ ____
ROOT
ATOM      1  C   UNL     1       6.438   5.405  16.262  0.00  0.00    +0.000 C 
ATOM      2  C   UNL     1       7.133   4.526  17.326  0.00  0.00    +0.000 C 
ATOM      3  O   UNL     1       8.258   4.190  17.612  0.00  0.00    +0.000 OA
ATOM      4  O   UNL     1       5.972   4.203  17.950  0.00  0.00    +0.000 OA
ATOM      5  C   UNL     1       5.164   4.795  16.892  0.00  0.00    +0.000 C 
ENDROOT
BRANCH   1   6
ATOM      6  C   UNL     1       6.774   5.043  14.822  0.00  0.00    +0.000 C 
BRANCH   6   7
ATOM      7  C   UNL     1       5.583   4.367  14.140  0.00  0.00    +0.000 C 
BRANCH   7   8
ATOM      8  C   UNL     1       6.042   3.206  13.253  0.00  0.00    +0.000 C 
BRANCH   8   9
ATOM      9  C   UNL     1       5.732   3.462  11.777  0.00  0.00    +0.000 C 
BRANCH   9  11
ATOM     10  C   UNL     1       3.561   3.756  10.526  0.00  0.00    +0.000 C 
ATOM     11  C   UNL     1       4.411   2.812  11.362  0.00  0.00    +0.000 C 
ENDBRANCH   9  11
ENDBRANCH   8   9
ENDBRANCH   7   8
ENDBRANCH   6   7
ENDBRANCH   1   6
BRANCH   5  12
ATOM     12  C   UNL     1       4.108   5.745  17.445  0.00  0.00    +0.000 C 
BRANCH  12  13
ATOM     13  C   UNL     1       3.428   5.137  18.679  0.00  0.00    +0.000 C 
ATOM     14  C   UNL     1       2.780   6.223  19.536  0.00  0.00    +0.000 C 
BRANCH  13  15
ATOM     15  O   UNL     1       2.393   4.246  18.224  0.00  0.00    +0.000 OA
BRANCH  15  16
ATOM     16  C   UNL     1       2.489   2.941  18.611  0.00  0.00    +0.000 C 
ATOM     17  O   UNL     1       3.492   2.244  18.531  0.00  0.00    +0.000 OA
BRANCH  16  18
ATOM     18  C   UNL     1       1.193   2.471  19.255  0.00  0.00    +0.000 C 
BRANCH  18  19
ATOM     19  N   UNL     1       0.829   3.333  20.363  0.00  0.00    +0.000 N 
ATOM     20  C   UNL     1       1.398   3.160  21.594  0.00  0.00    +0.000 C 
ATOM     21  O   UNL     1       2.285   2.358  21.861  0.00  0.00    +0.000 OA
ATOM     22  H   UNL     1      -0.001   3.908  20.280  0.00  0.00    +0.000 HD
ENDBRANCH  18  19
ENDBRANCH  16  18
ENDBRANCH  15  16
ENDBRANCH  13  15
ENDBRANCH  12  13
ENDBRANCH   5  12
TORSDOF 11
ENDMDL
MODEL 6
REMARK VINA RESULT:      -6.5      3.335      7.281
REMARK  Name = 
REMARK  13 active torsions:
REMARK  status: ('A' for Active; 'I' for Inactive)
REMARK    1  A    between atoms: C_1  and  C_2
REMARK    2  A    between atoms: C_2  and  C_3
REMARK    3  A    between atoms: C_3  and  C_4
REMARK    4  A    between atoms: C_4  and  C_5
REMARK    5  A    between atoms: C_5  and  C_6
REMARK    6  A    between atoms: C_6  and  C_7
REMARK    7  A    between atoms: C_11  and  C_12
REMARK    8  A    between atoms: C_12  and  C_13
REMARK    9  A    between atoms: C_13  and  C_14
REMARK   10  A    between atoms: C_13  and  O_15
REMARK   11  A    between atoms: O_15  and  C_16
REMARK   12  A    between atoms: C_16  and  C_18
REMARK   13  A    between atoms: C_18  and  N_19
REMARK                            x       y       z     vdW  Elec       q    Type
REMARK                         _______ _______ _______ _____ _____    ______ ____
ROOT
ATOM      1  C   UNL     1       4.065   3.708  18.087  0.00  0.00    +0.000 C 
ATOM      2  C   UNL     1       4.406   3.066  19.450  0.00  0.00    +0.000 C 
ATOM      3  O   UNL     1       3.891   2.304  20.233  0.00  0.00    +0.000 OA
ATOM      4  O   UNL     1       5.623   3.663  19.529  0.00  0.00    +0.000 OA
ATOM      5  C   UNL     1       5.351   4.514  18.380  0.00  0.00    +0.000 C 
ENDROOT
BRANCH   1   6
ATOM      6  C   UNL     1       2.738   4.453  18.051  0.00  0.00    +0.000 C 
BRANCH   6   7
ATOM      7  C   UNL     1       2.818   5.743  18.870  0.00  0.00    +0.000 C 
BRANCH   7   8
ATOM      8  C   UNL     1       1.974   6.852  18.236  0.00  0.00    +0.000 C 
BRANCH   8   9
ATOM      9  C   UNL     1       2.810   8.094  17.924  0.00  0.00    +0.000 C 
BRANCH   9  11
ATOM     10  C   UNL     1       1.076   9.534  19.059  0.00  0.00    +0.000 C 
ATOM     11  C   UNL     1       1.936   9.345  17.819  0.00  0.00    +0.000 C 
ENDBRANCH   9  11
ENDBRANCH   8   9
ENDBRANCH   7   8
ENDBRANCH   6   7
ENDBRANCH   1   6
BRANCH   5  12
ATOM     12  C   UNL     1       6.480   4.469  17.356  0.00  0.00    +0.000 C 
BRANCH  12  13
ATOM     13  C   UNL     1       6.128   5.317  16.126  0.00  0.00    +0.000 C 
ATOM     14  C   UNL     1       5.682   6.718  16.539  0.00  0.00    +0.000 C 
BRANCH  13  15
ATOM     15  O   UNL     1       7.312   5.442  15.316  0.00  0.00    +0.000 OA
BRANCH  15  16
ATOM     16  C   UNL     1       7.211   5.053  14.013  0.00  0.00    +0.000 C 
ATOM     17  O   UNL     1       7.930   5.432  13.097  0.00  0.00    +0.000 OA
BRANCH  16  18
ATOM     18  C   UNL     1       6.131   3.995  13.846  0.00  0.00    +0.000 C 
BRANCH  18  19
ATOM     19  N   UNL     1       6.432   3.126  12.725  0.00  0.00    +0.000 N 
ATOM     20  C   UNL     1       5.484   2.860  11.776  0.00  0.00    +0.000 C 
ATOM     21  O   UNL     1       4.368   3.361  11.728  0.00  0.00    +0.000 OA
ATOM     22  H   UNL     1       7.263   2.547  12.768  0.00  0.00    +0.000 HD
ENDBRANCH  18  19
ENDBRANCH  16  18
ENDBRANCH  15  16
ENDBRANCH  13  15
ENDBRANCH  12  13
ENDBRANCH   5  12
TORSDOF 11
ENDMDL
MODEL 7
REMARK VINA RESULT:      -6.5      2.499      3.551
REMARK  Name = 
REMARK  13 active torsions:
REMARK  status: ('A' for Active; 'I' for Inactive)
REMARK    1  A    between atoms: C_1  and  C_2
REMARK    2  A    between atoms: C_2  and  C_3
REMARK    3  A    between atoms: C_3  and  C_4
REMARK    4  A    between atoms: C_4  and  C_5
REMARK    5  A    between atoms: C_5  and  C_6
REMARK    6  A    between atoms: C_6  and  C_7
REMARK    7  A    between atoms: C_11  and  C_12
REMARK    8  A    between atoms: C_12  and  C_13
REMARK    9  A    between atoms: C_13  and  C_14
REMARK   10  A    between atoms: C_13  and  O_15
REMARK   11  A    between atoms: O_15  and  C_16
REMARK   12  A    between atoms: C_16  and  C_18
REMARK   13  A    between atoms: C_18  and  N_19
REMARK                            x       y       z     vdW  Elec       q    Type
REMARK                         _______ _______ _______ _____ _____    ______ ____
ROOT
ATOM      1  C   UNL     1       5.790   6.345  17.228  0.00  0.00    +0.000 C 
ATOM      2  C   UNL     1       7.197   6.943  17.454  0.00  0.00    +0.000 C 
ATOM      3  O   UNL     1       7.827   7.907  17.089  0.00  0.00    +0.000 OA
ATOM      4  O   UNL     1       7.577   5.960  18.309  0.00  0.00    +0.000 OA
ATOM      5  C   UNL     1       6.395   5.161  18.018  0.00  0.00    +0.000 C 
ENDROOT
BRANCH   1   6
ATOM      6  C   UNL     1       5.421   6.125  15.768  0.00  0.00    +0.000 C 
BRANCH   6   7
ATOM      7  C   UNL     1       5.140   4.645  15.497  0.00  0.00    +0.000 C 
BRANCH   7   8
ATOM      8  C   UNL     1       5.576   4.252  14.082  0.00  0.00    +0.000 C 
BRANCH   8   9
ATOM      9  C   UNL     1       6.932   4.857  13.717  0.00  0.00    +0.000 C 
BRANCH   9  11
ATOM     10  C   UNL     1       6.641   3.220  11.820  0.00  0.00    +0.000 C 
ATOM     11  C   UNL     1       7.347   4.480  12.294  0.00  0.00    +0.000 C 
ENDBRANCH   9  11
ENDBRANCH   8   9
ENDBRANCH   7   8
ENDBRANCH   6   7
ENDBRANCH   1   6
BRANCH   5  12
ATOM     12  C   UNL     1       5.687   4.706  19.289  0.00  0.00    +0.000 C 
BRANCH  12  13
ATOM     13  C   UNL     1       4.498   3.796  18.949  0.00  0.00    +0.000 C 
ATOM     14  C   UNL     1       4.433   2.605  19.903  0.00  0.00    +0.000 C 
BRANCH  13  15
ATOM     15  O   UNL     1       3.290   4.564  19.104  0.00  0.00    +0.000 OA
BRANCH  15  16
ATOM     16  C   UNL     1       2.120   3.944  18.776  0.00  0.00    +0.000 C 
ATOM     17  O   UNL     1       1.937   3.236  17.795  0.00  0.00    +0.000 OA
BRANCH  16  18
ATOM     18  C   UNL     1       1.069   4.170  19.853  0.00  0.00    +0.000 C 
BRANCH  18  19
ATOM     19  N   UNL     1       0.754   2.927  20.530  0.00  0.00    +0.000 N 
ATOM     20  C   UNL     1       1.385   2.590  21.695  0.00  0.00    +0.000 C 
ATOM     21  O   UNL     1       2.181   3.297  22.301  0.00  0.00    +0.000 OA
ATOM     22  H   UNL     1       0.236   2.216  20.027  0.00  0.00    +0.000 HD
ENDBRANCH  18  19
ENDBRANCH  16  18
ENDBRANCH  15  16
ENDBRANCH  13  15
ENDBRANCH  12  13
ENDBRANCH   5  12
TORSDOF 11
ENDMDL
MODEL 8
REMARK VINA RESULT:      -6.4      1.545      2.165
REMARK  Name = 
REMARK  13 active torsions:
REMARK  status: ('A' for Active; 'I' for Inactive)
REMARK    1  A    between atoms: C_1  and  C_2
REMARK    2  A    between atoms: C_2  and  C_3
REMARK    3  A    between atoms: C_3  and  C_4
REMARK    4  A    between atoms: C_4  and  C_5
REMARK    5  A    between atoms: C_5  and  C_6
REMARK    6  A    between atoms: C_6  and  C_7
REMARK    7  A    between atoms: C_11  and  C_12
REMARK    8  A    between atoms: C_12  and  C_13
REMARK    9  A    between atoms: C_13  and  C_14
REMARK   10  A    between atoms: C_13  and  O_15
REMARK   11  A    between atoms: O_15  and  C_16
REMARK   12  A    between atoms: C_16  and  C_18
REMARK   13  A    between atoms: C_18  and  N_19
REMARK                            x       y       z     vdW  Elec       q    Type
REMARK                         _______ _______ _______ _____ _____    ______ ____
ROOT
ATOM      1  C   UNL     1       5.830   4.946  14.554  0.00  0.00    +0.000 C 
ATOM      2  C   UNL     1       7.285   5.325  14.194  0.00  0.00    +0.000 C 
ATOM      3  O   UNL     1       7.935   5.523  13.196  0.00  0.00    +0.000 OA
ATOM      4  O   UNL     1       7.681   5.404  15.490  0.00  0.00    +0.000 OA
ATOM      5  C   UNL     1       6.432   4.832  15.974  0.00  0.00    +0.000 C 
ENDROOT
BRANCH   1   6
ATOM      6  C   UNL     1       5.321   3.679  13.882  0.00  0.00    +0.000 C 
BRANCH   6   7
ATOM      7  C   UNL     1       6.124   3.375  12.616  0.00  0.00    +0.000 C 
BRANCH   7   8
ATOM      8  C   UNL     1       5.224   2.802  11.517  0.00  0.00    +0.000 C 
BRANCH   8   9
ATOM      9  C   UNL     1       3.821   3.408  11.558  0.00  0.00    +0.000 C 
BRANCH   9  11
ATOM     10  C   UNL     1       2.923   4.415   9.426  0.00  0.00    +0.000 C 
ATOM     11  C   UNL     1       3.061   3.149  10.256  0.00  0.00    +0.000 C 
ENDBRANCH   9  11
ENDBRANCH   8   9
ENDBRANCH   7   8
ENDBRANCH   6   7
ENDBRANCH   1   6
BRANCH   5  12
ATOM     12  C   UNL     1       5.815   5.669  17.088  0.00  0.00    +0.000 C 
BRANCH  12  13
ATOM     13  C   UNL     1       6.228   5.127  18.463  0.00  0.00    +0.000 C 
ATOM     14  C   UNL     1       7.477   5.838  18.977  0.00  0.00    +0.000 C 
BRANCH  13  15
ATOM     15  O   UNL     1       5.152   5.383  19.385  0.00  0.00    +0.000 OA
BRANCH  15  16
ATOM     16  C   UNL     1       3.949   4.806  19.104  0.00  0.00    +0.000 C 
ATOM     17  O   UNL     1       2.924   5.403  18.800  0.00  0.00    +0.000 OA
BRANCH  16  18
ATOM     18  C   UNL     1       4.059   3.289  19.124  0.00  0.00    +0.000 C 
BRANCH  18  19
ATOM     19  N   UNL     1       2.798   2.688  19.515  0.00  0.00    +0.000 N 
ATOM     20  C   UNL     1       1.931   2.213  18.571  0.00  0.00    +0.000 C 
ATOM     21  O   UNL     1       2.146   2.172  17.366  0.00  0.00    +0.000 OA
ATOM     22  H   UNL     1       2.468   2.824  20.463  0.00  0.00    +0.000 HD
ENDBRANCH  18  19
ENDBRANCH  16  18
ENDBRANCH  15  16
ENDBRANCH  13  15
ENDBRANCH  12  13
ENDBRANCH   5  12
TORSDOF 11
ENDMDL
MODEL 9
REMARK VINA RESULT:      -6.4      1.954      3.480
REMARK  Name = 
REMARK  13 active torsions:
REMARK  status: ('A' for Active; 'I' for Inactive)
REMARK    1  A    between atoms: C_1  and  C_2
REMARK    2  A    between atoms: C_2  and  C_3
REMARK    3  A    between atoms: C_3  and  C_4
REMARK    4  A    between atoms: C_4  and  C_5
REMARK    5  A    between atoms: C_5  and  C_6
REMARK    6  A    between atoms: C_6  and  C_7
REMARK    7  A    between atoms: C_11  and  C_12
REMARK    8  A    between atoms: C_12  and  C_13
REMARK    9  A    between atoms: C_13  and  C_14
REMARK   10  A    between atoms: C_13  and  O_15
REMARK   11  A    between atoms: O_15  and  C_16
REMARK   12  A    between atoms: C_16  and  C_18
REMARK   13  A    between atoms: C_18  and  N_19
REMARK                            x       y       z     vdW  Elec       q    Type
REMARK                         _______ _______ _______ _____ _____    ______ ____
ROOT
ATOM      1  C   UNL     1       6.200   4.888  16.767  0.00  0.00    +0.000 C 
ATOM      2  C   UNL     1       7.347   4.500  17.727  0.00  0.00    +0.000 C 
ATOM      3  O   UNL     1       8.478   4.085  17.645  0.00  0.00    +0.000 OA
ATOM      4  O   UNL     1       6.641   4.814  18.843  0.00  0.00    +0.000 OA
ATOM      5  C   UNL     1       5.407   4.993  18.090  0.00  0.00    +0.000 C 
ENDROOT
BRANCH   1   6
ATOM      6  C   UNL     1       5.808   3.802  15.775  0.00  0.00    +0.000 C 
BRANCH   6   7
ATOM      7  C   UNL     1       5.593   4.393  14.380  0.00  0.00    +0.000 C 
BRANCH   7   8
ATOM      8  C   UNL     1       6.521   3.735  13.354  0.00  0.00    +0.000 C 
BRANCH   8   9
ATOM      9  C   UNL     1       5.906   3.731  11.954  0.00  0.00    +0.000 C 
BRANCH   9  11
ATOM     10  C   UNL     1       3.743   3.469  10.681  0.00  0.00    +0.000 C 
ATOM     11  C   UNL     1       4.491   3.149  11.966  0.00  0.00    +0.000 C 
ENDBRANCH   9  11
ENDBRANCH   8   9
ENDBRANCH   7   8
ENDBRANCH   6   7
ENDBRANCH   1   6
BRANCH   5  12
ATOM     12  C   UNL     1       4.724   6.315  18.419  0.00  0.00    +0.000 C 
BRANCH  12  13
ATOM     13  C   UNL     1       3.413   6.072  19.179  0.00  0.00    +0.000 C 
ATOM     14  C   UNL     1       2.211   6.512  18.348  0.00  0.00    +0.000 C 
BRANCH  13  15
ATOM     15  O   UNL     1       3.297   4.658  19.426  0.00  0.00    +0.000 OA
BRANCH  15  16
ATOM     16  C   UNL     1       2.317   4.261  20.288  0.00  0.00    +0.000 C 
ATOM     17  O   UNL     1       2.150   4.685  21.424  0.00  0.00    +0.000 OA
BRANCH  16  18
ATOM     18  C   UNL     1       1.376   3.271  19.618  0.00  0.00    +0.000 C 
BRANCH  18  19
ATOM     19  N   UNL     1       2.117   2.157  19.059  0.00  0.00    +0.000 N 
ATOM     20  C   UNL     1       2.432   2.128  17.729  0.00  0.00    +0.000 C 
ATOM     21  O   UNL     1       2.206   3.025  16.926  0.00  0.00    +0.000 OA
ATOM     22  H   UNL     1       2.203   1.307  19.604  0.00  0.00    +0.000 HD
ENDBRANCH  18  19
ENDBRANCH  16  18
ENDBRANCH  15  16
ENDBRANCH  13  15
ENDBRANCH  12  13
ENDBRANCH   5  12
TORSDOF 11
ENDMDL
