MODEL 1
REMARK VINA RESULT:      -6.4      0.000      0.000
REMARK  Name = 
REMARK  5 active torsions:
REMARK  status: ('A' for Active; 'I' for Inactive)
REMARK    1  A    between atoms: C_1  and  O_2
REMARK    2  A    between atoms: O_2  and  C_3
REMARK    3  A    between atoms: N_5  and  N_6
REMARK    4  A    between atoms: C_7  and  C_9
REMARK    5  A    between atoms: C_12  and  C_13
REMARK                            x       y       z     vdW  Elec       q    Type
REMARK                         _______ _______ _______ _____ _____    ______ ____
ROOT
ATOM      1  N   UNL     1       5.008   4.319  16.332  0.00  0.00    +0.000 N 
ATOM      2  C   UNL     1       4.308   5.188  17.147  0.00  0.00    +0.000 C 
ATOM      3  O   UNL     1       4.299   6.404  16.980  0.00  0.00    +0.000 OA
ATOM      4  H   UNL     1       5.251   3.377  16.635  0.00  0.00    +0.000 HD
ENDROOT
BRANCH   2   5
ATOM      5  C   UNL     1       3.572   4.565  18.283  0.00  0.00    +0.000 A 
ATOM      6  C   UNL     1       4.166   3.497  18.965  0.00  0.00    +0.000 A 
ATOM      7  C   UNL     1       3.503   2.882  20.031  0.00  0.00    +0.000 A 
ATOM      8  C   UNL     1       2.242   3.335  20.438  0.00  0.00    +0.000 A 
ATOM      9  C   UNL     1       1.513   2.675  21.573  0.00  0.00    +0.000 C 
ATOM     10  C   UNL     1       1.664   4.426  19.776  0.00  0.00    +0.000 A 
ATOM     11  C   UNL     1       2.322   5.039  18.703  0.00  0.00    +0.000 A 
ENDBRANCH   2   5
BRANCH   1  14
ATOM     12  C   UNL     1       7.170   4.886  15.486  0.00  0.00    +0.000 C 
ATOM     13  O   UNL     1       7.747   4.421  16.465  0.00  0.00    +0.000 OA
ATOM     14  N   UNL     1       5.812   4.855  15.318  0.00  0.00    +0.000 N 
ATOM     15  H   UNL     1       5.358   5.340  14.549  0.00  0.00    +0.000 HD
BRANCH  12  17
ATOM     16  C   UNL     1       7.453   4.899  13.170  0.00  0.00    +0.000 C 
ATOM     17  O   UNL     1       7.774   5.488  14.432  0.00  0.00    +0.000 OA
ENDBRANCH  12  17
ENDBRANCH   1  14
TORSDOF 3
ENDMDL
MODEL 2
REMARK VINA RESULT:      -6.4      0.600      1.378
REMARK  Name = 
REMARK  5 active torsions:
REMARK  status: ('A' for Active; 'I' for Inactive)
REMARK    1  A    between atoms: C_1  and  O_2
REMARK    2  A    between atoms: O_2  and  C_3
REMARK    3  A    between atoms: N_5  and  N_6
REMARK    4  A    between atoms: C_7  and  C_9
REMARK    5  A    between atoms: C_12  and  C_13
REMARK                            x       y       z     vdW  Elec       q    Type
REMARK                         _______ _______ _______ _____ _____    ______ ____
ROOT
ATOM      1  N   UNL     1       5.162   3.730  16.753  0.00  0.00    +0.000 N 
ATOM      2  C   UNL     1       4.247   4.577  17.347  0.00  0.00    +0.000 C 
ATOM      3  O   UNL     1       4.043   5.724  16.959  0.00  0.00    +0.000 OA
ATOM      4  H   UNL     1       5.534   2.916  17.240  0.00  0.00    +0.000 HD
ENDROOT
BRANCH   2   5
ATOM      5  C   UNL     1       3.523   4.029  18.530  0.00  0.00    +0.000 A 
ATOM      6  C   UNL     1       2.219   4.469  18.783  0.00  0.00    +0.000 A 
ATOM      7  C   UNL     1       1.511   3.984  19.887  0.00  0.00    +0.000 A 
ATOM      8  C   UNL     1       2.093   3.043  20.745  0.00  0.00    +0.000 A 
ATOM      9  C   UNL     1       1.349   2.523  21.941  0.00  0.00    +0.000 C 
ATOM     10  C   UNL     1       3.386   2.579  20.470  0.00  0.00    +0.000 A 
ATOM     11  C   UNL     1       4.100   3.068  19.371  0.00  0.00    +0.000 A 
ENDBRANCH   2   5
BRANCH   1  14
ATOM     12  C   UNL     1       7.231   4.641  15.980  0.00  0.00    +0.000 C 
ATOM     13  O   UNL     1       7.756   4.557  17.087  0.00  0.00    +0.000 OA
ATOM     14  N   UNL     1       5.955   4.227  15.711  0.00  0.00    +0.000 N 
ATOM     15  H   UNL     1       5.514   4.406  14.813  0.00  0.00    +0.000 HD
BRANCH  12  17
ATOM     16  C   UNL     1       7.114   4.852  13.659  0.00  0.00    +0.000 C 
ATOM     17  O   UNL     1       7.822   5.141  14.867  0.00  0.00    +0.000 OA
ENDBRANCH  12  17
ENDBRANCH   1  14
TORSDOF 3
ENDMDL
MODEL 3
REMARK VINA RESULT:      -6.3      2.543      3.810
REMARK  Name = 
REMARK  5 active torsions:
REMARK  status: ('A' for Active; 'I' for Inactive)
REMARK    1  A    between atoms: C_1  and  O_2
REMARK    2  A    between atoms: O_2  and  C_3
REMARK    3  A    between atoms: N_5  and  N_6
REMARK    4  A    between atoms: C_7  and  C_9
REMARK    5  A    between atoms: C_12  and  C_13
REMARK                            x       y       z     vdW  Elec       q    Type
REMARK                         _______ _______ _______ _____ _____    ______ ____
ROOT
ATOM      1  N   UNL     1       5.578   4.088  14.190  0.00  0.00    +0.000 N 
ATOM      2  C   UNL     1       6.155   4.677  15.298  0.00  0.00    +0.000 C 
ATOM      3  O   UNL     1       7.368   4.705  15.488  0.00  0.00    +0.000 OA
ATOM      4  H   UNL     1       4.597   3.811  14.180  0.00  0.00    +0.000 HD
ENDROOT
BRANCH   2   5
ATOM      5  C   UNL     1       5.211   5.266  16.290  0.00  0.00    +0.000 A 
ATOM      6  C   UNL     1       4.483   4.404  17.117  0.00  0.00    +0.000 A 
ATOM      7  C   UNL     1       3.581   4.919  18.055  0.00  0.00    +0.000 A 
ATOM      8  C   UNL     1       3.406   6.302  18.186  0.00  0.00    +0.000 A 
ATOM      9  C   UNL     1       2.432   6.867  19.179  0.00  0.00    +0.000 C 
ATOM     10  C   UNL     1       4.161   7.163  17.379  0.00  0.00    +0.000 A 
ATOM     11  C   UNL     1       5.058   6.651  16.435  0.00  0.00    +0.000 A 
ENDBRANCH   2   5
BRANCH   1  14
ATOM     12  C   UNL     1       5.891   3.005  12.083  0.00  0.00    +0.000 C 
ATOM     13  O   UNL     1       4.740   3.232  11.721  0.00  0.00    +0.000 OA
ATOM     14  N   UNL     1       6.406   3.417  13.281  0.00  0.00    +0.000 N 
ATOM     15  H   UNL     1       7.327   3.123  13.596  0.00  0.00    +0.000 HD
BRANCH  12  17
ATOM     16  C   UNL     1       6.431   0.993  11.032  0.00  0.00    +0.000 C 
ATOM     17  O   UNL     1       6.820   2.328  11.364  0.00  0.00    +0.000 OA
ENDBRANCH  12  17
ENDBRANCH   1  14
TORSDOF 3
ENDMDL
MODEL 4
REMARK VINA RESULT:      -6.2      2.558      3.904
REMARK  Name = 
REMARK  5 active torsions:
REMARK  status: ('A' for Active; 'I' for Inactive)
REMARK    1  A    between atoms: C_1  and  O_2
REMARK    2  A    between atoms: O_2  and  C_3
REMARK    3  A    between atoms: N_5  and  N_6
REMARK    4  A    between atoms: C_7  and  C_9
REMARK    5  A    between atoms: C_12  and  C_13
REMARK                            x       y       z     vdW  Elec       q    Type
REMARK                         _______ _______ _______ _____ _____    ______ ____
ROOT
ATOM      1  N   UNL     1       5.543   3.984  14.213  0.00  0.00    +0.000 N 
ATOM      2  C   UNL     1       6.111   4.692  15.254  0.00  0.00    +0.000 C 
ATOM      3  O   UNL     1       7.322   4.853  15.375  0.00  0.00    +0.000 OA
ATOM      4  H   UNL     1       4.598   3.609  14.272  0.00  0.00    +0.000 HD
ENDROOT
BRANCH   2   5
ATOM      5  C   UNL     1       5.161   5.239  16.265  0.00  0.00    +0.000 A 
ATOM      6  C   UNL     1       5.048   6.627  16.399  0.00  0.00    +0.000 A 
ATOM      7  C   UNL     1       4.174   7.177  17.341  0.00  0.00    +0.000 A 
ATOM      8  C   UNL     1       3.391   6.347  18.152  0.00  0.00    +0.000 A 
ATOM      9  C   UNL     1       2.457   6.925  19.177  0.00  0.00    +0.000 C 
ATOM     10  C   UNL     1       3.480   4.958  17.993  0.00  0.00    +0.000 A 
ATOM     11  C   UNL     1       4.360   4.404  17.056  0.00  0.00    +0.000 A 
ENDBRANCH   2   5
BRANCH   1  14
ATOM     12  C   UNL     1       5.902   2.987  12.071  0.00  0.00    +0.000 C 
ATOM     13  O   UNL     1       4.760   3.232  11.693  0.00  0.00    +0.000 OA
ATOM     14  N   UNL     1       6.391   3.348  13.296  0.00  0.00    +0.000 N 
ATOM     15  H   UNL     1       7.304   3.040  13.620  0.00  0.00    +0.000 HD
BRANCH  12  17
ATOM     16  C   UNL     1       6.483   1.001  10.993  0.00  0.00    +0.000 C 
ATOM     17  O   UNL     1       6.846   2.338  11.346  0.00  0.00    +0.000 OA
ENDBRANCH  12  17
ENDBRANCH   1  14
TORSDOF 3
ENDMDL
MODEL 5
REMARK VINA RESULT:      -6.2      6.428      8.213
REMARK  Name = 
REMARK  5 active torsions:
REMARK  status: ('A' for Active; 'I' for Inactive)
REMARK    1  A    between atoms: C_1  and  O_2
REMARK    2  A    between atoms: O_2  and  C_3
REMARK    3  A    between atoms: N_5  and  N_6
REMARK    4  A    between atoms: C_7  and  C_9
REMARK    5  A    between atoms: C_12  and  C_13
REMARK                            x       y       z     vdW  Elec       q    Type
REMARK                         _______ _______ _______ _____ _____    ______ ____
ROOT
ATOM      1  N   UNL     1       8.518   7.751  18.899  0.00  0.00    +0.000 N 
ATOM      2  C   UNL     1       8.335   8.943  18.225  0.00  0.00    +0.000 C 
ATOM      3  O   UNL     1       7.612   9.053  17.240  0.00  0.00    +0.000 OA
ATOM      4  H   UNL     1       9.319   7.598  19.509  0.00  0.00    +0.000 HD
ENDROOT
BRANCH   2   5
ATOM      5  C   UNL     1       9.099  10.111  18.749  0.00  0.00    +0.000 A 
ATOM      6  C   UNL     1       9.682  10.997  17.835  0.00  0.00    +0.000 A 
ATOM      7  C   UNL     1      10.413  12.099  18.288  0.00  0.00    +0.000 A 
ATOM      8  C   UNL     1      10.560  12.339  19.659  0.00  0.00    +0.000 A 
ATOM      9  C   UNL     1      11.353  13.512  20.159  0.00  0.00    +0.000 C 
ATOM     10  C   UNL     1       9.948  11.470  20.572  0.00  0.00    +0.000 A 
ATOM     11  C   UNL     1       9.222  10.360  20.122  0.00  0.00    +0.000 A 
ENDBRANCH   2   5
BRANCH   1  14
ATOM     12  C   UNL     1       7.672   5.539  19.221  0.00  0.00    +0.000 C 
ATOM     13  O   UNL     1       7.902   5.557  20.427  0.00  0.00    +0.000 OA
ATOM     14  N   UNL     1       7.918   6.594  18.385  0.00  0.00    +0.000 N 
ATOM     15  H   UNL     1       7.816   6.512  17.377  0.00  0.00    +0.000 HD
BRANCH  12  17
ATOM     16  C   UNL     1       7.263   4.613  17.119  0.00  0.00    +0.000 C 
ATOM     17  O   UNL     1       7.143   4.494  18.538  0.00  0.00    +0.000 OA
ENDBRANCH  12  17
ENDBRANCH   1  14
TORSDOF 3
ENDMDL
MODEL 6
REMARK VINA RESULT:      -6.2      6.412      8.204
REMARK  Name = 
REMARK  5 active torsions:
REMARK  status: ('A' for Active; 'I' for Inactive)
REMARK    1  A    between atoms: C_1  and  O_2
REMARK    2  A    between atoms: O_2  and  C_3
REMARK    3  A    between atoms: N_5  and  N_6
REMARK    4  A    between atoms: C_7  and  C_9
REMARK    5  A    between atoms: C_12  and  C_13
REMARK                            x       y       z     vdW  Elec       q    Type
REMARK                         _______ _______ _______ _____ _____    ______ ____
ROOT
ATOM      1  N   UNL     1       8.534   7.754  18.851  0.00  0.00    +0.000 N 
ATOM      2  C   UNL     1       8.307   8.956  18.209  0.00  0.00    +0.000 C 
ATOM      3  O   UNL     1       7.514   9.080  17.280  0.00  0.00    +0.000 OA
ATOM      4  H   UNL     1       9.377   7.591  19.400  0.00  0.00    +0.000 HD
ENDROOT
BRANCH   2   5
ATOM      5  C   UNL     1       9.111  10.115  18.689  0.00  0.00    +0.000 A 
ATOM      6  C   UNL     1       9.190  10.354  20.065  0.00  0.00    +0.000 A 
ATOM      7  C   UNL     1       9.929  11.436  20.554  0.00  0.00    +0.000 A 
ATOM      8  C   UNL     1      10.609  12.286  19.673  0.00  0.00    +0.000 A 
ATOM      9  C   UNL     1      11.395  13.459  20.183  0.00  0.00    +0.000 C 
ATOM     10  C   UNL     1      10.557  12.025  18.298  0.00  0.00    +0.000 A 
ATOM     11  C   UNL     1       9.811  10.947  17.805  0.00  0.00    +0.000 A 
ENDBRANCH   2   5
BRANCH   1  14
ATOM     12  C   UNL     1       7.664   5.560  19.219  0.00  0.00    +0.000 C 
ATOM     13  O   UNL     1       7.942   5.579  20.415  0.00  0.00    +0.000 OA
ATOM     14  N   UNL     1       7.894   6.606  18.368  0.00  0.00    +0.000 N 
ATOM     15  H   UNL     1       7.751   6.521  17.366  0.00  0.00    +0.000 HD
BRANCH  12  17
ATOM     16  C   UNL     1       7.317   4.532  17.153  0.00  0.00    +0.000 C 
ATOM     17  O   UNL     1       7.090   4.520  18.564  0.00  0.00    +0.000 OA
ENDBRANCH  12  17
ENDBRANCH   1  14
TORSDOF 3
ENDMDL
MODEL 7
REMARK VINA RESULT:      -6.1      1.522      1.551
REMARK  Name = 
REMARK  5 active torsions:
REMARK  status: ('A' for Active; 'I' for Inactive)
REMARK    1  A    between atoms: C_1  and  O_2
REMARK    2  A    between atoms: O_2  and  C_3
REMARK    3  A    between atoms: N_5  and  N_6
REMARK    4  A    between atoms: C_7  and  C_9
REMARK    5  A    between atoms: C_12  and  C_13
REMARK                            x       y       z     vdW  Elec       q    Type
REMARK                         _______ _______ _______ _____ _____    ______ ____
ROOT
ATOM      1  N   UNL     1       5.605   5.438  17.018  0.00  0.00    +0.000 N 
ATOM      2  C   UNL     1       5.905   4.850  18.231  0.00  0.00    +0.000 C 
ATOM      3  O   UNL     1       7.054   4.663  18.620  0.00  0.00    +0.000 OA
ATOM      4  H   UNL     1       4.692   5.325  16.578  0.00  0.00    +0.000 HD
ENDROOT
BRANCH   2   5
ATOM      5  C   UNL     1       4.739   4.416  19.051  0.00  0.00    +0.000 A 
ATOM      6  C   UNL     1       4.597   3.057  19.352  0.00  0.00    +0.000 A 
ATOM      7  C   UNL     1       3.512   2.610  20.113  0.00  0.00    +0.000 A 
ATOM      8  C   UNL     1       2.561   3.518  20.593  0.00  0.00    +0.000 A 
ATOM      9  C   UNL     1       1.384   3.051  21.400  0.00  0.00    +0.000 C 
ATOM     10  C   UNL     1       2.723   4.883  20.319  0.00  0.00    +0.000 A 
ATOM     11  C   UNL     1       3.804   5.332  19.552  0.00  0.00    +0.000 A 
ENDBRANCH   2   5
BRANCH   1  14
ATOM     12  C   UNL     1       6.817   5.048  14.996  0.00  0.00    +0.000 C 
ATOM     13  O   UNL     1       6.054   4.157  14.633  0.00  0.00    +0.000 OA
ATOM     14  N   UNL     1       6.658   5.761  16.153  0.00  0.00    +0.000 N 
ATOM     15  H   UNL     1       7.363   6.417  16.477  0.00  0.00    +0.000 HD
BRANCH  12  17
ATOM     16  C   UNL     1       7.859   5.205  12.914  0.00  0.00    +0.000 C 
ATOM     17  O   UNL     1       7.916   5.463  14.319  0.00  0.00    +0.000 OA
ENDBRANCH  12  17
ENDBRANCH   1  14
TORSDOF 3
ENDMDL
MODEL 8
REMARK VINA RESULT:      -6.1      1.355      1.449
REMARK  Name = 
REMARK  5 active torsions:
REMARK  status: ('A' for Active; 'I' for Inactive)
REMARK    1  A    between atoms: C_1  and  O_2
REMARK    2  A    between atoms: O_2  and  C_3
REMARK    3  A    between atoms: N_5  and  N_6
REMARK    4  A    between atoms: C_7  and  C_9
REMARK    5  A    between atoms: C_12  and  C_13
REMARK                            x       y       z     vdW  Elec       q    Type
REMARK                         _______ _______ _______ _____ _____    ______ ____
ROOT
ATOM      1  N   UNL     1       5.958   4.941  16.665  0.00  0.00    +0.000 N 
ATOM      2  C   UNL     1       4.815   5.685  16.884  0.00  0.00    +0.000 C 
ATOM      3  O   UNL     1       4.606   6.768  16.346  0.00  0.00    +0.000 OA
ATOM      4  H   UNL     1       6.258   4.215  17.314  0.00  0.00    +0.000 HD
ENDROOT
BRANCH   2   5
ATOM      5  C   UNL     1       3.837   5.108  17.850  0.00  0.00    +0.000 A 
ATOM      6  C   UNL     1       3.916   5.489  19.194  0.00  0.00    +0.000 A 
ATOM      7  C   UNL     1       3.022   4.963  20.131  0.00  0.00    +0.000 A 
ATOM      8  C   UNL     1       2.028   4.060  19.735  0.00  0.00    +0.000 A 
ATOM      9  C   UNL     1       1.069   3.478  20.733  0.00  0.00    +0.000 C 
ATOM     10  C   UNL     1       1.929   3.706  18.383  0.00  0.00    +0.000 A 
ATOM     11  C   UNL     1       2.828   4.225  17.443  0.00  0.00    +0.000 A 
ENDBRANCH   2   5
BRANCH   1  14
ATOM     12  C   UNL     1       7.137   5.008  14.587  0.00  0.00    +0.000 C 
ATOM     13  O   UNL     1       6.422   4.149  14.079  0.00  0.00    +0.000 OA
ATOM     14  N   UNL     1       6.966   5.486  15.857  0.00  0.00    +0.000 N 
ATOM     15  H   UNL     1       7.637   6.118  16.286  0.00  0.00    +0.000 HD
BRANCH  12  17
ATOM     16  C   UNL     1       8.135   5.566  12.553  0.00  0.00    +0.000 C 
ATOM     17  O   UNL     1       8.189   5.611  13.981  0.00  0.00    +0.000 OA
ENDBRANCH  12  17
ENDBRANCH   1  14
TORSDOF 3
ENDMDL
MODEL 9
REMARK VINA RESULT:      -6.1      2.758      6.478
REMARK  Name = 
REMARK  5 active torsions:
REMARK  status: ('A' for Active; 'I' for Inactive)
REMARK    1  A    between atoms: C_1  and  O_2
REMARK    2  A    between atoms: O_2  and  C_3
REMARK    3  A    between atoms: N_5  and  N_6
REMARK    4  A    between atoms: C_7  and  C_9
REMARK    5  A    between atoms: C_12  and  C_13
REMARK                            x       y       z     vdW  Elec       q    Type
REMARK                         _______ _______ _______ _____ _____    ______ ____
ROOT
ATOM      1  N   UNL     1       5.257   3.097  19.034  0.00  0.00    +0.000 N 
ATOM      2  C   UNL     1       5.353   4.383  18.538  0.00  0.00    +0.000 C 
ATOM      3  O   UNL     1       5.020   5.376  19.179  0.00  0.00    +0.000 OA
ATOM      4  H   UNL     1       5.250   2.284  18.419  0.00  0.00    +0.000 HD
ENDROOT
BRANCH   2   5
ATOM      5  C   UNL     1       5.864   4.507  17.143  0.00  0.00    +0.000 A 
ATOM      6  C   UNL     1       4.996   4.232  16.082  0.00  0.00    +0.000 A 
ATOM      7  C   UNL     1       5.441   4.330  14.760  0.00  0.00    +0.000 A 
ATOM      8  C   UNL     1       6.758   4.718  14.482  0.00  0.00    +0.000 A 
ATOM      9  C   UNL     1       7.253   4.815  13.068  0.00  0.00    +0.000 C 
ATOM     10  C   UNL     1       7.616   5.026  15.546  0.00  0.00    +0.000 A 
ATOM     11  C   UNL     1       7.175   4.921  16.870  0.00  0.00    +0.000 A 
ENDBRANCH   2   5
BRANCH   1  14
ATOM     12  C   UNL     1       3.376   2.488  20.375  0.00  0.00    +0.000 C 
ATOM     13  O   UNL     1       2.685   2.213  19.398  0.00  0.00    +0.000 OA
ATOM     14  N   UNL     1       4.675   2.908  20.294  0.00  0.00    +0.000 N 
ATOM     15  H   UNL     1       5.185   3.229  21.112  0.00  0.00    +0.000 HD
BRANCH  12  17
ATOM     16  C   UNL     1       1.578   2.684  21.850  0.00  0.00    +0.000 C 
ATOM     17  O   UNL     1       2.970   2.417  21.667  0.00  0.00    +0.000 OA
ENDBRANCH  12  17
ENDBRANCH   1  14
TORSDOF 3
ENDMDL
