MODEL 1
REMARK VINA RESULT:      -7.3      0.000      0.000
REMARK  Name = 
REMARK  2 active torsions:
REMARK  status: ('A' for Active; 'I' for Inactive)
REMARK    1  A    between atoms: C_5  and  O_6
REMARK    2  A    between atoms: O_6  and  C_7
REMARK                            x       y       z     vdW  Elec       q    Type
REMARK                         _______ _______ _______ _____ _____    ______ ____
ROOT
ATOM      1  C   UNL     1       3.665   5.862  18.700  0.00  0.00    +0.000 A 
ATOM      2  N   UNL     1       4.856   6.239  18.307  0.00  0.00    +0.000 NA
ATOM      3  C   UNL     1       5.405   5.453  17.260  0.00  0.00    +0.000 A 
ATOM      4  C   UNL     1       6.686   5.681  16.708  0.00  0.00    +0.000 A 
ATOM      5  C   UNL     1       6.969   4.758  15.718  0.00  0.00    +0.000 A 
ATOM      6  S   UNL     1       5.683   3.634  15.484  0.00  0.00    +0.000 S 
ATOM      7  C   UNL     1       4.761   4.380  16.683  0.00  0.00    +0.000 A 
ATOM      8  C   UNL     1       3.469   4.030  17.137  0.00  0.00    +0.000 A 
ATOM      9  N   UNL     1       2.615   3.090  16.827  0.00  0.00    +0.000 NA
ATOM     10  N   UNL     1       1.535   3.302  17.671  0.00  0.00    +0.000 NA
ATOM     11  N   UNL     1       1.739   4.345  18.477  0.00  0.00    +0.000 NA
ATOM     12  N   UNL     1       2.957   4.802  18.137  0.00  0.00    +0.000 N 
ENDROOT
BRANCH   1  13
ATOM     13  O   UNL     1       2.929   6.432  19.733  0.00  0.00    +0.000 OA
BRANCH  13  18
ATOM     14 BR   UNL     1      -0.265  11.514  18.831  0.00  0.00    +0.000 Br
ATOM     15  C   UNL     1       0.728   9.929  19.096  0.00  0.00    +0.000 A 
ATOM     16  C   UNL     1       0.774   9.341  20.362  0.00  0.00    +0.000 A 
ATOM     17  C   UNL     1       1.501   8.164  20.555  0.00  0.00    +0.000 A 
ATOM     18  C   UNL     1       2.167   7.586  19.473  0.00  0.00    +0.000 A 
ATOM     19  C   UNL     1       2.155   8.194  18.218  0.00  0.00    +0.000 A 
ATOM     20  C   UNL     1       1.417   9.362  18.026  0.00  0.00    +0.000 A 
ENDBRANCH  13  18
ENDBRANCH   1  13
TORSDOF 2
ENDMDL
MODEL 2
REMARK VINA RESULT:      -7.2      0.140      1.092
REMARK  Name = 
REMARK  2 active torsions:
REMARK  status: ('A' for Active; 'I' for Inactive)
REMARK    1  A    between atoms: C_5  and  O_6
REMARK    2  A    between atoms: O_6  and  C_7
REMARK                            x       y       z     vdW  Elec       q    Type
REMARK                         _______ _______ _______ _____ _____    ______ ____
ROOT
ATOM      1  C   UNL     1       3.550   5.823  18.805  0.00  0.00    +0.000 A 
ATOM      2  N   UNL     1       4.736   6.242  18.438  0.00  0.00    +0.000 NA
ATOM      3  C   UNL     1       5.323   5.494  17.384  0.00  0.00    +0.000 A 
ATOM      4  C   UNL     1       6.604   5.771  16.856  0.00  0.00    +0.000 A 
ATOM      5  C   UNL     1       6.929   4.877  15.852  0.00  0.00    +0.000 A 
ATOM      6  S   UNL     1       5.679   3.722  15.575  0.00  0.00    +0.000 S 
ATOM      7  C   UNL     1       4.718   4.415  16.774  0.00  0.00    +0.000 A 
ATOM      8  C   UNL     1       3.431   4.020  17.201  0.00  0.00    +0.000 A 
ATOM      9  N   UNL     1       2.609   3.062  16.859  0.00  0.00    +0.000 NA
ATOM     10  N   UNL     1       1.511   3.225  17.691  0.00  0.00    +0.000 NA
ATOM     11  N   UNL     1       1.673   4.256  18.521  0.00  0.00    +0.000 NA
ATOM     12  N   UNL     1       2.882   4.755  18.209  0.00  0.00    +0.000 N 
ENDROOT
BRANCH   1  13
ATOM     13  O   UNL     1       2.783   6.349  19.838  0.00  0.00    +0.000 OA
BRANCH  13  18
ATOM     14 BR   UNL     1      -0.119  11.578  18.799  0.00  0.00    +0.000 Br
ATOM     15  C   UNL     1       0.786   9.954  19.138  0.00  0.00    +0.000 A 
ATOM     16  C   UNL     1       1.441   9.293  18.097  0.00  0.00    +0.000 A 
ATOM     17  C   UNL     1       2.117   8.098  18.350  0.00  0.00    +0.000 A 
ATOM     18  C   UNL     1       2.135   7.583  19.647  0.00  0.00    +0.000 A 
ATOM     19  C   UNL     1       1.447   8.221  20.679  0.00  0.00    +0.000 A 
ATOM     20  C   UNL     1       0.784   9.422  20.425  0.00  0.00    +0.000 A 
ENDBRANCH  13  18
ENDBRANCH   1  13
TORSDOF 2
ENDMDL
MODEL 3
REMARK VINA RESULT:      -7.1      1.968      3.436
REMARK  Name = 
REMARK  2 active torsions:
REMARK  status: ('A' for Active; 'I' for Inactive)
REMARK    1  A    between atoms: C_5  and  O_6
REMARK    2  A    between atoms: O_6  and  C_7
REMARK                            x       y       z     vdW  Elec       q    Type
REMARK                         _______ _______ _______ _____ _____    ______ ____
ROOT
ATOM      1  C   UNL     1       3.066   6.042  18.052  0.00  0.00    +0.000 A 
ATOM      2  N   UNL     1       2.009   5.270  18.098  0.00  0.00    +0.000 NA
ATOM      3  C   UNL     1       2.289   3.906  18.376  0.00  0.00    +0.000 A 
ATOM      4  C   UNL     1       1.292   2.908  18.449  0.00  0.00    +0.000 A 
ATOM      5  C   UNL     1       1.849   1.671  18.717  0.00  0.00    +0.000 A 
ATOM      6  S   UNL     1       3.564   1.744  18.868  0.00  0.00    +0.000 S 
ATOM      7  C   UNL     1       3.557   3.407  18.588  0.00  0.00    +0.000 A 
ATOM      8  C   UNL     1       4.658   4.291  18.543  0.00  0.00    +0.000 A 
ATOM      9  N   UNL     1       5.951   4.149  18.678  0.00  0.00    +0.000 NA
ATOM     10  N   UNL     1       6.468   5.423  18.497  0.00  0.00    +0.000 NA
ATOM     11  N   UNL     1       5.505   6.312  18.252  0.00  0.00    +0.000 NA
ATOM     12  N   UNL     1       4.367   5.597  18.282  0.00  0.00    +0.000 N 
ENDROOT
BRANCH   1  13
ATOM     13  O   UNL     1       3.072   7.400  17.756  0.00  0.00    +0.000 OA
BRANCH  13  18
ATOM     14 BR   UNL     1      -0.615  11.144  20.795  0.00  0.00    +0.000 Br
ATOM     15  C   UNL     1       0.539   9.974  19.862  0.00  0.00    +0.000 A 
ATOM     16  C   UNL     1       0.832  10.211  18.518  0.00  0.00    +0.000 A 
ATOM     17  C   UNL     1       1.692   9.350  17.832  0.00  0.00    +0.000 A 
ATOM     18  C   UNL     1       2.256   8.266  18.506  0.00  0.00    +0.000 A 
ATOM     19  C   UNL     1       1.934   8.006  19.838  0.00  0.00    +0.000 A 
ATOM     20  C   UNL     1       1.084   8.875  20.523  0.00  0.00    +0.000 A 
ENDBRANCH  13  18
ENDBRANCH   1  13
TORSDOF 2
ENDMDL
MODEL 4
REMARK VINA RESULT:      -7.1      5.131      7.469
REMARK  Name = 
REMARK  2 active torsions:
REMARK  status: ('A' for Active; 'I' for Inactive)
REMARK    1  A    between atoms: C_5  and  O_6
REMARK    2  A    between atoms: O_6  and  C_7
REMARK                            x       y       z     vdW  Elec       q    Type
REMARK                         _______ _______ _______ _____ _____    ______ ____
ROOT
ATOM      1  C   UNL     1       1.229   9.112  20.193  0.00  0.00    +0.000 A 
ATOM      2  N   UNL     1       0.685   9.511  19.070  0.00  0.00    +0.000 NA
ATOM      3  C   UNL     1      -0.367  10.451  19.227  0.00  0.00    +0.000 A 
ATOM      4  C   UNL     1      -1.096  10.990  18.143  0.00  0.00    +0.000 A 
ATOM      5  C   UNL     1      -2.070  11.864  18.589  0.00  0.00    +0.000 A 
ATOM      6  S   UNL     1      -2.084  12.009  20.306  0.00  0.00    +0.000 S 
ATOM      7  C   UNL     1      -0.800  10.925  20.447  0.00  0.00    +0.000 A 
ATOM      8  C   UNL     1      -0.164  10.471  21.624  0.00  0.00    +0.000 A 
ATOM      9  N   UNL     1      -0.333  10.699  22.901  0.00  0.00    +0.000 NA
ATOM     10  N   UNL     1       0.621   9.913  23.530  0.00  0.00    +0.000 NA
ATOM     11  N   UNL     1       1.344   9.221  22.649  0.00  0.00    +0.000 NA
ATOM     12  N   UNL     1       0.848   9.575  21.451  0.00  0.00    +0.000 N 
ENDROOT
BRANCH   1  13
ATOM     13  O   UNL     1       2.241   8.168  20.318  0.00  0.00    +0.000 OA
BRANCH  13  18
ATOM     14 BR   UNL     1       1.357   2.411  18.608  0.00  0.00    +0.000 Br
ATOM     15  C   UNL     1       1.621   4.202  19.152  0.00  0.00    +0.000 A 
ATOM     16  C   UNL     1       2.149   5.130  18.253  0.00  0.00    +0.000 A 
ATOM     17  C   UNL     1       2.336   6.455  18.653  0.00  0.00    +0.000 A 
ATOM     18  C   UNL     1       1.983   6.836  19.948  0.00  0.00    +0.000 A 
ATOM     19  C   UNL     1       1.492   5.900  20.860  0.00  0.00    +0.000 A 
ATOM     20  C   UNL     1       1.295   4.580  20.452  0.00  0.00    +0.000 A 
ENDBRANCH  13  18
ENDBRANCH   1  13
TORSDOF 2
ENDMDL
MODEL 5
REMARK VINA RESULT:      -7.1      1.964      3.302
REMARK  Name = 
REMARK  2 active torsions:
REMARK  status: ('A' for Active; 'I' for Inactive)
REMARK    1  A    between atoms: C_5  and  O_6
REMARK    2  A    between atoms: O_6  and  C_7
REMARK                            x       y       z     vdW  Elec       q    Type
REMARK                         _______ _______ _______ _____ _____    ______ ____
ROOT
ATOM      1  C   UNL     1       3.110   6.063  18.056  0.00  0.00    +0.000 A 
ATOM      2  N   UNL     1       2.047   5.298  18.101  0.00  0.00    +0.000 NA
ATOM      3  C   UNL     1       2.317   3.931  18.371  0.00  0.00    +0.000 A 
ATOM      4  C   UNL     1       1.312   2.940  18.442  0.00  0.00    +0.000 A 
ATOM      5  C   UNL     1       1.860   1.698  18.701  0.00  0.00    +0.000 A 
ATOM      6  S   UNL     1       3.577   1.757  18.848  0.00  0.00    +0.000 S 
ATOM      7  C   UNL     1       3.581   3.422  18.577  0.00  0.00    +0.000 A 
ATOM      8  C   UNL     1       4.689   4.298  18.533  0.00  0.00    +0.000 A 
ATOM      9  N   UNL     1       5.981   4.145  18.664  0.00  0.00    +0.000 NA
ATOM     10  N   UNL     1       6.507   5.416  18.489  0.00  0.00    +0.000 NA
ATOM     11  N   UNL     1       5.551   6.314  18.251  0.00  0.00    +0.000 NA
ATOM     12  N   UNL     1       4.408   5.607  18.280  0.00  0.00    +0.000 N 
ENDROOT
BRANCH   1  13
ATOM     13  O   UNL     1       3.125   7.422  17.767  0.00  0.00    +0.000 OA
BRANCH  13  18
ATOM     14 BR   UNL     1      -0.574  11.092  20.881  0.00  0.00    +0.000 Br
ATOM     15  C   UNL     1       0.571   9.955  19.898  0.00  0.00    +0.000 A 
ATOM     16  C   UNL     1       1.127   8.830  20.511  0.00  0.00    +0.000 A 
ATOM     17  C   UNL     1       1.966   7.985  19.781  0.00  0.00    +0.000 A 
ATOM     18  C   UNL     1       2.231   8.274  18.441  0.00  0.00    +0.000 A 
ATOM     19  C   UNL     1       1.708   9.419  17.840  0.00  0.00    +0.000 A 
ATOM     20  C   UNL     1       0.860  10.253  18.568  0.00  0.00    +0.000 A 
ENDBRANCH  13  18
ENDBRANCH   1  13
TORSDOF 2
ENDMDL
MODEL 6
REMARK VINA RESULT:      -6.9      1.837      3.000
REMARK  Name = 
REMARK  2 active torsions:
REMARK  status: ('A' for Active; 'I' for Inactive)
REMARK    1  A    between atoms: C_5  and  O_6
REMARK    2  A    between atoms: O_6  and  C_7
REMARK                            x       y       z     vdW  Elec       q    Type
REMARK                         _______ _______ _______ _____ _____    ______ ____
ROOT
ATOM      1  C   UNL     1       4.290   4.561  18.006  0.00  0.00    +0.000 A 
ATOM      2  N   UNL     1       4.045   4.360  16.734  0.00  0.00    +0.000 NA
ATOM      3  C   UNL     1       5.188   4.440  15.896  0.00  0.00    +0.000 A 
ATOM      4  C   UNL     1       5.136   4.274  14.494  0.00  0.00    +0.000 A 
ATOM      5  C   UNL     1       6.391   4.419  13.932  0.00  0.00    +0.000 A 
ATOM      6  S   UNL     1       7.602   4.758  15.111  0.00  0.00    +0.000 S 
ATOM      7  C   UNL     1       6.463   4.701  16.354  0.00  0.00    +0.000 A 
ATOM      8  C   UNL     1       6.668   4.893  17.738  0.00  0.00    +0.000 A 
ATOM      9  N   UNL     1       7.711   5.166  18.478  0.00  0.00    +0.000 NA
ATOM     10  N   UNL     1       7.217   5.242  19.772  0.00  0.00    +0.000 NA
ATOM     11  N   UNL     1       5.902   5.025  19.807  0.00  0.00    +0.000 NA
ATOM     12  N   UNL     1       5.559   4.805  18.526  0.00  0.00    +0.000 N 
ENDROOT
BRANCH   1  13
ATOM     13  O   UNL     1       3.345   4.582  19.024  0.00  0.00    +0.000 OA
BRANCH  13  18
ATOM     14 BR   UNL     1       0.613   9.780  20.562  0.00  0.00    +0.000 Br
ATOM     15  C   UNL     1       1.463   8.166  20.068  0.00  0.00    +0.000 A 
ATOM     16  C   UNL     1       1.407   7.062  20.921  0.00  0.00    +0.000 A 
ATOM     17  C   UNL     1       2.027   5.867  20.551  0.00  0.00    +0.000 A 
ATOM     18  C   UNL     1       2.691   5.791  19.325  0.00  0.00    +0.000 A 
ATOM     19  C   UNL     1       2.781   6.905  18.490  0.00  0.00    +0.000 A 
ATOM     20  C   UNL     1       2.149   8.093  18.858  0.00  0.00    +0.000 A 
ENDBRANCH  13  18
ENDBRANCH   1  13
TORSDOF 2
ENDMDL
MODEL 7
REMARK VINA RESULT:      -6.9      2.140      3.282
REMARK  Name = 
REMARK  2 active torsions:
REMARK  status: ('A' for Active; 'I' for Inactive)
REMARK    1  A    between atoms: C_5  and  O_6
REMARK    2  A    between atoms: O_6  and  C_7
REMARK                            x       y       z     vdW  Elec       q    Type
REMARK                         _______ _______ _______ _____ _____    ______ ____
ROOT
ATOM      1  C   UNL     1       2.554   6.455  19.350  0.00  0.00    +0.000 A 
ATOM      2  N   UNL     1       1.779   5.579  19.940  0.00  0.00    +0.000 NA
ATOM      3  C   UNL     1       1.846   4.272  19.390  0.00  0.00    +0.000 A 
ATOM      4  C   UNL     1       1.076   3.188  19.867  0.00  0.00    +0.000 A 
ATOM      5  C   UNL     1       1.329   2.041  19.138  0.00  0.00    +0.000 A 
ATOM      6  S   UNL     1       2.488   2.303  17.888  0.00  0.00    +0.000 S 
ATOM      7  C   UNL     1       2.652   3.923  18.327  0.00  0.00    +0.000 A 
ATOM      8  C   UNL     1       3.479   4.908  17.742  0.00  0.00    +0.000 A 
ATOM      9  N   UNL     1       4.324   4.917  16.743  0.00  0.00    +0.000 NA
ATOM     10  N   UNL     1       4.787   6.223  16.684  0.00  0.00    +0.000 NA
ATOM     11  N   UNL     1       4.228   6.985  17.625  0.00  0.00    +0.000 NA
ATOM     12  N   UNL     1       3.406   6.154  18.289  0.00  0.00    +0.000 N 
ENDROOT
BRANCH   1  13
ATOM     13  O   UNL     1       2.642   7.806  19.664  0.00  0.00    +0.000 OA
BRANCH  13  18
ATOM     14 BR   UNL     1      -2.072  11.537  18.824  0.00  0.00    +0.000 Br
ATOM     15  C   UNL     1      -0.605  10.371  19.071  0.00  0.00    +0.000 A 
ATOM     16  C   UNL     1      -0.287   9.916  20.352  0.00  0.00    +0.000 A 
ATOM     17  C   UNL     1       0.792   9.047  20.531  0.00  0.00    +0.000 A 
ATOM     18  C   UNL     1       1.534   8.638  19.422  0.00  0.00    +0.000 A 
ATOM     19  C   UNL     1       1.241   9.123  18.148  0.00  0.00    +0.000 A 
ATOM     20  C   UNL     1       0.155   9.981  17.970  0.00  0.00    +0.000 A 
ENDBRANCH  13  18
ENDBRANCH   1  13
TORSDOF 2
ENDMDL
MODEL 8
REMARK VINA RESULT:      -6.9      5.106      7.331
REMARK  Name = 
REMARK  2 active torsions:
REMARK  status: ('A' for Active; 'I' for Inactive)
REMARK    1  A    between atoms: C_5  and  O_6
REMARK    2  A    between atoms: O_6  and  C_7
REMARK                            x       y       z     vdW  Elec       q    Type
REMARK                         _______ _______ _______ _____ _____    ______ ____
ROOT
ATOM      1  C   UNL     1       1.200   9.097  20.182  0.00  0.00    +0.000 A 
ATOM      2  N   UNL     1       0.734   9.442  19.007  0.00  0.00    +0.000 NA
ATOM      3  C   UNL     1      -0.354  10.352  19.051  0.00  0.00    +0.000 A 
ATOM      4  C   UNL     1      -1.012  10.832  17.896  0.00  0.00    +0.000 A 
ATOM      5  C   UNL     1      -2.042  11.690  18.235  0.00  0.00    +0.000 A 
ATOM      6  S   UNL     1      -2.194  11.890  19.940  0.00  0.00    +0.000 S 
ATOM      7  C   UNL     1      -0.894  10.852  20.217  0.00  0.00    +0.000 A 
ATOM      8  C   UNL     1      -0.338  10.457  21.454  0.00  0.00    +0.000 A 
ATOM      9  N   UNL     1      -0.612  10.721  22.706  0.00  0.00    +0.000 NA
ATOM     10  N   UNL     1       0.312   9.986  23.433  0.00  0.00    +0.000 NA
ATOM     11  N   UNL     1       1.122   9.289  22.634  0.00  0.00    +0.000 NA
ATOM     12  N   UNL     1       0.710   9.588  21.390  0.00  0.00    +0.000 N 
ENDROOT
BRANCH   1  13
ATOM     13  O   UNL     1       2.227   8.190  20.417  0.00  0.00    +0.000 OA
BRANCH  13  18
ATOM     14 BR   UNL     1       1.395   2.476  18.544  0.00  0.00    +0.000 Br
ATOM     15  C   UNL     1       1.665   4.257  19.116  0.00  0.00    +0.000 A 
ATOM     16  C   UNL     1       1.296   4.635  20.408  0.00  0.00    +0.000 A 
ATOM     17  C   UNL     1       1.505   5.949  20.833  0.00  0.00    +0.000 A 
ATOM     18  C   UNL     1       2.089   6.867  19.959  0.00  0.00    +0.000 A 
ATOM     19  C   UNL     1       2.422   6.500  18.655  0.00  0.00    +0.000 A 
ATOM     20  C   UNL     1       2.224   5.183  18.238  0.00  0.00    +0.000 A 
ENDBRANCH  13  18
ENDBRANCH   1  13
TORSDOF 2
ENDMDL
MODEL 9
REMARK VINA RESULT:      -6.9      2.136      3.461
REMARK  Name = 
REMARK  2 active torsions:
REMARK  status: ('A' for Active; 'I' for Inactive)
REMARK    1  A    between atoms: C_5  and  O_6
REMARK    2  A    between atoms: O_6  and  C_7
REMARK                            x       y       z     vdW  Elec       q    Type
REMARK                         _______ _______ _______ _____ _____    ______ ____
ROOT
ATOM      1  C   UNL     1       2.608   6.461  19.300  0.00  0.00    +0.000 A 
ATOM      2  N   UNL     1       1.791   5.627  19.895  0.00  0.00    +0.000 NA
ATOM      3  C   UNL     1       1.804   4.311  19.363  0.00  0.00    +0.000 A 
ATOM      4  C   UNL     1       0.984   3.268  19.849  0.00  0.00    +0.000 A 
ATOM      5  C   UNL     1       1.192   2.102  19.136  0.00  0.00    +0.000 A 
ATOM      6  S   UNL     1       2.371   2.296  17.893  0.00  0.00    +0.000 S 
ATOM      7  C   UNL     1       2.602   3.914  18.311  0.00  0.00    +0.000 A 
ATOM      8  C   UNL     1       3.476   4.853  17.719  0.00  0.00    +0.000 A 
ATOM      9  N   UNL     1       4.327   4.812  16.727  0.00  0.00    +0.000 NA
ATOM     10  N   UNL     1       4.848   6.095  16.655  0.00  0.00    +0.000 NA
ATOM     11  N   UNL     1       4.315   6.894  17.581  0.00  0.00    +0.000 NA
ATOM     12  N   UNL     1       3.453   6.109  18.250  0.00  0.00    +0.000 N 
ENDROOT
BRANCH   1  13
ATOM     13  O   UNL     1       2.753   7.811  19.597  0.00  0.00    +0.000 OA
BRANCH  13  18
ATOM     14 BR   UNL     1      -2.078  11.375  18.697  0.00  0.00    +0.000 Br
ATOM     15  C   UNL     1      -0.574  10.270  18.992  0.00  0.00    +0.000 A 
ATOM     16  C   UNL     1       0.237   9.897  17.918  0.00  0.00    +0.000 A 
ATOM     17  C   UNL     1       1.353   9.088  18.139  0.00  0.00    +0.000 A 
ATOM     18  C   UNL     1       1.649   8.669  19.437  0.00  0.00    +0.000 A 
ATOM     19  C   UNL     1       0.818   9.008  20.504  0.00  0.00    +0.000 A 
ATOM     20  C   UNL     1      -0.289   9.827  20.282  0.00  0.00    +0.000 A 
ENDBRANCH  13  18
ENDBRANCH   1  13
TORSDOF 2
ENDMDL
