MODEL 1
REMARK VINA RESULT:      -7.6      0.000      0.000
REMARK  Name = 
REMARK  7 active torsions:
REMARK  status: ('A' for Active; 'I' for Inactive)
REMARK    1  A    between atoms: C_1  and  C_2
REMARK    2  A    between atoms: C_2  and  C_3
REMARK    3  A    between atoms: C_2  and  N_10
REMARK    4  A    between atoms: C_3  and  C_4
REMARK    5  A    between atoms: C_11  and  C_13
REMARK    6  A    between atoms: C_17  and  C_18
REMARK    7  A    between atoms: C_18  and  C_19
REMARK                            x       y       z     vdW  Elec       q    Type
REMARK                         _______ _______ _______ _____ _____    ______ ____
ROOT
ATOM      1  C   UNL     1       2.775   7.620  17.856  0.00  0.00    +0.000 A 
ATOM      2  C   UNL     1       4.111   7.371  17.524  0.00  0.00    +0.000 A 
ATOM      3  C   UNL     1       4.547   6.051  17.362  0.00  0.00    +0.000 A 
ATOM      4  C   UNL     1       3.656   4.981  17.513  0.00  0.00    +0.000 A 
ATOM      5  C   UNL     1       2.315   5.207  17.842  0.00  0.00    +0.000 A 
ATOM      6  C   UNL     1       1.893   6.536  18.020  0.00  0.00    +0.000 A 
ENDROOT
BRANCH   1   8
ATOM      7  N   UNL     1       0.959   9.158  18.513  0.00  0.00    +0.000 N 
ATOM      8  C   UNL     1       2.196   8.996  17.916  0.00  0.00    +0.000 C 
ATOM      9  O   UNL     1       2.826   9.937  17.439  0.00  0.00    +0.000 OA
ATOM     10  H   UNL     1       0.375   8.336  18.600  0.00  0.00    +0.000 HD
BRANCH   7  12
ATOM     11  C   UNL     1      -1.234  10.281  18.349  0.00  0.00    +0.000 C 
ATOM     12  C   UNL     1       0.277  10.462  18.508  0.00  0.00    +0.000 C 
BRANCH  12  13
ATOM     13  C   UNL     1       0.611  11.369  19.716  0.00  0.00    +0.000 C 
BRANCH  13  14
ATOM     14  C   UNL     1       0.362  10.754  21.065  0.00  0.00    +0.000 A 
ATOM     15  C   UNL     1      -0.545  11.317  21.956  0.00  0.00    +0.000 A 
ATOM     16  N   UNL     1      -0.815  10.778  23.171  0.00  0.00    +0.000 NA
ATOM     17  C   UNL     1      -0.144   9.641  23.457  0.00  0.00    +0.000 A 
ATOM     18  C   UNL     1       0.762   9.073  22.581  0.00  0.00    +0.000 A 
ATOM     19  N   UNL     1       1.040   9.615  21.373  0.00  0.00    +0.000 NA
ENDBRANCH  13  14
ENDBRANCH  12  13
ENDBRANCH   7  12
ENDBRANCH   1   8
BRANCH   5  20
ATOM     20  C   UNL     1       1.301   4.087  17.836  0.00  0.00    +0.000 C 
BRANCH  20  21
ATOM     21  C   UNL     1       1.082   3.156  19.053  0.00  0.00    +0.000 C 
ATOM     22  C   UNL     1       0.922   3.849  20.411  0.00  0.00    +0.000 C 
ATOM     23  C   UNL     1       2.246   4.136  21.116  0.00  0.00    +0.000 C 
ATOM     24  N   UNL     1       3.124   2.970  21.204  0.00  0.00    +0.000 NA
ATOM     25  C   UNL     1       3.359   2.351  19.903  0.00  0.00    +0.000 C 
ATOM     26  C   UNL     1       2.072   1.992  19.171  0.00  0.00    +0.000 C 
ATOM     27  H   UNL     1       2.717   2.286  21.840  0.00  0.00    +0.000 HD
ENDBRANCH  20  21
ENDBRANCH   5  20
TORSDOF 6
ENDMDL
MODEL 2
REMARK VINA RESULT:      -7.3      1.238      1.701
REMARK  Name = 
REMARK  7 active torsions:
REMARK  status: ('A' for Active; 'I' for Inactive)
REMARK    1  A    between atoms: C_1  and  C_2
REMARK    2  A    between atoms: C_2  and  C_3
REMARK    3  A    between atoms: C_2  and  N_10
REMARK    4  A    between atoms: C_3  and  C_4
REMARK    5  A    between atoms: C_11  and  C_13
REMARK    6  A    between atoms: C_17  and  C_18
REMARK    7  A    between atoms: C_18  and  C_19
REMARK                            x       y       z     vdW  Elec       q    Type
REMARK                         _______ _______ _______ _____ _____    ______ ____
ROOT
ATOM      1  C   UNL     1       2.746   7.290  18.082  0.00  0.00    +0.000 A 
ATOM      2  C   UNL     1       4.032   7.182  17.541  0.00  0.00    +0.000 A 
ATOM      3  C   UNL     1       4.510   5.927  17.146  0.00  0.00    +0.000 A 
ATOM      4  C   UNL     1       3.708   4.785  17.272  0.00  0.00    +0.000 A 
ATOM      5  C   UNL     1       2.419   4.871  17.809  0.00  0.00    +0.000 A 
ATOM      6  C   UNL     1       1.957   6.134  18.219  0.00  0.00    +0.000 A 
ENDROOT
BRANCH   1   8
ATOM      7  N   UNL     1       1.446   8.728  19.612  0.00  0.00    +0.000 N 
ATOM      8  C   UNL     1       2.109   8.603  18.404  0.00  0.00    +0.000 C 
ATOM      9  O   UNL     1       2.189   9.527  17.598  0.00  0.00    +0.000 OA
ATOM     10  H   UNL     1       1.157   7.874  20.072  0.00  0.00    +0.000 HD
BRANCH   7  12
ATOM     11  C   UNL     1      -0.575  10.054  19.108  0.00  0.00    +0.000 C 
ATOM     12  C   UNL     1       0.700   9.951  19.948  0.00  0.00    +0.000 C 
BRANCH  12  13
ATOM     13  C   UNL     1       0.398  10.130  21.454  0.00  0.00    +0.000 C 
BRANCH  13  14
ATOM     14  C   UNL     1      -0.016  11.516  21.862  0.00  0.00    +0.000 A 
ATOM     15  C   UNL     1      -1.089  11.724  22.721  0.00  0.00    +0.000 A 
ATOM     16  N   UNL     1      -1.477  12.957  23.131  0.00  0.00    +0.000 NA
ATOM     17  C   UNL     1      -0.737  13.981  22.652  0.00  0.00    +0.000 A 
ATOM     18  C   UNL     1       0.330  13.787  21.794  0.00  0.00    +0.000 A 
ATOM     19  N   UNL     1       0.711  12.559  21.377  0.00  0.00    +0.000 NA
ENDBRANCH  13  14
ENDBRANCH  12  13
ENDBRANCH   7  12
ENDBRANCH   1   8
BRANCH   5  20
ATOM     20  C   UNL     1       1.477   3.691  17.792  0.00  0.00    +0.000 C 
BRANCH  20  21
ATOM     21  C   UNL     1       1.392   2.677  18.958  0.00  0.00    +0.000 C 
ATOM     22  C   UNL     1       0.921   3.237  20.305  0.00  0.00    +0.000 C 
ATOM     23  C   UNL     1       2.046   3.824  21.155  0.00  0.00    +0.000 C 
ATOM     24  N   UNL     1       3.187   2.924  21.313  0.00  0.00    +0.000 NA
ATOM     25  C   UNL     1       3.705   2.450  20.032  0.00  0.00    +0.000 C 
ATOM     26  C   UNL     1       2.637   1.806  19.158  0.00  0.00    +0.000 C 
ATOM     27  H   UNL     1       2.914   2.126  21.886  0.00  0.00    +0.000 HD
ENDBRANCH  20  21
ENDBRANCH   5  20
TORSDOF 6
ENDMDL
MODEL 3
REMARK VINA RESULT:      -7.2      2.200      3.430
REMARK  Name = 
REMARK  7 active torsions:
REMARK  status: ('A' for Active; 'I' for Inactive)
REMARK    1  A    between atoms: C_1  and  C_2
REMARK    2  A    between atoms: C_2  and  C_3
REMARK    3  A    between atoms: C_2  and  N_10
REMARK    4  A    between atoms: C_3  and  C_4
REMARK    5  A    between atoms: C_11  and  C_13
REMARK    6  A    between atoms: C_17  and  C_18
REMARK    7  A    between atoms: C_18  and  C_19
REMARK                            x       y       z     vdW  Elec       q    Type
REMARK                         _______ _______ _______ _____ _____    ______ ____
ROOT
ATOM      1  C   UNL     1       2.175   7.334  18.839  0.00  0.00    +0.000 A 
ATOM      2  C   UNL     1       2.010   6.831  20.134  0.00  0.00    +0.000 A 
ATOM      3  C   UNL     1       2.403   5.518  20.418  0.00  0.00    +0.000 A 
ATOM      4  C   UNL     1       2.972   4.711  19.424  0.00  0.00    +0.000 A 
ATOM      5  C   UNL     1       3.148   5.195  18.123  0.00  0.00    +0.000 A 
ATOM      6  C   UNL     1       2.733   6.509  17.845  0.00  0.00    +0.000 A 
ENDROOT
BRANCH   1   8
ATOM      7  N   UNL     1       1.218   9.543  19.391  0.00  0.00    +0.000 N 
ATOM      8  C   UNL     1       1.908   8.761  18.482  0.00  0.00    +0.000 C 
ATOM      9  O   UNL     1       2.303   9.198  17.404  0.00  0.00    +0.000 OA
ATOM     10  H   UNL     1       0.668   9.062  20.092  0.00  0.00    +0.000 HD
BRANCH   7  12
ATOM     11  C   UNL     1      -0.599  10.954  18.496  0.00  0.00    +0.000 C 
ATOM     12  C   UNL     1       0.821  10.921  19.063  0.00  0.00    +0.000 C 
BRANCH  12  13
ATOM     13  C   UNL     1       0.990  11.934  20.220  0.00  0.00    +0.000 C 
BRANCH  13  14
ATOM     14  C   UNL     1       0.005  11.786  21.346  0.00  0.00    +0.000 A 
ATOM     15  C   UNL     1      -0.963  12.756  21.587  0.00  0.00    +0.000 A 
ATOM     16  N   UNL     1      -1.884  12.646  22.577  0.00  0.00    +0.000 NA
ATOM     17  C   UNL     1      -1.804  11.518  23.315  0.00  0.00    +0.000 A 
ATOM     18  C   UNL     1      -0.843  10.549  23.087  0.00  0.00    +0.000 A 
ATOM     19  N   UNL     1       0.081  10.661  22.107  0.00  0.00    +0.000 NA
ENDBRANCH  13  14
ENDBRANCH  12  13
ENDBRANCH   7  12
ENDBRANCH   1   8
BRANCH   5  20
ATOM     20  C   UNL     1       3.916   4.411  17.086  0.00  0.00    +0.000 C 
BRANCH  20  21
ATOM     21  C   UNL     1       5.437   4.147  17.200  0.00  0.00    +0.000 C 
ATOM     22  C   UNL     1       6.241   5.176  18.002  0.00  0.00    +0.000 C 
ATOM     23  C   UNL     1       6.709   6.372  17.176  0.00  0.00    +0.000 C 
ATOM     24  N   UNL     1       7.393   5.996  15.940  0.00  0.00    +0.000 NA
ATOM     25  C   UNL     1       6.601   5.084  15.120  0.00  0.00    +0.000 C 
ATOM     26  C   UNL     1       6.148   3.841  15.877  0.00  0.00    +0.000 C 
ATOM     27  H   UNL     1       8.287   5.562  16.166  0.00  0.00    +0.000 HD
ENDBRANCH  20  21
ENDBRANCH   5  20
TORSDOF 6
ENDMDL
MODEL 4
REMARK VINA RESULT:      -7.2      1.639      2.264
REMARK  Name = 
REMARK  7 active torsions:
REMARK  status: ('A' for Active; 'I' for Inactive)
REMARK    1  A    between atoms: C_1  and  C_2
REMARK    2  A    between atoms: C_2  and  C_3
REMARK    3  A    between atoms: C_2  and  N_10
REMARK    4  A    between atoms: C_3  and  C_4
REMARK    5  A    between atoms: C_11  and  C_13
REMARK    6  A    between atoms: C_17  and  C_18
REMARK    7  A    between atoms: C_18  and  C_19
REMARK                            x       y       z     vdW  Elec       q    Type
REMARK                         _______ _______ _______ _____ _____    ______ ____
ROOT
ATOM      1  C   UNL     1       3.062   6.841  18.185  0.00  0.00    +0.000 A 
ATOM      2  C   UNL     1       4.294   7.054  17.557  0.00  0.00    +0.000 A 
ATOM      3  C   UNL     1       4.911   6.000  16.874  0.00  0.00    +0.000 A 
ATOM      4  C   UNL     1       4.299   4.741  16.800  0.00  0.00    +0.000 A 
ATOM      5  C   UNL     1       3.066   4.507  17.419  0.00  0.00    +0.000 A 
ATOM      6  C   UNL     1       2.466   5.569  18.118  0.00  0.00    +0.000 A 
ENDROOT
BRANCH   1   8
ATOM      7  N   UNL     1       1.992   9.063  18.061  0.00  0.00    +0.000 N 
ATOM      8  C   UNL     1       2.274   7.941  18.819  0.00  0.00    +0.000 C 
ATOM      9  O   UNL     1       1.901   7.822  19.984  0.00  0.00    +0.000 OA
ATOM     10  H   UNL     1       2.571   9.229  17.247  0.00  0.00    +0.000 HD
BRANCH   7  12
ATOM     11  C   UNL     1       2.014  11.527  18.226  0.00  0.00    +0.000 C 
ATOM     12  C   UNL     1       1.319  10.231  18.651  0.00  0.00    +0.000 C 
BRANCH  12  13
ATOM     13  C   UNL     1      -0.204  10.297  18.391  0.00  0.00    +0.000 C 
BRANCH  13  14
ATOM     14  C   UNL     1      -0.995  11.052  19.424  0.00  0.00    +0.000 A 
ATOM     15  C   UNL     1      -0.638  11.023  20.767  0.00  0.00    +0.000 A 
ATOM     16  N   UNL     1      -1.311  11.710  21.723  0.00  0.00    +0.000 NA
ATOM     17  C   UNL     1      -2.357  12.439  21.278  0.00  0.00    +0.000 A 
ATOM     18  C   UNL     1      -2.724  12.473  19.945  0.00  0.00    +0.000 A 
ATOM     19  N   UNL     1      -2.060  11.781  18.993  0.00  0.00    +0.000 NA
ENDBRANCH  13  14
ENDBRANCH  12  13
ENDBRANCH   7  12
ENDBRANCH   1   8
BRANCH   5  20
ATOM     20  C   UNL     1       2.308   3.219  17.206  0.00  0.00    +0.000 C 
BRANCH  20  21
ATOM     21  C   UNL     1       2.262   2.095  18.268  0.00  0.00    +0.000 C 
ATOM     22  C   UNL     1       1.189   2.237  19.354  0.00  0.00    +0.000 C 
ATOM     23  C   UNL     1       1.630   3.080  20.548  0.00  0.00    +0.000 C 
ATOM     24  N   UNL     1       2.916   2.669  21.110  0.00  0.00    +0.000 NA
ATOM     25  C   UNL     1       3.972   2.615  20.102  0.00  0.00    +0.000 C 
ATOM     26  C   UNL     1       3.611   1.743  18.906  0.00  0.00    +0.000 C 
ATOM     27  H   UNL     1       2.818   1.756  21.550  0.00  0.00    +0.000 HD
ENDBRANCH  20  21
ENDBRANCH   5  20
TORSDOF 6
ENDMDL
MODEL 5
REMARK VINA RESULT:      -7.1      2.505      7.534
REMARK  Name = 
REMARK  7 active torsions:
REMARK  status: ('A' for Active; 'I' for Inactive)
REMARK    1  A    between atoms: C_1  and  C_2
REMARK    2  A    between atoms: C_2  and  C_3
REMARK    3  A    between atoms: C_2  and  N_10
REMARK    4  A    between atoms: C_3  and  C_4
REMARK    5  A    between atoms: C_11  and  C_13
REMARK    6  A    between atoms: C_17  and  C_18
REMARK    7  A    between atoms: C_18  and  C_19
REMARK                            x       y       z     vdW  Elec       q    Type
REMARK                         _______ _______ _______ _____ _____    ______ ____
ROOT
ATOM      1  C   UNL     1       2.115   8.082  19.000  0.00  0.00    +0.000 A 
ATOM      2  C   UNL     1       1.885   7.961  20.375  0.00  0.00    +0.000 A 
ATOM      3  C   UNL     1       0.843   8.684  20.965  0.00  0.00    +0.000 A 
ATOM      4  C   UNL     1       0.020   9.513  20.191  0.00  0.00    +0.000 A 
ATOM      5  C   UNL     1       0.231   9.647  18.815  0.00  0.00    +0.000 A 
ATOM      6  C   UNL     1       1.292   8.930  18.236  0.00  0.00    +0.000 A 
ENDROOT
BRANCH   1   8
ATOM      7  N   UNL     1       3.727   6.212  18.952  0.00  0.00    +0.000 N 
ATOM      8  C   UNL     1       3.116   7.248  18.268  0.00  0.00    +0.000 C 
ATOM      9  O   UNL     1       3.369   7.501  17.092  0.00  0.00    +0.000 OA
ATOM     10  H   UNL     1       3.711   6.251  19.963  0.00  0.00    +0.000 HD
BRANCH   7  12
ATOM     11  C   UNL     1       6.033   5.378  19.239  0.00  0.00    +0.000 C 
ATOM     12  C   UNL     1       4.801   5.421  18.332  0.00  0.00    +0.000 C 
BRANCH  12  13
ATOM     13  C   UNL     1       4.382   4.001  17.885  0.00  0.00    +0.000 C 
BRANCH  13  14
ATOM     14  C   UNL     1       3.121   3.479  18.516  0.00  0.00    +0.000 A 
ATOM     15  C   UNL     1       1.979   3.248  17.758  0.00  0.00    +0.000 A 
ATOM     16  N   UNL     1       0.831   2.754  18.287  0.00  0.00    +0.000 NA
ATOM     17  C   UNL     1       0.875   2.491  19.611  0.00  0.00    +0.000 A 
ATOM     18  C   UNL     1       2.004   2.720  20.376  0.00  0.00    +0.000 A 
ATOM     19  N   UNL     1       3.145   3.221  19.852  0.00  0.00    +0.000 NA
ENDBRANCH  13  14
ENDBRANCH  12  13
ENDBRANCH   7  12
ENDBRANCH   1   8
BRANCH   5  20
ATOM     20  C   UNL     1      -0.745  10.391  17.935  0.00  0.00    +0.000 C 
BRANCH  20  21
ATOM     21  C   UNL     1      -2.109   9.793  17.513  0.00  0.00    +0.000 C 
ATOM     22  C   UNL     1      -2.395   9.764  16.007  0.00  0.00    +0.000 C 
ATOM     23  C   UNL     1      -3.016  11.052  15.473  0.00  0.00    +0.000 C 
ATOM     24  N   UNL     1      -4.181  11.498  16.236  0.00  0.00    +0.000 NA
ATOM     25  C   UNL     1      -3.899  11.618  17.664  0.00  0.00    +0.000 C 
ATOM     26  C   UNL     1      -3.325  10.342  18.268  0.00  0.00    +0.000 C 
ATOM     27  H   UNL     1      -4.951  10.845  16.094  0.00  0.00    +0.000 HD
ENDBRANCH  20  21
ENDBRANCH   5  20
TORSDOF 6
ENDMDL
MODEL 6
REMARK VINA RESULT:      -7.1      1.474      1.941
REMARK  Name = 
REMARK  7 active torsions:
REMARK  status: ('A' for Active; 'I' for Inactive)
REMARK    1  A    between atoms: C_1  and  C_2
REMARK    2  A    between atoms: C_2  and  C_3
REMARK    3  A    between atoms: C_2  and  N_10
REMARK    4  A    between atoms: C_3  and  C_4
REMARK    5  A    between atoms: C_11  and  C_13
REMARK    6  A    between atoms: C_17  and  C_18
REMARK    7  A    between atoms: C_18  and  C_19
REMARK                            x       y       z     vdW  Elec       q    Type
REMARK                         _______ _______ _______ _____ _____    ______ ____
ROOT
ATOM      1  C   UNL     1       2.646   7.650  18.033  0.00  0.00    +0.000 A 
ATOM      2  C   UNL     1       4.020   7.504  17.813  0.00  0.00    +0.000 A 
ATOM      3  C   UNL     1       4.562   6.222  17.667  0.00  0.00    +0.000 A 
ATOM      4  C   UNL     1       3.741   5.089  17.722  0.00  0.00    +0.000 A 
ATOM      5  C   UNL     1       2.364   5.212  17.938  0.00  0.00    +0.000 A 
ATOM      6  C   UNL     1       1.834   6.504  18.102  0.00  0.00    +0.000 A 
ENDROOT
BRANCH   1   8
ATOM      7  N   UNL     1       0.798   9.099  18.798  0.00  0.00    +0.000 N 
ATOM      8  C   UNL     1       1.966   8.981  18.067  0.00  0.00    +0.000 C 
ATOM      9  O   UNL     1       2.456   9.925  17.450  0.00  0.00    +0.000 OA
ATOM     10  H   UNL     1       0.299   8.245  19.014  0.00  0.00    +0.000 HD
BRANCH   7  12
ATOM     11  C   UNL     1      -1.295  10.151  18.020  0.00  0.00    +0.000 C 
ATOM     12  C   UNL     1       0.015  10.344  18.786  0.00  0.00    +0.000 C 
BRANCH  12  13
ATOM     13  C   UNL     1      -0.234  10.964  20.181  0.00  0.00    +0.000 C 
BRANCH  13  14
ATOM     14  C   UNL     1       0.632  12.146  20.519  0.00  0.00    +0.000 A 
ATOM     15  C   UNL     1       0.314  12.993  21.574  0.00  0.00    +0.000 A 
ATOM     16  N   UNL     1       1.083  14.054  21.925  0.00  0.00    +0.000 NA
ATOM     17  C   UNL     1       2.195  14.229  21.178  0.00  0.00    +0.000 A 
ATOM     18  C   UNL     1       2.520  13.395  20.124  0.00  0.00    +0.000 A 
ATOM     19  N   UNL     1       1.749  12.344  19.767  0.00  0.00    +0.000 NA
ENDBRANCH  13  14
ENDBRANCH  12  13
ENDBRANCH   7  12
ENDBRANCH   1   8
BRANCH   5  20
ATOM     20  C   UNL     1       1.437   4.024  17.826  0.00  0.00    +0.000 C 
BRANCH  20  21
ATOM     21  C   UNL     1       1.110   3.108  19.030  0.00  0.00    +0.000 C 
ATOM     22  C   UNL     1       0.872   3.814  20.369  0.00  0.00    +0.000 C 
ATOM     23  C   UNL     1       2.150   4.073  21.164  0.00  0.00    +0.000 C 
ATOM     24  N   UNL     1       2.990   2.886  21.320  0.00  0.00    +0.000 NA
ATOM     25  C   UNL     1       3.300   2.251  20.042  0.00  0.00    +0.000 C 
ATOM     26  C   UNL     1       2.058   1.920  19.223  0.00  0.00    +0.000 C 
ATOM     27  H   UNL     1       2.522   2.216  21.929  0.00  0.00    +0.000 HD
ENDBRANCH  20  21
ENDBRANCH   5  20
TORSDOF 6
ENDMDL
MODEL 7
REMARK VINA RESULT:      -7.1      1.612      2.664
REMARK  Name = 
REMARK  7 active torsions:
REMARK  status: ('A' for Active; 'I' for Inactive)
REMARK    1  A    between atoms: C_1  and  C_2
REMARK    2  A    between atoms: C_2  and  C_3
REMARK    3  A    between atoms: C_2  and  N_10
REMARK    4  A    between atoms: C_3  and  C_4
REMARK    5  A    between atoms: C_11  and  C_13
REMARK    6  A    between atoms: C_17  and  C_18
REMARK    7  A    between atoms: C_18  and  C_19
REMARK                            x       y       z     vdW  Elec       q    Type
REMARK                         _______ _______ _______ _____ _____    ______ ____
ROOT
ATOM      1  C   UNL     1       2.858   7.033  18.169  0.00  0.00    +0.000 A 
ATOM      2  C   UNL     1       4.166   7.281  17.740  0.00  0.00    +0.000 A 
ATOM      3  C   UNL     1       4.927   6.234  17.207  0.00  0.00    +0.000 A 
ATOM      4  C   UNL     1       4.385   4.947  17.085  0.00  0.00    +0.000 A 
ATOM      5  C   UNL     1       3.078   4.678  17.504  0.00  0.00    +0.000 A 
ATOM      6  C   UNL     1       2.330   5.733  18.055  0.00  0.00    +0.000 A 
ENDROOT
BRANCH   1   8
ATOM      7  N   UNL     1       1.620   8.184  19.969  0.00  0.00    +0.000 N 
ATOM      8  C   UNL     1       1.934   8.115  18.623  0.00  0.00    +0.000 C 
ATOM      9  O   UNL     1       1.480   8.908  17.800  0.00  0.00    +0.000 OA
ATOM     10  H   UNL     1       1.768   7.348  20.522  0.00  0.00    +0.000 HD
BRANCH   7  12
ATOM     11  C   UNL     1      -0.208   8.531  21.592  0.00  0.00    +0.000 C 
ATOM     12  C   UNL     1       0.632   9.150  20.472  0.00  0.00    +0.000 C 
BRANCH  12  13
ATOM     13  C   UNL     1       1.222  10.514  20.900  0.00  0.00    +0.000 C 
BRANCH  13  14
ATOM     14  C   UNL     1       0.754  11.693  20.093  0.00  0.00    +0.000 A 
ATOM     15  C   UNL     1       1.561  12.259  19.111  0.00  0.00    +0.000 A 
ATOM     16  N   UNL     1       1.164  13.306  18.346  0.00  0.00    +0.000 NA
ATOM     17  C   UNL     1      -0.082  13.763  18.598  0.00  0.00    +0.000 A 
ATOM     18  C   UNL     1      -0.892  13.211  19.574  0.00  0.00    +0.000 A 
ATOM     19  N   UNL     1      -0.494  12.173  20.343  0.00  0.00    +0.000 NA
ENDBRANCH  13  14
ENDBRANCH  12  13
ENDBRANCH   7  12
ENDBRANCH   1   8
BRANCH   5  20
ATOM     20  C   UNL     1       2.416   3.350  17.222  0.00  0.00    +0.000 C 
BRANCH  20  21
ATOM     21  C   UNL     1       2.265   2.250  18.299  0.00  0.00    +0.000 C 
ATOM     22  C   UNL     1       0.991   2.310  19.150  0.00  0.00    +0.000 C 
ATOM     23  C   UNL     1       1.110   3.217  20.373  0.00  0.00    +0.000 C 
ATOM     24  N   UNL     1       2.293   2.945  21.188  0.00  0.00    +0.000 NA
ATOM     25  C   UNL     1       3.527   2.972  20.407  0.00  0.00    +0.000 C 
ATOM     26  C   UNL     1       3.488   2.044  19.199  0.00  0.00    +0.000 C 
ATOM     27  H   UNL     1       2.194   2.035  21.637  0.00  0.00    +0.000 HD
ENDBRANCH  20  21
ENDBRANCH   5  20
TORSDOF 6
ENDMDL
MODEL 8
REMARK VINA RESULT:      -7.0      1.407      1.711
REMARK  Name = 
REMARK  7 active torsions:
REMARK  status: ('A' for Active; 'I' for Inactive)
REMARK    1  A    between atoms: C_1  and  C_2
REMARK    2  A    between atoms: C_2  and  C_3
REMARK    3  A    between atoms: C_2  and  N_10
REMARK    4  A    between atoms: C_3  and  C_4
REMARK    5  A    between atoms: C_11  and  C_13
REMARK    6  A    between atoms: C_17  and  C_18
REMARK    7  A    between atoms: C_18  and  C_19
REMARK                            x       y       z     vdW  Elec       q    Type
REMARK                         _______ _______ _______ _____ _____    ______ ____
ROOT
ATOM      1  C   UNL     1       2.844   6.915  18.423  0.00  0.00    +0.000 A 
ATOM      2  C   UNL     1       3.996   7.077  17.646  0.00  0.00    +0.000 A 
ATOM      3  C   UNL     1       4.501   5.987  16.927  0.00  0.00    +0.000 A 
ATOM      4  C   UNL     1       3.855   4.745  16.966  0.00  0.00    +0.000 A 
ATOM      5  C   UNL     1       2.700   4.562  17.735  0.00  0.00    +0.000 A 
ATOM      6  C   UNL     1       2.213   5.658  18.467  0.00  0.00    +0.000 A 
ENDROOT
BRANCH   1   8
ATOM      7  N   UNL     1       1.893   9.194  18.378  0.00  0.00    +0.000 N 
ATOM      8  C   UNL     1       2.164   8.053  19.112  0.00  0.00    +0.000 C 
ATOM      9  O   UNL     1       1.866   7.949  20.300  0.00  0.00    +0.000 OA
ATOM     10  H   UNL     1       2.423   9.333  17.527  0.00  0.00    +0.000 HD
BRANCH   7  12
ATOM     11  C   UNL     1       1.834  11.662  18.323  0.00  0.00    +0.000 C 
ATOM     12  C   UNL     1       1.330  10.394  19.015  0.00  0.00    +0.000 C 
BRANCH  12  13
ATOM     13  C   UNL     1      -0.212  10.395  19.138  0.00  0.00    +0.000 C 
BRANCH  13  14
ATOM     14  C   UNL     1      -0.748  10.908  20.446  0.00  0.00    +0.000 A 
ATOM     15  C   UNL     1      -1.674  11.945  20.487  0.00  0.00    +0.000 A 
ATOM     16  N   UNL     1      -2.198  12.418  21.645  0.00  0.00    +0.000 NA
ATOM     17  C   UNL     1      -1.765  11.802  22.767  0.00  0.00    +0.000 A 
ATOM     18  C   UNL     1      -0.842  10.772  22.738  0.00  0.00    +0.000 A 
ATOM     19  N   UNL     1      -0.311  10.307  21.585  0.00  0.00    +0.000 NA
ENDBRANCH  13  14
ENDBRANCH  12  13
ENDBRANCH   7  12
ENDBRANCH   1   8
BRANCH   5  20
ATOM     20  C   UNL     1       1.892   3.289  17.654  0.00  0.00    +0.000 C 
BRANCH  20  21
ATOM     21  C   UNL     1       2.074   2.122  18.654  0.00  0.00    +0.000 C 
ATOM     22  C   UNL     1       1.440   2.314  20.036  0.00  0.00    +0.000 C 
ATOM     23  C   UNL     1       2.338   3.047  21.030  0.00  0.00    +0.000 C 
ATOM     24  N   UNL     1       3.684   2.483  21.126  0.00  0.00    +0.000 NA
ATOM     25  C   UNL     1       4.338   2.377  19.824  0.00  0.00    +0.000 C 
ATOM     26  C   UNL     1       3.510   1.607  18.802  0.00  0.00    +0.000 C 
ATOM     27  H   UNL     1       3.636   1.562  21.559  0.00  0.00    +0.000 HD
ENDBRANCH  20  21
ENDBRANCH   5  20
TORSDOF 6
ENDMDL
MODEL 9
REMARK VINA RESULT:      -7.0      1.898      2.667
REMARK  Name = 
REMARK  7 active torsions:
REMARK  status: ('A' for Active; 'I' for Inactive)
REMARK    1  A    between atoms: C_1  and  C_2
REMARK    2  A    between atoms: C_2  and  C_3
REMARK    3  A    between atoms: C_2  and  N_10
REMARK    4  A    between atoms: C_3  and  C_4
REMARK    5  A    between atoms: C_11  and  C_13
REMARK    6  A    between atoms: C_17  and  C_18
REMARK    7  A    between atoms: C_18  and  C_19
REMARK                            x       y       z     vdW  Elec       q    Type
REMARK                         _______ _______ _______ _____ _____    ______ ____
ROOT
ATOM      1  C   UNL     1       2.745   7.527  17.998  0.00  0.00    +0.000 A 
ATOM      2  C   UNL     1       4.089   7.336  17.659  0.00  0.00    +0.000 A 
ATOM      3  C   UNL     1       4.571   6.037  17.461  0.00  0.00    +0.000 A 
ATOM      4  C   UNL     1       3.719   4.932  17.583  0.00  0.00    +0.000 A 
ATOM      5  C   UNL     1       2.371   5.101  17.918  0.00  0.00    +0.000 A 
ATOM      6  C   UNL     1       1.902   6.408  18.133  0.00  0.00    +0.000 A 
ENDROOT
BRANCH   1   8
ATOM      7  N   UNL     1       1.318   9.151  19.192  0.00  0.00    +0.000 N 
ATOM      8  C   UNL     1       2.117   8.880  18.096  0.00  0.00    +0.000 C 
ATOM      9  O   UNL     1       2.323   9.707  17.210  0.00  0.00    +0.000 OA
ATOM     10  H   UNL     1       0.948   8.359  19.703  0.00  0.00    +0.000 HD
BRANCH   7  12
ATOM     11  C   UNL     1      -0.927  10.159  19.400  0.00  0.00    +0.000 C 
ATOM     12  C   UNL     1       0.578  10.418  19.300  0.00  0.00    +0.000 C 
BRANCH  12  13
ATOM     13  C   UNL     1       1.065  11.355  20.430  0.00  0.00    +0.000 C 
BRANCH  13  14
ATOM     14  C   UNL     1       1.746  12.613  19.968  0.00  0.00    +0.000 A 
ATOM     15  C   UNL     1       2.063  13.630  20.861  0.00  0.00    +0.000 A 
ATOM     16  N   UNL     1       2.700  14.768  20.486  0.00  0.00    +0.000 NA
ATOM     17  C   UNL     1       3.017  14.844  19.176  0.00  0.00    +0.000 A 
ATOM     18  C   UNL     1       2.704  13.840  18.277  0.00  0.00    +0.000 A 
ATOM     19  N   UNL     1       2.061  12.710  18.647  0.00  0.00    +0.000 NA
ENDBRANCH  13  14
ENDBRANCH  12  13
ENDBRANCH   7  12
ENDBRANCH   1   8
BRANCH   5  20
ATOM     20  C   UNL     1       1.398   3.946  17.882  0.00  0.00    +0.000 C 
BRANCH  20  21
ATOM     21  C   UNL     1       1.152   3.027  19.102  0.00  0.00    +0.000 C 
ATOM     22  C   UNL     1       0.891   3.734  20.437  0.00  0.00    +0.000 C 
ATOM     23  C   UNL     1       2.162   4.086  21.206  0.00  0.00    +0.000 C 
ATOM     24  N   UNL     1       3.081   2.960  21.362  0.00  0.00    +0.000 NA
ATOM     25  C   UNL     1       3.411   2.330  20.086  0.00  0.00    +0.000 C 
ATOM     26  C   UNL     1       2.180   1.906  19.294  0.00  0.00    +0.000 C 
ATOM     27  H   UNL     1       2.669   2.269  21.987  0.00  0.00    +0.000 HD
ENDBRANCH  20  21
ENDBRANCH   5  20
TORSDOF 6
ENDMDL
