MODEL 1
REMARK VINA RESULT:      -8.0      0.000      0.000
REMARK  Name = 
REMARK  8 active torsions:
REMARK  status: ('A' for Active; 'I' for Inactive)
REMARK    1  A    between atoms: C_1  and  O_2
REMARK    2  A    between atoms: O_2  and  C_3
REMARK    3  A    between atoms: C_6  and  C_7
REMARK    4  A    between atoms: C_7  and  C_9
REMARK    5  A    between atoms: C_14  and  C_16
REMARK    6  A    between atoms: C_21  and  O_22
REMARK    7  A    between atoms: O_22  and  C_23
REMARK    8  A    between atoms: C_25  and  C_26
REMARK                            x       y       z     vdW  Elec       q    Type
REMARK                         _______ _______ _______ _____ _____    ______ ____
ROOT
ATOM      1  C   UNL     1       1.363   4.831  19.238  0.00  0.00    +0.000 C 
ATOM      2  C   UNL     1       1.024   3.604  20.130  0.00  0.00    +0.000 C 
ATOM      3  C   UNL     1       1.490   2.206  19.677  0.00  0.00    +0.000 C 
ATOM      4  C   UNL     1       1.738   2.096  18.179  0.00  0.00    +0.000 C 
ATOM      5  N   UNL     1       2.548   3.232  17.777  0.00  0.00    +0.000 N 
ATOM      6  C   UNL     1       3.928   3.086  17.973  0.00  0.00    +0.000 C 
ATOM      7  O   UNL     1       4.425   1.992  18.253  0.00  0.00    +0.000 OA
ATOM      8  C   UNL     1       1.809   4.475  17.816  0.00  0.00    +0.000 C 
ENDROOT
BRANCH   6   9
ATOM      9  C   UNL     1       4.877   4.215  17.947  0.00  0.00    +0.000 A 
ATOM     10  C   UNL     1       5.452   4.579  19.177  0.00  0.00    +0.000 A 
ATOM     11  C   UNL     1       6.565   5.414  19.210  0.00  0.00    +0.000 A 
ATOM     12  C   UNL     1       7.055   5.875  18.003  0.00  0.00    +0.000 A 
ATOM     13  N   UNL     1       6.495   5.593  16.806  0.00  0.00    +0.000 NA
ATOM     14  C   UNL     1       5.427   4.752  16.792  0.00  0.00    +0.000 A 
BRANCH  14  15
ATOM     15  O   UNL     1       4.892   4.394  15.572  0.00  0.00    +0.000 OA
ATOM     16  C   UNL     1       5.886   4.038  14.615  0.00  0.00    +0.000 C 
ENDBRANCH  14  15
ENDBRANCH   6   9
BRANCH   1  17
ATOM     17  C   UNL     1       2.350   5.859  19.804  0.00  0.00    +0.000 C 
ATOM     18  O   UNL     1       3.274   5.497  20.537  0.00  0.00    +0.000 OA
BRANCH  17  22
ATOM     19  C   UNL     1       0.964   9.861  19.000  0.00  0.00    +0.000 A 
ATOM     20  C   UNL     1       0.868   9.305  20.266  0.00  0.00    +0.000 A 
ATOM     21  C   UNL     1       1.459   8.058  20.525  0.00  0.00    +0.000 A 
ATOM     22  C   UNL     1       2.165   7.350  19.530  0.00  0.00    +0.000 A 
ATOM     23  C   UNL     1       2.495   8.053  18.351  0.00  0.00    +0.000 A 
ATOM     24  C   UNL     1       3.498   7.668  17.303  0.00  0.00    +0.000 C 
ATOM     25  C   UNL     1       1.825   9.269  18.082  0.00  0.00    +0.000 A 
BRANCH  19  27
ATOM     26  C   UNL     1      -0.987  11.199  19.085  0.00  0.00    +0.000 C 
ATOM     27  O   UNL     1       0.311  10.969  18.547  0.00  0.00    +0.000 OA
ENDBRANCH  19  27
ENDBRANCH  17  22
ENDBRANCH   1  17
TORSDOF 5
ENDMDL
MODEL 2
REMARK VINA RESULT:      -7.9      1.416      1.757
REMARK  Name = 
REMARK  8 active torsions:
REMARK  status: ('A' for Active; 'I' for Inactive)
REMARK    1  A    between atoms: C_1  and  O_2
REMARK    2  A    between atoms: O_2  and  C_3
REMARK    3  A    between atoms: C_6  and  C_7
REMARK    4  A    between atoms: C_7  and  C_9
REMARK    5  A    between atoms: C_14  and  C_16
REMARK    6  A    between atoms: C_21  and  O_22
REMARK    7  A    between atoms: O_22  and  C_23
REMARK    8  A    between atoms: C_25  and  C_26
REMARK                            x       y       z     vdW  Elec       q    Type
REMARK                         _______ _______ _______ _____ _____    ______ ____
ROOT
ATOM      1  C   UNL     1       1.833   4.942  18.176  0.00  0.00    +0.000 C 
ATOM      2  C   UNL     1       1.257   4.384  19.508  0.00  0.00    +0.000 C 
ATOM      3  C   UNL     1       1.848   3.082  20.083  0.00  0.00    +0.000 C 
ATOM      4  C   UNL     1       2.525   2.202  19.042  0.00  0.00    +0.000 C 
ATOM      5  N   UNL     1       3.408   3.043  18.254  0.00  0.00    +0.000 N 
ATOM      6  C   UNL     1       4.671   3.280  18.814  0.00  0.00    +0.000 C 
ATOM      7  O   UNL     1       5.073   2.638  19.788  0.00  0.00    +0.000 OA
ATOM      8  C   UNL     1       2.680   3.940  17.384  0.00  0.00    +0.000 C 
ENDROOT
BRANCH   6   9
ATOM      9  C   UNL     1       5.576   4.349  18.354  0.00  0.00    +0.000 A 
ATOM     10  C   UNL     1       6.047   5.237  19.337  0.00  0.00    +0.000 A 
ATOM     11  C   UNL     1       7.124   6.077  19.063  0.00  0.00    +0.000 A 
ATOM     12  C   UNL     1       7.681   6.013  17.801  0.00  0.00    +0.000 A 
ATOM     13  N   UNL     1       7.219   5.214  16.814  0.00  0.00    +0.000 NA
ATOM     14  C   UNL     1       6.187   4.380  17.109  0.00  0.00    +0.000 A 
BRANCH  14  15
ATOM     15  O   UNL     1       5.755   3.505  16.134  0.00  0.00    +0.000 OA
ATOM     16  C   UNL     1       5.872   4.039  14.819  0.00  0.00    +0.000 C 
ENDBRANCH  14  15
ENDBRANCH   6   9
BRANCH   1  17
ATOM     17  C   UNL     1       2.602   6.267  18.244  0.00  0.00    +0.000 C 
ATOM     18  O   UNL     1       3.623   6.430  17.571  0.00  0.00    +0.000 OA
BRANCH  17  22
ATOM     19  C   UNL     1       0.629   8.896  21.033  0.00  0.00    +0.000 A 
ATOM     20  C   UNL     1       1.269   7.743  21.459  0.00  0.00    +0.000 A 
ATOM     21  C   UNL     1       2.022   6.988  20.545  0.00  0.00    +0.000 A 
ATOM     22  C   UNL     1       2.160   7.377  19.195  0.00  0.00    +0.000 A 
ATOM     23  C   UNL     1       1.748   8.684  18.858  0.00  0.00    +0.000 A 
ATOM     24  C   UNL     1       2.077   9.457  17.613  0.00  0.00    +0.000 C 
ATOM     25  C   UNL     1       0.926   9.388  19.767  0.00  0.00    +0.000 A 
BRANCH  19  27
ATOM     26  C   UNL     1      -0.143   9.585  23.162  0.00  0.00    +0.000 C 
ATOM     27  O   UNL     1      -0.267   9.639  21.745  0.00  0.00    +0.000 OA
ENDBRANCH  19  27
ENDBRANCH  17  22
ENDBRANCH   1  17
TORSDOF 5
ENDMDL
MODEL 3
REMARK VINA RESULT:      -7.2      1.081      1.770
REMARK  Name = 
REMARK  8 active torsions:
REMARK  status: ('A' for Active; 'I' for Inactive)
REMARK    1  A    between atoms: C_1  and  O_2
REMARK    2  A    between atoms: O_2  and  C_3
REMARK    3  A    between atoms: C_6  and  C_7
REMARK    4  A    between atoms: C_7  and  C_9
REMARK    5  A    between atoms: C_14  and  C_16
REMARK    6  A    between atoms: C_21  and  O_22
REMARK    7  A    between atoms: O_22  and  C_23
REMARK    8  A    between atoms: C_25  and  C_26
REMARK                            x       y       z     vdW  Elec       q    Type
REMARK                         _______ _______ _______ _____ _____    ______ ____
ROOT
ATOM      1  C   UNL     1       1.693   5.152  19.232  0.00  0.00    +0.000 C 
ATOM      2  C   UNL     1       1.421   4.337  20.528  0.00  0.00    +0.000 C 
ATOM      3  C   UNL     1       2.058   2.941  20.672  0.00  0.00    +0.000 C 
ATOM      4  C   UNL     1       2.417   2.288  19.345  0.00  0.00    +0.000 C 
ATOM      5  N   UNL     1       3.132   3.267  18.545  0.00  0.00    +0.000 N 
ATOM      6  C   UNL     1       4.503   3.377  18.814  0.00  0.00    +0.000 C 
ATOM      7  O   UNL     1       5.090   2.547  19.513  0.00  0.00    +0.000 OA
ATOM      8  C   UNL     1       2.268   4.328  18.075  0.00  0.00    +0.000 C 
ENDROOT
BRANCH   6   9
ATOM      9  C   UNL     1       5.330   4.512  18.366  0.00  0.00    +0.000 A 
ATOM     10  C   UNL     1       6.129   5.130  19.344  0.00  0.00    +0.000 A 
ATOM     11  C   UNL     1       7.153   5.995  18.967  0.00  0.00    +0.000 A 
ATOM     12  C   UNL     1       7.330   6.229  17.617  0.00  0.00    +0.000 A 
ATOM     13  N   UNL     1       6.546   5.698  16.653  0.00  0.00    +0.000 NA
ATOM     14  C   UNL     1       5.571   4.833  17.037  0.00  0.00    +0.000 A 
BRANCH  14  15
ATOM     15  O   UNL     1       4.813   4.225  16.058  0.00  0.00    +0.000 OA
ATOM     16  C   UNL     1       5.415   4.295  14.769  0.00  0.00    +0.000 C 
ENDBRANCH  14  15
ENDBRANCH   6   9
BRANCH   1  17
ATOM     17  C   UNL     1       2.529   6.430  19.368  0.00  0.00    +0.000 C 
ATOM     18  O   UNL     1       3.720   6.365  19.682  0.00  0.00    +0.000 OA
BRANCH  17  22
ATOM     19  C   UNL     1       1.554  10.591  18.803  0.00  0.00    +0.000 A 
ATOM     20  C   UNL     1       1.939   9.790  17.739  0.00  0.00    +0.000 A 
ATOM     21  C   UNL     1       2.109   8.410  17.935  0.00  0.00    +0.000 A 
ATOM     22  C   UNL     1       1.886   7.804  19.189  0.00  0.00    +0.000 A 
ATOM     23  C   UNL     1       1.225   8.577  20.168  0.00  0.00    +0.000 A 
ATOM     24  C   UNL     1       0.578   8.095  21.435  0.00  0.00    +0.000 C 
ATOM     25  C   UNL     1       1.139   9.975  19.979  0.00  0.00    +0.000 A 
BRANCH  19  27
ATOM     26  C   UNL     1       2.539  12.626  18.100  0.00  0.00    +0.000 C 
ATOM     27  O   UNL     1       1.510  11.955  18.820  0.00  0.00    +0.000 OA
ENDBRANCH  19  27
ENDBRANCH  17  22
ENDBRANCH   1  17
TORSDOF 5
ENDMDL
MODEL 4
REMARK VINA RESULT:      -7.1      1.500      2.523
REMARK  Name = 
REMARK  8 active torsions:
REMARK  status: ('A' for Active; 'I' for Inactive)
REMARK    1  A    between atoms: C_1  and  O_2
REMARK    2  A    between atoms: O_2  and  C_3
REMARK    3  A    between atoms: C_6  and  C_7
REMARK    4  A    between atoms: C_7  and  C_9
REMARK    5  A    between atoms: C_14  and  C_16
REMARK    6  A    between atoms: C_21  and  O_22
REMARK    7  A    between atoms: O_22  and  C_23
REMARK    8  A    between atoms: C_25  and  C_26
REMARK                            x       y       z     vdW  Elec       q    Type
REMARK                         _______ _______ _______ _____ _____    ______ ____
ROOT
ATOM      1  C   UNL     1       1.750   5.203  19.798  0.00  0.00    +0.000 C 
ATOM      2  C   UNL     1       1.850   4.460  21.160  0.00  0.00    +0.000 C 
ATOM      3  C   UNL     1       2.530   3.077  21.201  0.00  0.00    +0.000 C 
ATOM      4  C   UNL     1       2.534   2.354  19.862  0.00  0.00    +0.000 C 
ATOM      5  N   UNL     1       2.990   3.291  18.851  0.00  0.00    +0.000 N 
ATOM      6  C   UNL     1       4.381   3.422  18.737  0.00  0.00    +0.000 C 
ATOM      7  O   UNL     1       5.149   2.635  19.296  0.00  0.00    +0.000 OA
ATOM      8  C   UNL     1       2.012   4.320  18.574  0.00  0.00    +0.000 C 
ENDROOT
BRANCH   6   9
ATOM      9  C   UNL     1       5.037   4.534  18.026  0.00  0.00    +0.000 A 
ATOM     10  C   UNL     1       4.410   4.982  16.849  0.00  0.00    +0.000 A 
ATOM     11  C   UNL     1       4.775   6.200  16.282  0.00  0.00    +0.000 A 
ATOM     12  C   UNL     1       5.774   6.923  16.905  0.00  0.00    +0.000 A 
ATOM     13  N   UNL     1       6.438   6.498  18.002  0.00  0.00    +0.000 NA
ATOM     14  C   UNL     1       6.048   5.321  18.559  0.00  0.00    +0.000 A 
BRANCH  14  15
ATOM     15  O   UNL     1       6.664   4.912  19.723  0.00  0.00    +0.000 OA
ATOM     16  C   UNL     1       7.955   5.489  19.899  0.00  0.00    +0.000 C 
ENDBRANCH  14  15
ENDBRANCH   6   9
BRANCH   1  17
ATOM     17  C   UNL     1       2.567   6.491  19.639  0.00  0.00    +0.000 C 
ATOM     18  O   UNL     1       3.786   6.483  19.829  0.00  0.00    +0.000 OA
BRANCH  17  22
ATOM     19  C   UNL     1       1.453  10.541  18.667  0.00  0.00    +0.000 A 
ATOM     20  C   UNL     1       1.905   9.664  17.694  0.00  0.00    +0.000 A 
ATOM     21  C   UNL     1       2.121   8.315  18.019  0.00  0.00    +0.000 A 
ATOM     22  C   UNL     1       1.878   7.816  19.316  0.00  0.00    +0.000 A 
ATOM     23  C   UNL     1       1.155   8.646  20.200  0.00  0.00    +0.000 A 
ATOM     24  C   UNL     1       0.484   8.253  21.485  0.00  0.00    +0.000 C 
ATOM     25  C   UNL     1       1.022  10.016  19.881  0.00  0.00    +0.000 A 
BRANCH  19  27
ATOM     26  C   UNL     1       2.537  12.582  18.155  0.00  0.00    +0.000 C 
ATOM     27  O   UNL     1       1.356  11.897  18.558  0.00  0.00    +0.000 OA
ENDBRANCH  19  27
ENDBRANCH  17  22
ENDBRANCH   1  17
TORSDOF 5
ENDMDL
MODEL 5
REMARK VINA RESULT:      -7.0      1.825      4.161
REMARK  Name = 
REMARK  8 active torsions:
REMARK  status: ('A' for Active; 'I' for Inactive)
REMARK    1  A    between atoms: C_1  and  O_2
REMARK    2  A    between atoms: O_2  and  C_3
REMARK    3  A    between atoms: C_6  and  C_7
REMARK    4  A    between atoms: C_7  and  C_9
REMARK    5  A    between atoms: C_14  and  C_16
REMARK    6  A    between atoms: C_21  and  O_22
REMARK    7  A    between atoms: O_22  and  C_23
REMARK    8  A    between atoms: C_25  and  C_26
REMARK                            x       y       z     vdW  Elec       q    Type
REMARK                         _______ _______ _______ _____ _____    ______ ____
ROOT
ATOM      1  C   UNL     1       4.267   6.788  17.798  0.00  0.00    +0.000 C 
ATOM      2  C   UNL     1       4.650   6.752  16.292  0.00  0.00    +0.000 C 
ATOM      3  C   UNL     1       5.364   5.503  15.739  0.00  0.00    +0.000 C 
ATOM      4  C   UNL     1       6.101   4.696  16.799  0.00  0.00    +0.000 C 
ATOM      5  N   UNL     1       5.199   4.505  17.920  0.00  0.00    +0.000 N 
ATOM      6  C   UNL     1       4.298   3.438  17.793  0.00  0.00    +0.000 C 
ATOM      7  O   UNL     1       4.422   2.596  16.899  0.00  0.00    +0.000 OA
ATOM      8  C   UNL     1       4.970   5.730  18.655  0.00  0.00    +0.000 C 
ENDROOT
BRANCH   6   9
ATOM      9  C   UNL     1       3.104   3.277  18.642  0.00  0.00    +0.000 A 
ATOM     10  C   UNL     1       1.863   3.264  17.982  0.00  0.00    +0.000 A 
ATOM     11  C   UNL     1       0.722   2.821  18.645  0.00  0.00    +0.000 A 
ATOM     12  C   UNL     1       0.860   2.424  19.961  0.00  0.00    +0.000 A 
ATOM     13  N   UNL     1       2.024   2.477  20.645  0.00  0.00    +0.000 NA
ATOM     14  C   UNL     1       3.133   2.883  19.972  0.00  0.00    +0.000 A 
BRANCH  14  15
ATOM     15  O   UNL     1       4.342   2.869  20.636  0.00  0.00    +0.000 OA
ATOM     16  C   UNL     1       4.898   1.562  20.746  0.00  0.00    +0.000 C 
ENDBRANCH  14  15
ENDBRANCH   6   9
BRANCH   1  17
ATOM     17  C   UNL     1       2.773   6.767  18.144  0.00  0.00    +0.000 C 
ATOM     18  O   UNL     1       2.010   5.995  17.559  0.00  0.00    +0.000 OA
BRANCH  17  22
ATOM     19  C   UNL     1       0.455   8.970  21.035  0.00  0.00    +0.000 A 
ATOM     20  C   UNL     1       1.158   7.831  21.392  0.00  0.00    +0.000 A 
ATOM     21  C   UNL     1       2.016   7.222  20.462  0.00  0.00    +0.000 A 
ATOM     22  C   UNL     1       2.196   7.746  19.164  0.00  0.00    +0.000 A 
ATOM     23  C   UNL     1       1.704   9.047  18.922  0.00  0.00    +0.000 A 
ATOM     24  C   UNL     1       2.040   9.956  17.775  0.00  0.00    +0.000 C 
ATOM     25  C   UNL     1       0.782   9.601  19.839  0.00  0.00    +0.000 A 
BRANCH  19  27
ATOM     26  C   UNL     1      -0.315   9.678  23.158  0.00  0.00    +0.000 C 
ATOM     27  O   UNL     1      -0.533   9.576  21.755  0.00  0.00    +0.000 OA
ENDBRANCH  19  27
ENDBRANCH  17  22
ENDBRANCH   1  17
TORSDOF 5
ENDMDL
MODEL 6
REMARK VINA RESULT:      -6.8      1.278      1.770
REMARK  Name = 
REMARK  8 active torsions:
REMARK  status: ('A' for Active; 'I' for Inactive)
REMARK    1  A    between atoms: C_1  and  O_2
REMARK    2  A    between atoms: O_2  and  C_3
REMARK    3  A    between atoms: C_6  and  C_7
REMARK    4  A    between atoms: C_7  and  C_9
REMARK    5  A    between atoms: C_14  and  C_16
REMARK    6  A    between atoms: C_21  and  O_22
REMARK    7  A    between atoms: O_22  and  C_23
REMARK    8  A    between atoms: C_25  and  C_26
REMARK                            x       y       z     vdW  Elec       q    Type
REMARK                         _______ _______ _______ _____ _____    ______ ____
ROOT
ATOM      1  C   UNL     1       1.944   4.737  17.810  0.00  0.00    +0.000 C 
ATOM      2  C   UNL     1       1.280   4.166  19.094  0.00  0.00    +0.000 C 
ATOM      3  C   UNL     1       1.883   2.904  19.741  0.00  0.00    +0.000 C 
ATOM      4  C   UNL     1       2.696   2.048  18.780  0.00  0.00    +0.000 C 
ATOM      5  N   UNL     1       3.601   2.925  18.060  0.00  0.00    +0.000 N 
ATOM      6  C   UNL     1       4.795   3.235  18.726  0.00  0.00    +0.000 C 
ATOM      7  O   UNL     1       5.140   2.627  19.743  0.00  0.00    +0.000 OA
ATOM      8  C   UNL     1       2.909   3.772  17.114  0.00  0.00    +0.000 C 
ENDROOT
BRANCH   6   9
ATOM      9  C   UNL     1       5.681   4.345  18.331  0.00  0.00    +0.000 A 
ATOM     10  C   UNL     1       6.092   5.215  19.357  0.00  0.00    +0.000 A 
ATOM     11  C   UNL     1       7.150   6.095  19.147  0.00  0.00    +0.000 A 
ATOM     12  C   UNL     1       7.751   6.088  17.903  0.00  0.00    +0.000 A 
ATOM     13  N   UNL     1       7.347   5.308  16.876  0.00  0.00    +0.000 NA
ATOM     14  C   UNL     1       6.332   4.434  17.109  0.00  0.00    +0.000 A 
BRANCH  14  15
ATOM     15  O   UNL     1       5.960   3.579  16.093  0.00  0.00    +0.000 OA
ATOM     16  C   UNL     1       6.301   4.072  14.801  0.00  0.00    +0.000 C 
ENDBRANCH  14  15
ENDBRANCH   6   9
BRANCH   1  17
ATOM     17  C   UNL     1       2.634   6.102  17.924  0.00  0.00    +0.000 C 
ATOM     18  O   UNL     1       3.802   6.242  17.551  0.00  0.00    +0.000 OA
BRANCH  17  22
ATOM     19  C   UNL     1       1.310   9.910  19.450  0.00  0.00    +0.000 A 
ATOM     20  C   UNL     1       1.205   9.597  18.104  0.00  0.00    +0.000 A 
ATOM     21  C   UNL     1       1.512   8.298  17.666  0.00  0.00    +0.000 A 
ATOM     22  C   UNL     1       1.915   7.287  18.564  0.00  0.00    +0.000 A 
ATOM     23  C   UNL     1       1.738   7.542  19.941  0.00  0.00    +0.000 A 
ATOM     24  C   UNL     1       1.764   6.551  21.069  0.00  0.00    +0.000 C 
ATOM     25  C   UNL     1       1.508   8.874  20.356  0.00  0.00    +0.000 A 
BRANCH  19  27
ATOM     26  C   UNL     1       0.304  11.285  21.093  0.00  0.00    +0.000 C 
ATOM     27  O   UNL     1       1.213  11.152  20.006  0.00  0.00    +0.000 OA
ENDBRANCH  19  27
ENDBRANCH  17  22
ENDBRANCH   1  17
TORSDOF 5
ENDMDL
MODEL 7
REMARK VINA RESULT:      -6.5      2.251      5.477
REMARK  Name = 
REMARK  8 active torsions:
REMARK  status: ('A' for Active; 'I' for Inactive)
REMARK    1  A    between atoms: C_1  and  O_2
REMARK    2  A    between atoms: O_2  and  C_3
REMARK    3  A    between atoms: C_6  and  C_7
REMARK    4  A    between atoms: C_7  and  C_9
REMARK    5  A    between atoms: C_14  and  C_16
REMARK    6  A    between atoms: C_21  and  O_22
REMARK    7  A    between atoms: O_22  and  C_23
REMARK    8  A    between atoms: C_25  and  C_26
REMARK                            x       y       z     vdW  Elec       q    Type
REMARK                         _______ _______ _______ _____ _____    ______ ____
ROOT
ATOM      1  C   UNL     1       4.371   3.141  18.843  0.00  0.00    +0.000 C 
ATOM      2  C   UNL     1       3.413   1.944  18.587  0.00  0.00    +0.000 C 
ATOM      3  C   UNL     1       2.113   1.847  19.409  0.00  0.00    +0.000 C 
ATOM      4  C   UNL     1       2.164   2.597  20.733  0.00  0.00    +0.000 C 
ATOM      5  N   UNL     1       2.690   3.925  20.472  0.00  0.00    +0.000 N 
ATOM      6  C   UNL     1       1.753   4.866  20.024  0.00  0.00    +0.000 C 
ATOM      7  O   UNL     1       0.542   4.637  20.067  0.00  0.00    +0.000 OA
ATOM      8  C   UNL     1       4.099   3.902  20.144  0.00  0.00    +0.000 C 
ENDROOT
BRANCH   6   9
ATOM      9  C   UNL     1       2.124   6.147  19.397  0.00  0.00    +0.000 A 
ATOM     10  C   UNL     1       2.305   6.134  18.002  0.00  0.00    +0.000 A 
ATOM     11  C   UNL     1       2.356   7.330  17.292  0.00  0.00    +0.000 A 
ATOM     12  C   UNL     1       2.245   8.506  18.008  0.00  0.00    +0.000 A 
ATOM     13  N   UNL     1       2.129   8.559  19.353  0.00  0.00    +0.000 NA
ATOM     14  C   UNL     1       2.050   7.381  20.027  0.00  0.00    +0.000 A 
BRANCH  14  15
ATOM     15  O   UNL     1       1.855   7.420  21.392  0.00  0.00    +0.000 OA
ATOM     16  C   UNL     1       1.177   8.598  21.820  0.00  0.00    +0.000 C 
ENDBRANCH  14  15
ENDBRANCH   6   9
BRANCH   1  17
ATOM     17  C   UNL     1       4.529   4.167  17.714  0.00  0.00    +0.000 C 
ATOM     18  O   UNL     1       3.689   4.237  16.814  0.00  0.00    +0.000 OA
BRANCH  17  22
ATOM     19  C   UNL     1       7.746   6.971  18.329  0.00  0.00    +0.000 A 
ATOM     20  C   UNL     1       7.748   5.726  18.938  0.00  0.00    +0.000 A 
ATOM     21  C   UNL     1       6.761   4.786  18.602  0.00  0.00    +0.000 A 
ATOM     22  C   UNL     1       5.762   5.066  17.646  0.00  0.00    +0.000 A 
ATOM     23  C   UNL     1       5.946   6.211  16.840  0.00  0.00    +0.000 A 
ATOM     24  C   UNL     1       5.241   6.555  15.560  0.00  0.00    +0.000 C 
ATOM     25  C   UNL     1       6.895   7.176  17.248  0.00  0.00    +0.000 A 
BRANCH  19  27
ATOM     26  C   UNL     1       8.253   9.255  17.969  0.00  0.00    +0.000 C 
ATOM     27  O   UNL     1       8.523   8.041  18.662  0.00  0.00    +0.000 OA
ENDBRANCH  19  27
ENDBRANCH  17  22
ENDBRANCH   1  17
TORSDOF 5
ENDMDL
MODEL 8
REMARK VINA RESULT:      -6.4      1.427      2.043
REMARK  Name = 
REMARK  8 active torsions:
REMARK  status: ('A' for Active; 'I' for Inactive)
REMARK    1  A    between atoms: C_1  and  O_2
REMARK    2  A    between atoms: O_2  and  C_3
REMARK    3  A    between atoms: C_6  and  C_7
REMARK    4  A    between atoms: C_7  and  C_9
REMARK    5  A    between atoms: C_14  and  C_16
REMARK    6  A    between atoms: C_21  and  O_22
REMARK    7  A    between atoms: O_22  and  C_23
REMARK    8  A    between atoms: C_25  and  C_26
REMARK                            x       y       z     vdW  Elec       q    Type
REMARK                         _______ _______ _______ _____ _____    ______ ____
ROOT
ATOM      1  C   UNL     1       1.753   5.133  19.894  0.00  0.00    +0.000 C 
ATOM      2  C   UNL     1       1.865   4.335  21.223  0.00  0.00    +0.000 C 
ATOM      3  C   UNL     1       2.507   2.934  21.194  0.00  0.00    +0.000 C 
ATOM      4  C   UNL     1       2.460   2.264  19.828  0.00  0.00    +0.000 C 
ATOM      5  N   UNL     1       2.918   3.227  18.843  0.00  0.00    +0.000 N 
ATOM      6  C   UNL     1       4.309   3.326  18.700  0.00  0.00    +0.000 C 
ATOM      7  O   UNL     1       5.068   2.498  19.210  0.00  0.00    +0.000 OA
ATOM      8  C   UNL     1       1.962   4.292  18.631  0.00  0.00    +0.000 C 
ENDROOT
BRANCH   6   9
ATOM      9  C   UNL     1       4.978   4.448  18.017  0.00  0.00    +0.000 A 
ATOM     10  C   UNL     1       4.367   4.920  16.842  0.00  0.00    +0.000 A 
ATOM     11  C   UNL     1       4.744   6.147  16.301  0.00  0.00    +0.000 A 
ATOM     12  C   UNL     1       5.739   6.853  16.948  0.00  0.00    +0.000 A 
ATOM     13  N   UNL     1       6.389   6.405  18.045  0.00  0.00    +0.000 NA
ATOM     14  C   UNL     1       5.987   5.220  18.576  0.00  0.00    +0.000 A 
BRANCH  14  15
ATOM     15  O   UNL     1       6.588   4.787  19.739  0.00  0.00    +0.000 OA
ATOM     16  C   UNL     1       7.807   5.469  20.019  0.00  0.00    +0.000 C 
ENDBRANCH  14  15
ENDBRANCH   6   9
BRANCH   1  17
ATOM     17  C   UNL     1       2.601   6.405  19.765  0.00  0.00    +0.000 C 
ATOM     18  O   UNL     1       3.830   6.329  19.703  0.00  0.00    +0.000 OA
BRANCH  17  22
ATOM     19  C   UNL     1      -0.003   9.836  19.927  0.00  0.00    +0.000 A 
ATOM     20  C   UNL     1       0.364   9.155  21.077  0.00  0.00    +0.000 A 
ATOM     21  C   UNL     1       1.325   8.134  21.003  0.00  0.00    +0.000 A 
ATOM     22  C   UNL     1       1.945   7.783  19.785  0.00  0.00    +0.000 A 
ATOM     23  C   UNL     1       1.774   8.669  18.699  0.00  0.00    +0.000 A 
ATOM     24  C   UNL     1       2.567   8.722  17.425  0.00  0.00    +0.000 C 
ATOM     25  C   UNL     1       0.746   9.636  18.772  0.00  0.00    +0.000 A 
BRANCH  19  27
ATOM     26  C   UNL     1      -0.887  11.711  18.784  0.00  0.00    +0.000 C 
ATOM     27  O   UNL     1      -1.029  10.726  19.802  0.00  0.00    +0.000 OA
ENDBRANCH  19  27
ENDBRANCH  17  22
ENDBRANCH   1  17
TORSDOF 5
ENDMDL
MODEL 9
REMARK VINA RESULT:      -6.4      7.801     10.420
REMARK  Name = 
REMARK  8 active torsions:
REMARK  status: ('A' for Active; 'I' for Inactive)
REMARK    1  A    between atoms: C_1  and  O_2
REMARK    2  A    between atoms: O_2  and  C_3
REMARK    3  A    between atoms: C_6  and  C_7
REMARK    4  A    between atoms: C_7  and  C_9
REMARK    5  A    between atoms: C_14  and  C_16
REMARK    6  A    between atoms: C_21  and  O_22
REMARK    7  A    between atoms: O_22  and  C_23
REMARK    8  A    between atoms: C_25  and  C_26
REMARK                            x       y       z     vdW  Elec       q    Type
REMARK                         _______ _______ _______ _____ _____    ______ ____
ROOT
ATOM      1  C   UNL     1      -0.111  12.732  18.518  0.00  0.00    +0.000 C 
ATOM      2  C   UNL     1       1.400  12.388  18.641  0.00  0.00    +0.000 C 
ATOM      3  C   UNL     1       2.276  13.231  19.589  0.00  0.00    +0.000 C 
ATOM      4  C   UNL     1       1.717  14.618  19.874  0.00  0.00    +0.000 C 
ATOM      5  N   UNL     1       0.314  14.471  20.217  0.00  0.00    +0.000 N 
ATOM      6  C   UNL     1       0.054  14.139  21.554  0.00  0.00    +0.000 C 
ATOM      7  O   UNL     1       0.938  14.191  22.413  0.00  0.00    +0.000 OA
ATOM      8  C   UNL     1      -0.495  14.106  19.075  0.00  0.00    +0.000 C 
ENDROOT
BRANCH   6   9
ATOM      9  C   UNL     1      -1.246  13.627  22.025  0.00  0.00    +0.000 A 
ATOM     10  C   UNL     1      -1.255  12.318  22.539  0.00  0.00    +0.000 A 
ATOM     11  C   UNL     1      -2.346  11.863  23.275  0.00  0.00    +0.000 A 
ATOM     12  C   UNL     1      -3.405  12.732  23.454  0.00  0.00    +0.000 A 
ATOM     13  N   UNL     1      -3.456  13.975  22.928  0.00  0.00    +0.000 NA
ATOM     14  C   UNL     1      -2.370  14.413  22.238  0.00  0.00    +0.000 A 
BRANCH  14  15
ATOM     15  O   UNL     1      -2.376  15.707  21.760  0.00  0.00    +0.000 OA
ATOM     16  C   UNL     1      -3.454  15.960  20.863  0.00  0.00    +0.000 C 
ENDBRANCH  14  15
ENDBRANCH   6   9
BRANCH   1  17
ATOM     17  C   UNL     1      -1.111  11.702  19.057  0.00  0.00    +0.000 C 
ATOM     18  O   UNL     1      -0.733  10.800  19.808  0.00  0.00    +0.000 OA
BRANCH  17  22
ATOM     19  C   UNL     1      -5.364  11.255  18.515  0.00  0.00    +0.000 A 
ATOM     20  C   UNL     1      -4.846  12.101  19.483  0.00  0.00    +0.000 A 
ATOM     21  C   UNL     1      -3.462  12.331  19.535  0.00  0.00    +0.000 A 
ATOM     22  C   UNL     1      -2.573  11.732  18.617  0.00  0.00    +0.000 A 
ATOM     23  C   UNL     1      -3.142  11.117  17.480  0.00  0.00    +0.000 A 
ATOM     24  C   UNL     1      -2.446  10.710  16.214  0.00  0.00    +0.000 C 
ATOM     25  C   UNL     1      -4.525  10.828  17.491  0.00  0.00    +0.000 A 
BRANCH  19  27
ATOM     26  C   UNL     1      -7.136  10.092  19.570  0.00  0.00    +0.000 C 
ATOM     27  O   UNL     1      -6.648  10.800  18.435  0.00  0.00    +0.000 OA
ENDBRANCH  19  27
ENDBRANCH  17  22
ENDBRANCH   1  17
TORSDOF 5
ENDMDL
