MODEL 1
REMARK VINA RESULT:      -7.2      0.000      0.000
REMARK  Name = 
REMARK  9 active torsions:
REMARK  status: ('A' for Active; 'I' for Inactive)
REMARK    1  A    between atoms: C_1  and  C_2
REMARK    2  A    between atoms: C_6  and  O_8
REMARK    3  A    between atoms: O_8  and  C_9
REMARK    4  A    between atoms: C_9  and  C_10
REMARK    5  A    between atoms: C_9  and  C_11
REMARK    6  A    between atoms: C_9  and  C_12
REMARK    7  A    between atoms: C_14  and  C_15
REMARK    8  A    between atoms: N_17  and  C_18
REMARK    9  A    between atoms: C_18  and  C_19
REMARK                            x       y       z     vdW  Elec       q    Type
REMARK                         _______ _______ _______ _____ _____    ______ ____
ROOT
ATOM      1  C   UNL     1       1.836   8.892  17.823  0.00  0.00    +0.000 C 
ATOM      2  C   UNL     1       1.414   9.121  19.231  0.00  0.00    +0.000 A 
ATOM      3  N   UNL     1       0.932  10.397  19.561  0.00  0.00    +0.000 NA
ATOM      4  C   UNL     1       0.557  10.423  20.818  0.00  0.00    +0.000 A 
ATOM      5  N   UNL     1       0.009  11.526  21.429  0.00  0.00    +0.000 N 
ATOM      6  C   UNL     1      -0.613  11.490  22.644  0.00  0.00    +0.000 C 
ATOM      7  O   UNL     1      -0.784  10.505  23.344  0.00  0.00    +0.000 OA
ATOM      8  S   UNL     1       0.840   8.988  21.682  0.00  0.00    +0.000 S 
ATOM      9  C   UNL     1       1.449   8.216  20.285  0.00  0.00    +0.000 A 
ATOM     10  H   UNL     1      -0.026  12.373  20.886  0.00  0.00    +0.000 HD
ENDROOT
BRANCH   9  11
ATOM     11  C   UNL     1       1.898   6.829  20.355  0.00  0.00    +0.000 C 
ATOM     12  O   UNL     1       1.312   5.958  20.991  0.00  0.00    +0.000 OA
ATOM     13  N   UNL     1       3.053   6.562  19.636  0.00  0.00    +0.000 N 
ATOM     14  H   UNL     1       3.468   7.336  19.131  0.00  0.00    +0.000 HD
BRANCH  13  15
ATOM     15  C   UNL     1       3.696   5.268  19.517  0.00  0.00    +0.000 C 
BRANCH  15  16
ATOM     16  C   UNL     1       3.517   4.632  18.123  0.00  0.00    +0.000 C 
ATOM     17  C   UNL     1       4.151   3.235  17.992  0.00  0.00    +0.000 C 
ATOM     18  C   UNL     1       3.419   2.170  18.807  0.00  0.00    +0.000 C 
ATOM     19  C   UNL     1       1.938   2.105  18.443  0.00  0.00    +0.000 C 
ATOM     20  C   UNL     1       1.261   3.471  18.511  0.00  0.00    +0.000 C 
ATOM     21  C   UNL     1       2.028   4.544  17.735  0.00  0.00    +0.000 C 
ENDBRANCH  15  16
ENDBRANCH  13  15
ENDBRANCH   9  11
BRANCH   6  22
ATOM     22  O   UNL     1      -1.083  12.729  22.992  0.00  0.00    +0.000 OA
BRANCH  22  23
ATOM     23  C   UNL     1      -2.492  12.995  22.732  0.00  0.00    +0.000 C 
ATOM     24  C   UNL     1      -3.402  12.329  23.782  0.00  0.00    +0.000 C 
ATOM     25  C   UNL     1      -2.683  14.515  22.847  0.00  0.00    +0.000 C 
ATOM     26  C   UNL     1      -2.866  12.589  21.295  0.00  0.00    +0.000 C 
ENDBRANCH  22  23
ENDBRANCH   6  22
TORSDOF 5
ENDMDL
MODEL 2
REMARK VINA RESULT:      -6.9      3.173      8.309
REMARK  Name = 
REMARK  9 active torsions:
REMARK  status: ('A' for Active; 'I' for Inactive)
REMARK    1  A    between atoms: C_1  and  C_2
REMARK    2  A    between atoms: C_6  and  O_8
REMARK    3  A    between atoms: O_8  and  C_9
REMARK    4  A    between atoms: C_9  and  C_10
REMARK    5  A    between atoms: C_9  and  C_11
REMARK    6  A    between atoms: C_9  and  C_12
REMARK    7  A    between atoms: C_14  and  C_15
REMARK    8  A    between atoms: N_17  and  C_18
REMARK    9  A    between atoms: C_18  and  C_19
REMARK                            x       y       z     vdW  Elec       q    Type
REMARK                         _______ _______ _______ _____ _____    ______ ____
ROOT
ATOM      1  C   UNL     1      -0.096  10.121  22.414  0.00  0.00    +0.000 C 
ATOM      2  C   UNL     1       0.554   9.448  21.258  0.00  0.00    +0.000 A 
ATOM      3  N   UNL     1       1.350   8.325  21.528  0.00  0.00    +0.000 NA
ATOM      4  C   UNL     1       1.808   7.819  20.408  0.00  0.00    +0.000 A 
ATOM      5  N   UNL     1       2.593   6.692  20.342  0.00  0.00    +0.000 N 
ATOM      6  C   UNL     1       2.859   6.018  19.185  0.00  0.00    +0.000 C 
ATOM      7  O   UNL     1       2.444   6.295  18.071  0.00  0.00    +0.000 OA
ATOM      8  S   UNL     1       1.402   8.691  19.007  0.00  0.00    +0.000 S 
ATOM      9  C   UNL     1       0.479   9.805  19.916  0.00  0.00    +0.000 A 
ATOM     10  H   UNL     1       2.885   6.294  21.219  0.00  0.00    +0.000 HD
ENDROOT
BRANCH   9  11
ATOM     11  C   UNL     1      -0.209  10.903  19.244  0.00  0.00    +0.000 C 
ATOM     12  O   UNL     1       0.366  11.896  18.806  0.00  0.00    +0.000 OA
ATOM     13  N   UNL     1      -1.581  10.740  19.133  0.00  0.00    +0.000 N 
ATOM     14  H   UNL     1      -1.973   9.886  19.513  0.00  0.00    +0.000 HD
BRANCH  13  15
ATOM     15  C   UNL     1      -2.494  11.664  18.491  0.00  0.00    +0.000 C 
BRANCH  15  16
ATOM     16  C   UNL     1      -3.764  10.977  17.947  0.00  0.00    +0.000 C 
ATOM     17  C   UNL     1      -4.348  11.654  16.693  0.00  0.00    +0.000 C 
ATOM     18  C   UNL     1      -3.467  11.480  15.458  0.00  0.00    +0.000 C 
ATOM     19  C   UNL     1      -3.188  10.007  15.171  0.00  0.00    +0.000 C 
ATOM     20  C   UNL     1      -2.647   9.267  16.392  0.00  0.00    +0.000 C 
ATOM     21  C   UNL     1      -3.507   9.489  17.638  0.00  0.00    +0.000 C 
ENDBRANCH  15  16
ENDBRANCH  13  15
ENDBRANCH   9  11
BRANCH   6  22
ATOM     22  O   UNL     1       3.646   4.922  19.424  0.00  0.00    +0.000 OA
BRANCH  22  23
ATOM     23  C   UNL     1       3.026   3.616  19.242  0.00  0.00    +0.000 C 
ATOM     24  C   UNL     1       3.227   3.083  17.812  0.00  0.00    +0.000 C 
ATOM     25  C   UNL     1       3.739   2.652  20.203  0.00  0.00    +0.000 C 
ATOM     26  C   UNL     1       1.541   3.658  19.647  0.00  0.00    +0.000 C 
ENDBRANCH  22  23
ENDBRANCH   6  22
TORSDOF 5
ENDMDL
MODEL 3
REMARK VINA RESULT:      -6.7      4.279     10.040
REMARK  Name = 
REMARK  9 active torsions:
REMARK  status: ('A' for Active; 'I' for Inactive)
REMARK    1  A    between atoms: C_1  and  C_2
REMARK    2  A    between atoms: C_6  and  O_8
REMARK    3  A    between atoms: O_8  and  C_9
REMARK    4  A    between atoms: C_9  and  C_10
REMARK    5  A    between atoms: C_9  and  C_11
REMARK    6  A    between atoms: C_9  and  C_12
REMARK    7  A    between atoms: C_14  and  C_15
REMARK    8  A    between atoms: N_17  and  C_18
REMARK    9  A    between atoms: C_18  and  C_19
REMARK                            x       y       z     vdW  Elec       q    Type
REMARK                         _______ _______ _______ _____ _____    ______ ____
ROOT
ATOM      1  C   UNL     1       1.640   4.199  19.108  0.00  0.00    +0.000 C 
ATOM      2  C   UNL     1       2.718   4.729  18.231  0.00  0.00    +0.000 A 
ATOM      3  N   UNL     1       3.412   3.808  17.433  0.00  0.00    +0.000 NA
ATOM      4  C   UNL     1       4.290   4.433  16.685  0.00  0.00    +0.000 A 
ATOM      5  N   UNL     1       5.102   3.805  15.771  0.00  0.00    +0.000 N 
ATOM      6  C   UNL     1       5.826   4.464  14.819  0.00  0.00    +0.000 C 
ATOM      7  O   UNL     1       5.852   5.669  14.631  0.00  0.00    +0.000 OA
ATOM      8  S   UNL     1       4.400   6.107  16.955  0.00  0.00    +0.000 S 
ATOM      9  C   UNL     1       3.140   6.048  18.107  0.00  0.00    +0.000 A 
ATOM     10  H   UNL     1       5.060   2.799  15.746  0.00  0.00    +0.000 HD
ENDROOT
BRANCH   9  11
ATOM     11  C   UNL     1       2.699   7.271  18.772  0.00  0.00    +0.000 C 
ATOM     12  O   UNL     1       2.676   8.369  18.223  0.00  0.00    +0.000 OA
ATOM     13  N   UNL     1       2.300   7.099  20.088  0.00  0.00    +0.000 N 
ATOM     14  H   UNL     1       2.341   6.157  20.460  0.00  0.00    +0.000 HD
BRANCH  13  15
ATOM     15  C   UNL     1       1.797   8.139  20.963  0.00  0.00    +0.000 C 
BRANCH  15  16
ATOM     16  C   UNL     1       0.310   8.467  20.717  0.00  0.00    +0.000 C 
ATOM     17  C   UNL     1      -0.555   8.419  21.990  0.00  0.00    +0.000 C 
ATOM     18  C   UNL     1      -0.245   9.555  22.963  0.00  0.00    +0.000 C 
ATOM     19  C   UNL     1      -0.381  10.920  22.294  0.00  0.00    +0.000 C 
ATOM     20  C   UNL     1       0.420  11.016  20.999  0.00  0.00    +0.000 C 
ATOM     21  C   UNL     1       0.144   9.846  20.051  0.00  0.00    +0.000 C 
ENDBRANCH  15  16
ENDBRANCH  13  15
ENDBRANCH   9  11
BRANCH   6  22
ATOM     22  O   UNL     1       6.522   3.582  14.034  0.00  0.00    +0.000 OA
BRANCH  22  23
ATOM     23  C   UNL     1       6.315   3.680  12.594  0.00  0.00    +0.000 C 
ATOM     24  C   UNL     1       7.214   4.758  11.961  0.00  0.00    +0.000 C 
ATOM     25  C   UNL     1       6.723   2.324  11.998  0.00  0.00    +0.000 C 
ATOM     26  C   UNL     1       4.826   3.898  12.272  0.00  0.00    +0.000 C 
ENDBRANCH  22  23
ENDBRANCH   6  22
TORSDOF 5
ENDMDL
MODEL 4
REMARK VINA RESULT:      -6.7      2.958      4.413
REMARK  Name = 
REMARK  9 active torsions:
REMARK  status: ('A' for Active; 'I' for Inactive)
REMARK    1  A    between atoms: C_1  and  C_2
REMARK    2  A    between atoms: C_6  and  O_8
REMARK    3  A    between atoms: O_8  and  C_9
REMARK    4  A    between atoms: C_9  and  C_10
REMARK    5  A    between atoms: C_9  and  C_11
REMARK    6  A    between atoms: C_9  and  C_12
REMARK    7  A    between atoms: C_14  and  C_15
REMARK    8  A    between atoms: N_17  and  C_18
REMARK    9  A    between atoms: C_18  and  C_19
REMARK                            x       y       z     vdW  Elec       q    Type
REMARK                         _______ _______ _______ _____ _____    ______ ____
ROOT
ATOM      1  C   UNL     1       2.223   4.534  21.096  0.00  0.00    +0.000 C 
ATOM      2  C   UNL     1       2.035   5.703  20.196  0.00  0.00    +0.000 A 
ATOM      3  N   UNL     1       1.608   6.905  20.779  0.00  0.00    +0.000 NA
ATOM      4  C   UNL     1       1.540   7.847  19.869  0.00  0.00    +0.000 A 
ATOM      5  N   UNL     1       1.182   9.146  20.138  0.00  0.00    +0.000 N 
ATOM      6  C   UNL     1       1.353  10.179  19.260  0.00  0.00    +0.000 C 
ATOM      7  O   UNL     1       1.844  10.110  18.146  0.00  0.00    +0.000 OA
ATOM      8  S   UNL     1       1.882   7.339  18.284  0.00  0.00    +0.000 S 
ATOM      9  C   UNL     1       2.224   5.753  18.820  0.00  0.00    +0.000 A 
ATOM     10  H   UNL     1       0.885   9.348  21.079  0.00  0.00    +0.000 HD
ENDROOT
BRANCH   9  11
ATOM     11  C   UNL     1       2.630   4.730  17.861  0.00  0.00    +0.000 C 
ATOM     12  O   UNL     1       1.844   3.950  17.330  0.00  0.00    +0.000 OA
ATOM     13  N   UNL     1       3.988   4.704  17.587  0.00  0.00    +0.000 N 
ATOM     14  H   UNL     1       4.565   5.390  18.061  0.00  0.00    +0.000 HD
BRANCH  13  15
ATOM     15  C   UNL     1       4.648   3.808  16.657  0.00  0.00    +0.000 C 
BRANCH  15  16
ATOM     16  C   UNL     1       5.609   4.538  15.696  0.00  0.00    +0.000 C 
ATOM     17  C   UNL     1       5.382   6.059  15.627  0.00  0.00    +0.000 C 
ATOM     18  C   UNL     1       5.783   6.779  16.913  0.00  0.00    +0.000 C 
ATOM     19  C   UNL     1       7.232   6.486  17.292  0.00  0.00    +0.000 C 
ATOM     20  C   UNL     1       7.533   4.990  17.334  0.00  0.00    +0.000 C 
ATOM     21  C   UNL     1       7.080   4.267  16.063  0.00  0.00    +0.000 C 
ENDBRANCH  15  16
ENDBRANCH  13  15
ENDBRANCH   9  11
BRANCH   6  22
ATOM     22  O   UNL     1       0.930  11.362  19.806  0.00  0.00    +0.000 OA
BRANCH  22  23
ATOM     23  C   UNL     1      -0.365  11.864  19.365  0.00  0.00    +0.000 C 
ATOM     24  C   UNL     1      -1.227  10.749  18.742  0.00  0.00    +0.000 C 
ATOM     25  C   UNL     1      -1.093  12.369  20.620  0.00  0.00    +0.000 C 
ATOM     26  C   UNL     1      -0.190  13.064  18.418  0.00  0.00    +0.000 C 
ENDBRANCH  22  23
ENDBRANCH   6  22
TORSDOF 5
ENDMDL
MODEL 5
REMARK VINA RESULT:      -6.6      2.892      4.595
REMARK  Name = 
REMARK  9 active torsions:
REMARK  status: ('A' for Active; 'I' for Inactive)
REMARK    1  A    between atoms: C_1  and  C_2
REMARK    2  A    between atoms: C_6  and  O_8
REMARK    3  A    between atoms: O_8  and  C_9
REMARK    4  A    between atoms: C_9  and  C_10
REMARK    5  A    between atoms: C_9  and  C_11
REMARK    6  A    between atoms: C_9  and  C_12
REMARK    7  A    between atoms: C_14  and  C_15
REMARK    8  A    between atoms: N_17  and  C_18
REMARK    9  A    between atoms: C_18  and  C_19
REMARK                            x       y       z     vdW  Elec       q    Type
REMARK                         _______ _______ _______ _____ _____    ______ ____
ROOT
ATOM      1  C   UNL     1       2.225   3.799  21.541  0.00  0.00    +0.000 C 
ATOM      2  C   UNL     1       2.194   5.043  20.725  0.00  0.00    +0.000 A 
ATOM      3  N   UNL     1       1.349   6.077  21.156  0.00  0.00    +0.000 NA
ATOM      4  C   UNL     1       1.472   7.116  20.365  0.00  0.00    +0.000 A 
ATOM      5  N   UNL     1       0.797   8.300  20.547  0.00  0.00    +0.000 N 
ATOM      6  C   UNL     1       1.104   9.458  19.893  0.00  0.00    +0.000 C 
ATOM      7  O   UNL     1       2.003   9.618  19.083  0.00  0.00    +0.000 OA
ATOM      8  S   UNL     1       2.508   6.890  19.038  0.00  0.00    +0.000 S 
ATOM      9  C   UNL     1       2.903   5.312  19.560  0.00  0.00    +0.000 A 
ATOM     10  H   UNL     1       0.117   8.322  21.290  0.00  0.00    +0.000 HD
ENDROOT
BRANCH   9  11
ATOM     11  C   UNL     1       3.843   4.502  18.791  0.00  0.00    +0.000 C 
ATOM     12  O   UNL     1       4.674   3.758  19.305  0.00  0.00    +0.000 OA
ATOM     13  N   UNL     1       3.726   4.634  17.417  0.00  0.00    +0.000 N 
ATOM     14  H   UNL     1       3.007   5.262  17.076  0.00  0.00    +0.000 HD
BRANCH  13  15
ATOM     15  C   UNL     1       4.517   3.928  16.427  0.00  0.00    +0.000 C 
BRANCH  15  16
ATOM     16  C   UNL     1       5.379   4.870  15.560  0.00  0.00    +0.000 C 
ATOM     17  C   UNL     1       5.217   6.360  15.912  0.00  0.00    +0.000 C 
ATOM     18  C   UNL     1       5.814   6.718  17.272  0.00  0.00    +0.000 C 
ATOM     19  C   UNL     1       7.285   6.319  17.362  0.00  0.00    +0.000 C 
ATOM     20  C   UNL     1       7.517   4.860  16.980  0.00  0.00    +0.000 C 
ATOM     21  C   UNL     1       6.871   4.495  15.641  0.00  0.00    +0.000 C 
ENDBRANCH  15  16
ENDBRANCH  13  15
ENDBRANCH   9  11
BRANCH   6  22
ATOM     22  O   UNL     1       0.282  10.480  20.291  0.00  0.00    +0.000 OA
BRANCH  22  23
ATOM     23  C   UNL     1      -0.434  11.193  19.241  0.00  0.00    +0.000 C 
ATOM     24  C   UNL     1      -0.936  10.238  18.142  0.00  0.00    +0.000 C 
ATOM     25  C   UNL     1      -1.665  11.831  19.902  0.00  0.00    +0.000 C 
ATOM     26  C   UNL     1       0.429  12.334  18.673  0.00  0.00    +0.000 C 
ENDBRANCH  22  23
ENDBRANCH   6  22
TORSDOF 5
ENDMDL
MODEL 6
REMARK VINA RESULT:      -6.6      2.860      4.907
REMARK  Name = 
REMARK  9 active torsions:
REMARK  status: ('A' for Active; 'I' for Inactive)
REMARK    1  A    between atoms: C_1  and  C_2
REMARK    2  A    between atoms: C_6  and  O_8
REMARK    3  A    between atoms: O_8  and  C_9
REMARK    4  A    between atoms: C_9  and  C_10
REMARK    5  A    between atoms: C_9  and  C_11
REMARK    6  A    between atoms: C_9  and  C_12
REMARK    7  A    between atoms: C_14  and  C_15
REMARK    8  A    between atoms: N_17  and  C_18
REMARK    9  A    between atoms: C_18  and  C_19
REMARK                            x       y       z     vdW  Elec       q    Type
REMARK                         _______ _______ _______ _____ _____    ______ ____
ROOT
ATOM      1  C   UNL     1       2.592   2.731  21.067  0.00  0.00    +0.000 C 
ATOM      2  C   UNL     1       2.388   4.058  20.425  0.00  0.00    +0.000 A 
ATOM      3  N   UNL     1       1.874   5.090  21.224  0.00  0.00    +0.000 NA
ATOM      4  C   UNL     1       1.800   6.200  20.531  0.00  0.00    +0.000 A 
ATOM      5  N   UNL     1       1.366   7.398  21.048  0.00  0.00    +0.000 N 
ATOM      6  C   UNL     1       1.525   8.599  20.419  0.00  0.00    +0.000 C 
ATOM      7  O   UNL     1       2.070   8.790  19.344  0.00  0.00    +0.000 OA
ATOM      8  S   UNL     1       2.241   6.057  18.896  0.00  0.00    +0.000 S 
ATOM      9  C   UNL     1       2.637   4.408  19.103  0.00  0.00    +0.000 A 
ATOM     10  H   UNL     1       1.016   7.381  21.992  0.00  0.00    +0.000 HD
ENDROOT
BRANCH   9  11
ATOM     11  C   UNL     1       3.138   3.630  17.974  0.00  0.00    +0.000 C 
ATOM     12  O   UNL     1       2.772   2.484  17.726  0.00  0.00    +0.000 OA
ATOM     13  N   UNL     1       4.068   4.290  17.187  0.00  0.00    +0.000 N 
ATOM     14  H   UNL     1       4.306   5.238  17.457  0.00  0.00    +0.000 HD
BRANCH  13  15
ATOM     15  C   UNL     1       4.701   3.758  15.997  0.00  0.00    +0.000 C 
BRANCH  15  16
ATOM     16  C   UNL     1       5.556   4.803  15.250  0.00  0.00    +0.000 C 
ATOM     17  C   UNL     1       5.262   6.256  15.663  0.00  0.00    +0.000 C 
ATOM     18  C   UNL     1       5.727   6.577  17.083  0.00  0.00    +0.000 C 
ATOM     19  C   UNL     1       7.211   6.275  17.268  0.00  0.00    +0.000 C 
ATOM     20  C   UNL     1       7.576   4.858  16.833  0.00  0.00    +0.000 C 
ATOM     21  C   UNL     1       7.061   4.526  15.430  0.00  0.00    +0.000 C 
ENDBRANCH  15  16
ENDBRANCH  13  15
ENDBRANCH   9  11
BRANCH   6  22
ATOM     22  O   UNL     1       1.018   9.622  21.178  0.00  0.00    +0.000 OA
BRANCH  22  23
ATOM     23  C   UNL     1       0.197  10.608  20.487  0.00  0.00    +0.000 C 
ATOM     24  C   UNL     1      -0.683   9.960  19.403  0.00  0.00    +0.000 C 
ATOM     25  C   UNL     1      -0.738  11.219  21.542  0.00  0.00    +0.000 C 
ATOM     26  C   UNL     1       1.069  11.746  19.928  0.00  0.00    +0.000 C 
ENDBRANCH  22  23
ENDBRANCH   6  22
TORSDOF 5
ENDMDL
MODEL 7
REMARK VINA RESULT:      -6.6      3.687      8.956
REMARK  Name = 
REMARK  9 active torsions:
REMARK  status: ('A' for Active; 'I' for Inactive)
REMARK    1  A    between atoms: C_1  and  C_2
REMARK    2  A    between atoms: C_6  and  O_8
REMARK    3  A    between atoms: O_8  and  C_9
REMARK    4  A    between atoms: C_9  and  C_10
REMARK    5  A    between atoms: C_9  and  C_11
REMARK    6  A    between atoms: C_9  and  C_12
REMARK    7  A    between atoms: C_14  and  C_15
REMARK    8  A    between atoms: N_17  and  C_18
REMARK    9  A    between atoms: C_18  and  C_19
REMARK                            x       y       z     vdW  Elec       q    Type
REMARK                         _______ _______ _______ _____ _____    ______ ____
ROOT
ATOM      1  C   UNL     1      -0.202  10.190  22.173  0.00  0.00    +0.000 C 
ATOM      2  C   UNL     1       0.593   9.427  21.173  0.00  0.00    +0.000 A 
ATOM      3  N   UNL     1       1.086   8.172  21.561  0.00  0.00    +0.000 NA
ATOM      4  C   UNL     1       1.717   7.608  20.560  0.00  0.00    +0.000 A 
ATOM      5  N   UNL     1       2.284   6.357  20.620  0.00  0.00    +0.000 N 
ATOM      6  C   UNL     1       2.713   5.664  19.524  0.00  0.00    +0.000 C 
ATOM      7  O   UNL     1       2.649   6.031  18.362  0.00  0.00    +0.000 OA
ATOM      8  S   UNL     1       1.838   8.562  19.158  0.00  0.00    +0.000 S 
ATOM      9  C   UNL     1       0.924   9.813  19.880  0.00  0.00    +0.000 A 
ATOM     10  H   UNL     1       2.270   5.898  21.516  0.00  0.00    +0.000 HD
ENDROOT
BRANCH   9  11
ATOM     11  C   UNL     1       0.631  11.030  19.128  0.00  0.00    +0.000 C 
ATOM     12  O   UNL     1      -0.356  11.161  18.410  0.00  0.00    +0.000 OA
ATOM     13  N   UNL     1       1.563  12.043  19.289  0.00  0.00    +0.000 N 
ATOM     14  H   UNL     1       2.343  11.855  19.908  0.00  0.00    +0.000 HD
BRANCH  13  15
ATOM     15  C   UNL     1       1.499  13.357  18.679  0.00  0.00    +0.000 C 
BRANCH  15  16
ATOM     16  C   UNL     1       2.342  14.411  19.427  0.00  0.00    +0.000 C 
ATOM     17  C   UNL     1       3.697  14.709  18.759  0.00  0.00    +0.000 C 
ATOM     18  C   UNL     1       3.555  15.454  17.432  0.00  0.00    +0.000 C 
ATOM     19  C   UNL     1       2.760  16.746  17.596  0.00  0.00    +0.000 C 
ATOM     20  C   UNL     1       1.421  16.522  18.295  0.00  0.00    +0.000 C 
ATOM     21  C   UNL     1       1.566  15.730  19.597  0.00  0.00    +0.000 C 
ENDBRANCH  15  16
ENDBRANCH  13  15
ENDBRANCH   9  11
BRANCH   6  22
ATOM     22  O   UNL     1       3.210   4.438  19.882  0.00  0.00    +0.000 OA
BRANCH  22  23
ATOM     23  C   UNL     1       2.236   3.384  20.138  0.00  0.00    +0.000 C 
ATOM     24  C   UNL     1       0.800   3.845  19.823  0.00  0.00    +0.000 C 
ATOM     25  C   UNL     1       2.575   2.230  19.182  0.00  0.00    +0.000 C 
ATOM     26  C   UNL     1       2.376   2.851  21.575  0.00  0.00    +0.000 C 
ENDBRANCH  22  23
ENDBRANCH   6  22
TORSDOF 5
ENDMDL
MODEL 8
REMARK VINA RESULT:      -6.6      2.322      3.215
REMARK  Name = 
REMARK  9 active torsions:
REMARK  status: ('A' for Active; 'I' for Inactive)
REMARK    1  A    between atoms: C_1  and  C_2
REMARK    2  A    between atoms: C_6  and  O_8
REMARK    3  A    between atoms: O_8  and  C_9
REMARK    4  A    between atoms: C_9  and  C_10
REMARK    5  A    between atoms: C_9  and  C_11
REMARK    6  A    between atoms: C_9  and  C_12
REMARK    7  A    between atoms: C_14  and  C_15
REMARK    8  A    between atoms: N_17  and  C_18
REMARK    9  A    between atoms: C_18  and  C_19
REMARK                            x       y       z     vdW  Elec       q    Type
REMARK                         _______ _______ _______ _____ _____    ______ ____
ROOT
ATOM      1  C   UNL     1       4.112   7.059  16.825  0.00  0.00    +0.000 C 
ATOM      2  C   UNL     1       3.117   7.645  17.764  0.00  0.00    +0.000 A 
ATOM      3  N   UNL     1       2.524   8.863  17.399  0.00  0.00    +0.000 NA
ATOM      4  C   UNL     1       1.640   9.220  18.300  0.00  0.00    +0.000 A 
ATOM      5  N   UNL     1       0.868  10.353  18.207  0.00  0.00    +0.000 N 
ATOM      6  C   UNL     1      -0.220  10.598  18.996  0.00  0.00    +0.000 C 
ATOM      7  O   UNL     1      -0.665   9.867  19.865  0.00  0.00    +0.000 OA
ATOM      8  S   UNL     1       1.537   8.193  19.650  0.00  0.00    +0.000 S 
ATOM      9  C   UNL     1       2.701   7.133  18.987  0.00  0.00    +0.000 A 
ATOM     10  H   UNL     1       1.063  10.971  17.436  0.00  0.00    +0.000 HD
ENDROOT
BRANCH   9  11
ATOM     11  C   UNL     1       3.092   5.930  19.716  0.00  0.00    +0.000 C 
ATOM     12  O   UNL     1       4.254   5.543  19.811  0.00  0.00    +0.000 OA
ATOM     13  N   UNL     1       2.040   5.248  20.306  0.00  0.00    +0.000 N 
ATOM     14  H   UNL     1       1.114   5.642  20.187  0.00  0.00    +0.000 HD
BRANCH  13  15
ATOM     15  C   UNL     1       2.154   4.043  21.104  0.00  0.00    +0.000 C 
BRANCH  15  16
ATOM     16  C   UNL     1       1.551   2.802  20.413  0.00  0.00    +0.000 C 
ATOM     17  C   UNL     1       0.630   3.139  19.226  0.00  0.00    +0.000 C 
ATOM     18  C   UNL     1       1.388   3.702  18.026  0.00  0.00    +0.000 C 
ATOM     19  C   UNL     1       2.499   2.759  17.571  0.00  0.00    +0.000 C 
ATOM     20  C   UNL     1       3.422   2.352  18.715  0.00  0.00    +0.000 C 
ATOM     21  C   UNL     1       2.653   1.838  19.934  0.00  0.00    +0.000 C 
ENDBRANCH  15  16
ENDBRANCH  13  15
ENDBRANCH   9  11
BRANCH   6  22
ATOM     22  O   UNL     1      -0.808  11.790  18.664  0.00  0.00    +0.000 OA
BRANCH  22  23
ATOM     23  C   UNL     1      -0.543  12.921  19.544  0.00  0.00    +0.000 C 
ATOM     24  C   UNL     1       0.654  12.652  20.475  0.00  0.00    +0.000 C 
ATOM     25  C   UNL     1      -0.173  14.106  18.639  0.00  0.00    +0.000 C 
ATOM     26  C   UNL     1      -1.811  13.313  20.323  0.00  0.00    +0.000 C 
ENDBRANCH  22  23
ENDBRANCH   6  22
TORSDOF 5
ENDMDL
MODEL 9
REMARK VINA RESULT:      -6.6      4.373     10.188
REMARK  Name = 
REMARK  9 active torsions:
REMARK  status: ('A' for Active; 'I' for Inactive)
REMARK    1  A    between atoms: C_1  and  C_2
REMARK    2  A    between atoms: C_6  and  O_8
REMARK    3  A    between atoms: O_8  and  C_9
REMARK    4  A    between atoms: C_9  and  C_10
REMARK    5  A    between atoms: C_9  and  C_11
REMARK    6  A    between atoms: C_9  and  C_12
REMARK    7  A    between atoms: C_14  and  C_15
REMARK    8  A    between atoms: N_17  and  C_18
REMARK    9  A    between atoms: C_18  and  C_19
REMARK                            x       y       z     vdW  Elec       q    Type
REMARK                         _______ _______ _______ _____ _____    ______ ____
ROOT
ATOM      1  C   UNL     1       1.508   3.396  18.554  0.00  0.00    +0.000 C 
ATOM      2  C   UNL     1       2.683   4.049  17.918  0.00  0.00    +0.000 A 
ATOM      3  N   UNL     1       3.423   3.292  16.998  0.00  0.00    +0.000 NA
ATOM      4  C   UNL     1       4.389   4.020  16.491  0.00  0.00    +0.000 A 
ATOM      5  N   UNL     1       5.267   3.567  15.535  0.00  0.00    +0.000 N 
ATOM      6  C   UNL     1       6.102   4.381  14.824  0.00  0.00    +0.000 C 
ATOM      7  O   UNL     1       6.184   5.595  14.915  0.00  0.00    +0.000 OA
ATOM      8  S   UNL     1       4.525   5.585  17.139  0.00  0.00    +0.000 S 
ATOM      9  C   UNL     1       3.157   5.338  18.132  0.00  0.00    +0.000 A 
ATOM     10  H   UNL     1       5.196   2.595  15.280  0.00  0.00    +0.000 HD
ENDROOT
BRANCH   9  11
ATOM     11  C   UNL     1       2.692   6.406  19.013  0.00  0.00    +0.000 C 
ATOM     12  O   UNL     1       2.644   6.303  20.235  0.00  0.00    +0.000 OA
ATOM     13  N   UNL     1       2.306   7.565  18.358  0.00  0.00    +0.000 N 
ATOM     14  H   UNL     1       2.388   7.569  17.347  0.00  0.00    +0.000 HD
BRANCH  13  15
ATOM     15  C   UNL     1       1.832   8.778  18.993  0.00  0.00    +0.000 C 
BRANCH  15  16
ATOM     16  C   UNL     1       1.302   9.819  17.984  0.00  0.00    +0.000 C 
ATOM     17  C   UNL     1      -0.234   9.880  17.903  0.00  0.00    +0.000 C 
ATOM     18  C   UNL     1      -0.873  10.461  19.163  0.00  0.00    +0.000 C 
ATOM     19  C   UNL     1      -0.315  11.844  19.489  0.00  0.00    +0.000 C 
ATOM     20  C   UNL     1       1.210  11.859  19.539  0.00  0.00    +0.000 C 
ATOM     21  C   UNL     1       1.843  11.227  18.297  0.00  0.00    +0.000 C 
ENDBRANCH  15  16
ENDBRANCH  13  15
ENDBRANCH   9  11
BRANCH   6  22
ATOM     22  O   UNL     1       6.844   3.659  13.925  0.00  0.00    +0.000 OA
BRANCH  22  23
ATOM     23  C   UNL     1       6.476   3.783  12.520  0.00  0.00    +0.000 C 
ATOM     24  C   UNL     1       7.211   4.951  11.839  0.00  0.00    +0.000 C 
ATOM     25  C   UNL     1       6.924   2.485  11.831  0.00  0.00    +0.000 C 
ATOM     26  C   UNL     1       4.948   3.884  12.365  0.00  0.00    +0.000 C 
ENDBRANCH  22  23
ENDBRANCH   6  22
TORSDOF 5
ENDMDL
