MODEL 1
REMARK VINA RESULT:      -7.3      0.000      0.000
REMARK  Name = 
REMARK  6 active torsions:
REMARK  status: ('A' for Active; 'I' for Inactive)
REMARK    1  A    between atoms: C_1  and  C_2
REMARK    2  A    between atoms: C_2  and  C_3
REMARK    3  A    between atoms: C_2  and  C_4
REMARK    4  A    between atoms: C_7  and  C_8
REMARK    5  A    between atoms: C_9  and  C_10
REMARK    6  A    between atoms: C_10  and  C_12
REMARK                            x       y       z     vdW  Elec       q    Type
REMARK                         _______ _______ _______ _____ _____    ______ ____
ROOT
ATOM      1  C   UNL     1       1.965   3.071  19.397  0.00  0.00    +0.000 C 
ATOM      2  C   UNL     1       1.352   3.690  20.664  0.00  0.00    +0.000 C 
ATOM      3  C   UNL     1       1.924   5.065  21.014  0.00  0.00    +0.000 C 
ATOM      4  C   UNL     1       1.733   6.023  19.828  0.00  0.00    +0.000 C 
ATOM      5  C   UNL     1       2.024   7.481  20.186  0.00  0.00    +0.000 C 
ATOM      6  C   UNL     1       2.448   5.519  18.552  0.00  0.00    +0.000 C 
ATOM      7  C   UNL     1       1.898   4.123  18.279  0.00  0.00    +0.000 C 
ATOM      8  O   UNL     1       1.415   3.845  17.180  0.00  0.00    +0.000 OA
ENDROOT
BRANCH   1  10
ATOM      9  C   UNL     1       3.593   1.270  18.637  0.00  0.00    +0.000 C 
ATOM     10  C   UNL     1       3.383   2.472  19.569  0.00  0.00    +0.000 C 
ATOM     11  C   UNL     1       3.666   1.997  20.998  0.00  0.00    +0.000 C 
ENDBRANCH   1  10
BRANCH   6  12
ATOM     12  C   UNL     1       3.981   5.545  18.556  0.00  0.00    +0.000 C 
ATOM     13  O   UNL     1       4.639   5.658  19.593  0.00  0.00    +0.000 OA
BRANCH  12  14
ATOM     14  C   UNL     1       4.719   5.378  17.256  0.00  0.00    +0.000 A 
ATOM     15  C   UNL     1       4.845   6.422  16.332  0.00  0.00    +0.000 A 
ATOM     16  C   UNL     1       5.432   6.194  15.083  0.00  0.00    +0.000 A 
ATOM     17  C   UNL     1       5.911   4.930  14.754  0.00  0.00    +0.000 A 
ATOM     18  C   UNL     1       5.818   3.890  15.678  0.00  0.00    +0.000 A 
ATOM     19  C   UNL     1       5.225   4.111  16.926  0.00  0.00    +0.000 A 
ENDBRANCH  12  14
ENDBRANCH   6  12
TORSDOF 3
ENDMDL
MODEL 2
REMARK VINA RESULT:      -7.2      0.330      1.152
REMARK  Name = 
REMARK  6 active torsions:
REMARK  status: ('A' for Active; 'I' for Inactive)
REMARK    1  A    between atoms: C_1  and  C_2
REMARK    2  A    between atoms: C_2  and  C_3
REMARK    3  A    between atoms: C_2  and  C_4
REMARK    4  A    between atoms: C_7  and  C_8
REMARK    5  A    between atoms: C_9  and  C_10
REMARK    6  A    between atoms: C_10  and  C_12
REMARK                            x       y       z     vdW  Elec       q    Type
REMARK                         _______ _______ _______ _____ _____    ______ ____
ROOT
ATOM      1  C   UNL     1       1.745   3.340  19.420  0.00  0.00    +0.000 C 
ATOM      2  C   UNL     1       1.181   4.124  20.616  0.00  0.00    +0.000 C 
ATOM      3  C   UNL     1       1.849   5.485  20.829  0.00  0.00    +0.000 C 
ATOM      4  C   UNL     1       1.721   6.329  19.552  0.00  0.00    +0.000 C 
ATOM      5  C   UNL     1       2.114   7.792  19.763  0.00  0.00    +0.000 C 
ATOM      6  C   UNL     1       2.395   5.651  18.336  0.00  0.00    +0.000 C 
ATOM      7  C   UNL     1       1.749   4.276  18.202  0.00  0.00    +0.000 C 
ATOM      8  O   UNL     1       1.243   3.924  17.134  0.00  0.00    +0.000 OA
ENDROOT
BRANCH   1  10
ATOM      9  C   UNL     1       3.318   1.470  18.713  0.00  0.00    +0.000 C 
ATOM     10  C   UNL     1       3.119   2.664  19.657  0.00  0.00    +0.000 C 
ATOM     11  C   UNL     1       3.296   2.149  21.089  0.00  0.00    +0.000 C 
ENDBRANCH   1  10
BRANCH   6  12
ATOM     12  C   UNL     1       3.927   5.571  18.343  0.00  0.00    +0.000 C 
ATOM     13  O   UNL     1       4.592   5.707  19.372  0.00  0.00    +0.000 OA
BRANCH  12  14
ATOM     14  C   UNL     1       4.649   5.265  17.060  0.00  0.00    +0.000 A 
ATOM     15  C   UNL     1       5.084   3.973  16.739  0.00  0.00    +0.000 A 
ATOM     16  C   UNL     1       5.858   3.752  15.595  0.00  0.00    +0.000 A 
ATOM     17  C   UNL     1       6.191   4.811  14.758  0.00  0.00    +0.000 A 
ATOM     18  C   UNL     1       5.739   6.097  15.051  0.00  0.00    +0.000 A 
ATOM     19  C   UNL     1       4.969   6.325  16.198  0.00  0.00    +0.000 A 
ENDBRANCH  12  14
ENDBRANCH   6  12
TORSDOF 3
ENDMDL
MODEL 3
REMARK VINA RESULT:      -7.0      2.208      5.355
REMARK  Name = 
REMARK  6 active torsions:
REMARK  status: ('A' for Active; 'I' for Inactive)
REMARK    1  A    between atoms: C_1  and  C_2
REMARK    2  A    between atoms: C_2  and  C_3
REMARK    3  A    between atoms: C_2  and  C_4
REMARK    4  A    between atoms: C_7  and  C_8
REMARK    5  A    between atoms: C_9  and  C_10
REMARK    6  A    between atoms: C_10  and  C_12
REMARK                            x       y       z     vdW  Elec       q    Type
REMARK                         _______ _______ _______ _____ _____    ______ ____
ROOT
ATOM      1  C   UNL     1       6.626   5.950  16.711  0.00  0.00    +0.000 C 
ATOM      2  C   UNL     1       6.767   4.419  16.689  0.00  0.00    +0.000 C 
ATOM      3  C   UNL     1       5.657   3.690  17.451  0.00  0.00    +0.000 C 
ATOM      4  C   UNL     1       4.288   4.091  16.881  0.00  0.00    +0.000 C 
ATOM      5  C   UNL     1       3.148   3.210  17.394  0.00  0.00    +0.000 C 
ATOM      6  C   UNL     1       4.031   5.611  17.002  0.00  0.00    +0.000 C 
ATOM      7  C   UNL     1       5.191   6.298  16.289  0.00  0.00    +0.000 C 
ATOM      8  O   UNL     1       4.978   7.120  15.396  0.00  0.00    +0.000 OA
ENDROOT
BRANCH   1  10
ATOM      9  C   UNL     1       7.801   7.943  17.768  0.00  0.00    +0.000 C 
ATOM     10  C   UNL     1       7.042   6.636  18.036  0.00  0.00    +0.000 C 
ATOM     11  C   UNL     1       7.940   5.757  18.913  0.00  0.00    +0.000 C 
ENDBRANCH   1  10
BRANCH   6  12
ATOM     12  C   UNL     1       3.806   6.170  18.412  0.00  0.00    +0.000 C 
ATOM     13  O   UNL     1       4.433   5.763  19.392  0.00  0.00    +0.000 OA
BRANCH  12  14
ATOM     14  C   UNL     1       2.823   7.291  18.607  0.00  0.00    +0.000 A 
ATOM     15  C   UNL     1       2.587   8.256  17.620  0.00  0.00    +0.000 A 
ATOM     16  C   UNL     1       1.757   9.350  17.884  0.00  0.00    +0.000 A 
ATOM     17  C   UNL     1       1.144   9.482  19.125  0.00  0.00    +0.000 A 
ATOM     18  C   UNL     1       1.348   8.512  20.107  0.00  0.00    +0.000 A 
ATOM     19  C   UNL     1       2.183   7.418  19.849  0.00  0.00    +0.000 A 
ENDBRANCH  12  14
ENDBRANCH   6  12
TORSDOF 3
ENDMDL
MODEL 4
REMARK VINA RESULT:      -7.0      1.398      4.207
REMARK  Name = 
REMARK  6 active torsions:
REMARK  status: ('A' for Active; 'I' for Inactive)
REMARK    1  A    between atoms: C_1  and  C_2
REMARK    2  A    between atoms: C_2  and  C_3
REMARK    3  A    between atoms: C_2  and  C_4
REMARK    4  A    between atoms: C_7  and  C_8
REMARK    5  A    between atoms: C_9  and  C_10
REMARK    6  A    between atoms: C_10  and  C_12
REMARK                            x       y       z     vdW  Elec       q    Type
REMARK                         _______ _______ _______ _____ _____    ______ ____
ROOT
ATOM      1  C   UNL     1       3.247   3.418  17.262  0.00  0.00    +0.000 C 
ATOM      2  C   UNL     1       3.549   2.205  18.158  0.00  0.00    +0.000 C 
ATOM      3  C   UNL     1       3.602   2.542  19.650  0.00  0.00    +0.000 C 
ATOM      4  C   UNL     1       2.276   3.185  20.083  0.00  0.00    +0.000 C 
ATOM      5  C   UNL     1       2.138   3.302  21.602  0.00  0.00    +0.000 C 
ATOM      6  C   UNL     1       1.984   4.492  19.309  0.00  0.00    +0.000 C 
ATOM      7  C   UNL     1       2.006   4.125  17.829  0.00  0.00    +0.000 C 
ATOM      8  O   UNL     1       1.048   4.395  17.102  0.00  0.00    +0.000 OA
ENDROOT
BRANCH   1  10
ATOM      9  C   UNL     1       4.804   4.466  15.546  0.00  0.00    +0.000 C 
ATOM     10  C   UNL     1       4.433   4.387  17.033  0.00  0.00    +0.000 C 
ATOM     11  C   UNL     1       5.697   3.982  17.799  0.00  0.00    +0.000 C 
ENDBRANCH   1  10
BRANCH   6  12
ATOM     12  C   UNL     1       2.876   5.700  19.618  0.00  0.00    +0.000 C 
ATOM     13  O   UNL     1       4.039   5.581  20.010  0.00  0.00    +0.000 OA
BRANCH  12  14
ATOM     14  C   UNL     1       2.337   7.085  19.389  0.00  0.00    +0.000 A 
ATOM     15  C   UNL     1       1.677   7.803  20.394  0.00  0.00    +0.000 A 
ATOM     16  C   UNL     1       1.084   9.037  20.109  0.00  0.00    +0.000 A 
ATOM     17  C   UNL     1       1.158   9.571  18.826  0.00  0.00    +0.000 A 
ATOM     18  C   UNL     1       1.837   8.879  17.824  0.00  0.00    +0.000 A 
ATOM     19  C   UNL     1       2.427   7.640  18.104  0.00  0.00    +0.000 A 
ENDBRANCH  12  14
ENDBRANCH   6  12
TORSDOF 3
ENDMDL
MODEL 5
REMARK VINA RESULT:      -6.9      1.416      4.199
REMARK  Name = 
REMARK  6 active torsions:
REMARK  status: ('A' for Active; 'I' for Inactive)
REMARK    1  A    between atoms: C_1  and  C_2
REMARK    2  A    between atoms: C_2  and  C_3
REMARK    3  A    between atoms: C_2  and  C_4
REMARK    4  A    between atoms: C_7  and  C_8
REMARK    5  A    between atoms: C_9  and  C_10
REMARK    6  A    between atoms: C_10  and  C_12
REMARK                            x       y       z     vdW  Elec       q    Type
REMARK                         _______ _______ _______ _____ _____    ______ ____
ROOT
ATOM      1  C   UNL     1       3.302   3.399  17.322  0.00  0.00    +0.000 C 
ATOM      2  C   UNL     1       3.635   2.232  18.266  0.00  0.00    +0.000 C 
ATOM      3  C   UNL     1       3.650   2.624  19.746  0.00  0.00    +0.000 C 
ATOM      4  C   UNL     1       2.293   3.231  20.134  0.00  0.00    +0.000 C 
ATOM      5  C   UNL     1       2.125   3.396  21.645  0.00  0.00    +0.000 C 
ATOM      6  C   UNL     1       1.964   4.496  19.308  0.00  0.00    +0.000 C 
ATOM      7  C   UNL     1       2.026   4.077  17.843  0.00  0.00    +0.000 C 
ATOM      8  O   UNL     1       1.070   4.284  17.092  0.00  0.00    +0.000 OA
ENDROOT
BRANCH   1  10
ATOM      9  C   UNL     1       4.824   4.469  15.588  0.00  0.00    +0.000 C 
ATOM     10  C   UNL     1       4.454   4.405  17.076  0.00  0.00    +0.000 C 
ATOM     11  C   UNL     1       5.730   4.058  17.850  0.00  0.00    +0.000 C 
ENDBRANCH   1  10
BRANCH   6  12
ATOM     12  C   UNL     1       2.805   5.748  19.586  0.00  0.00    +0.000 C 
ATOM     13  O   UNL     1       3.966   5.688  19.997  0.00  0.00    +0.000 OA
BRANCH  12  14
ATOM     14  C   UNL     1       2.215   7.103  19.304  0.00  0.00    +0.000 A 
ATOM     15  C   UNL     1       2.337   7.722  18.054  0.00  0.00    +0.000 A 
ATOM     16  C   UNL     1       1.883   9.032  17.866  0.00  0.00    +0.000 A 
ATOM     17  C   UNL     1       1.290   9.725  18.916  0.00  0.00    +0.000 A 
ATOM     18  C   UNL     1       1.136   9.108  20.157  0.00  0.00    +0.000 A 
ATOM     19  C   UNL     1       1.596   7.800  20.352  0.00  0.00    +0.000 A 
ENDBRANCH  12  14
ENDBRANCH   6  12
TORSDOF 3
ENDMDL
MODEL 6
REMARK VINA RESULT:      -6.8      1.783      2.241
REMARK  Name = 
REMARK  6 active torsions:
REMARK  status: ('A' for Active; 'I' for Inactive)
REMARK    1  A    between atoms: C_1  and  C_2
REMARK    2  A    between atoms: C_2  and  C_3
REMARK    3  A    between atoms: C_2  and  C_4
REMARK    4  A    between atoms: C_7  and  C_8
REMARK    5  A    between atoms: C_9  and  C_10
REMARK    6  A    between atoms: C_10  and  C_12
REMARK                            x       y       z     vdW  Elec       q    Type
REMARK                         _______ _______ _______ _____ _____    ______ ____
ROOT
ATOM      1  C   UNL     1       1.569   4.091  19.655  0.00  0.00    +0.000 C 
ATOM      2  C   UNL     1       1.657   5.437  20.392  0.00  0.00    +0.000 C 
ATOM      3  C   UNL     1       2.802   6.330  19.907  0.00  0.00    +0.000 C 
ATOM      4  C   UNL     1       2.662   6.576  18.397  0.00  0.00    +0.000 C 
ATOM      5  C   UNL     1       3.598   7.671  17.883  0.00  0.00    +0.000 C 
ATOM      6  C   UNL     1       2.706   5.259  17.586  0.00  0.00    +0.000 C 
ATOM      7  C   UNL     1       1.596   4.377  18.146  0.00  0.00    +0.000 C 
ATOM      8  O   UNL     1       0.739   3.900  17.398  0.00  0.00    +0.000 OA
ENDROOT
BRANCH   1  10
ATOM      9  C   UNL     1       2.371   1.694  19.367  0.00  0.00    +0.000 C 
ATOM     10  C   UNL     1       2.616   3.031  20.080  0.00  0.00    +0.000 C 
ATOM     11  C   UNL     1       2.614   2.754  21.587  0.00  0.00    +0.000 C 
ENDBRANCH   1  10
BRANCH   6  12
ATOM     12  C   UNL     1       4.051   4.525  17.522  0.00  0.00    +0.000 C 
ATOM     13  O   UNL     1       4.146   3.350  17.160  0.00  0.00    +0.000 OA
BRANCH  12  14
ATOM     14  C   UNL     1       5.310   5.272  17.865  0.00  0.00    +0.000 A 
ATOM     15  C   UNL     1       5.963   6.096  16.940  0.00  0.00    +0.000 A 
ATOM     16  C   UNL     1       7.195   6.677  17.256  0.00  0.00    +0.000 A 
ATOM     17  C   UNL     1       7.776   6.455  18.500  0.00  0.00    +0.000 A 
ATOM     18  C   UNL     1       7.121   5.661  19.441  0.00  0.00    +0.000 A 
ATOM     19  C   UNL     1       5.891   5.072  19.126  0.00  0.00    +0.000 A 
ENDBRANCH  12  14
ENDBRANCH   6  12
TORSDOF 3
ENDMDL
MODEL 7
REMARK VINA RESULT:      -6.8      2.189      5.380
REMARK  Name = 
REMARK  6 active torsions:
REMARK  status: ('A' for Active; 'I' for Inactive)
REMARK    1  A    between atoms: C_1  and  C_2
REMARK    2  A    between atoms: C_2  and  C_3
REMARK    3  A    between atoms: C_2  and  C_4
REMARK    4  A    between atoms: C_7  and  C_8
REMARK    5  A    between atoms: C_9  and  C_10
REMARK    6  A    between atoms: C_10  and  C_12
REMARK                            x       y       z     vdW  Elec       q    Type
REMARK                         _______ _______ _______ _____ _____    ______ ____
ROOT
ATOM      1  C   UNL     1       6.561   5.918  16.696  0.00  0.00    +0.000 C 
ATOM      2  C   UNL     1       6.662   4.385  16.632  0.00  0.00    +0.000 C 
ATOM      3  C   UNL     1       5.553   3.663  17.400  0.00  0.00    +0.000 C 
ATOM      4  C   UNL     1       4.181   4.113  16.873  0.00  0.00    +0.000 C 
ATOM      5  C   UNL     1       3.031   3.247  17.390  0.00  0.00    +0.000 C 
ATOM      6  C   UNL     1       3.965   5.636  17.039  0.00  0.00    +0.000 C 
ATOM      7  C   UNL     1       5.126   6.312  16.317  0.00  0.00    +0.000 C 
ATOM      8  O   UNL     1       4.913   7.162  15.450  0.00  0.00    +0.000 OA
ENDROOT
BRANCH   1  10
ATOM      9  C   UNL     1       7.797   7.861  17.776  0.00  0.00    +0.000 C 
ATOM     10  C   UNL     1       7.025   6.559  18.028  0.00  0.00    +0.000 C 
ATOM     11  C   UNL     1       7.932   5.641  18.854  0.00  0.00    +0.000 C 
ENDBRANCH   1  10
BRANCH   6  12
ATOM     12  C   UNL     1       3.788   6.163  18.468  0.00  0.00    +0.000 C 
ATOM     13  O   UNL     1       4.390   5.682  19.430  0.00  0.00    +0.000 OA
BRANCH  12  14
ATOM     14  C   UNL     1       2.884   7.342  18.706  0.00  0.00    +0.000 A 
ATOM     15  C   UNL     1       2.185   7.514  19.907  0.00  0.00    +0.000 A 
ATOM     16  C   UNL     1       1.262   8.556  20.044  0.00  0.00    +0.000 A 
ATOM     17  C   UNL     1       1.042   9.441  18.994  0.00  0.00    +0.000 A 
ATOM     18  C   UNL     1       1.755   9.297  17.804  0.00  0.00    +0.000 A 
ATOM     19  C   UNL     1       2.674   8.252  17.659  0.00  0.00    +0.000 A 
ENDBRANCH  12  14
ENDBRANCH   6  12
TORSDOF 3
ENDMDL
MODEL 8
REMARK VINA RESULT:      -6.8      1.153      1.357
REMARK  Name = 
REMARK  6 active torsions:
REMARK  status: ('A' for Active; 'I' for Inactive)
REMARK    1  A    between atoms: C_1  and  C_2
REMARK    2  A    between atoms: C_2  and  C_3
REMARK    3  A    between atoms: C_2  and  C_4
REMARK    4  A    between atoms: C_7  and  C_8
REMARK    5  A    between atoms: C_9  and  C_10
REMARK    6  A    between atoms: C_10  and  C_12
REMARK                            x       y       z     vdW  Elec       q    Type
REMARK                         _______ _______ _______ _____ _____    ______ ____
ROOT
ATOM      1  C   UNL     1       1.623   4.185  19.671  0.00  0.00    +0.000 C 
ATOM      2  C   UNL     1       1.103   5.469  20.338  0.00  0.00    +0.000 C 
ATOM      3  C   UNL     1       2.006   6.684  20.119  0.00  0.00    +0.000 C 
ATOM      4  C   UNL     1       2.194   6.925  18.613  0.00  0.00    +0.000 C 
ATOM      5  C   UNL     1       2.852   8.270  18.302  0.00  0.00    +0.000 C 
ATOM      6  C   UNL     1       2.845   5.712  17.907  0.00  0.00    +0.000 C 
ATOM      7  C   UNL     1       1.950   4.514  18.207  0.00  0.00    +0.000 C 
ATOM      8  O   UNL     1       1.504   3.821  17.290  0.00  0.00    +0.000 OA
ENDROOT
BRANCH   1  10
ATOM      9  C   UNL     1       3.301   2.274  19.604  0.00  0.00    +0.000 C 
ATOM     10  C   UNL     1       2.795   3.484  20.402  0.00  0.00    +0.000 C 
ATOM     11  C   UNL     1       2.419   2.984  21.801  0.00  0.00    +0.000 C 
ENDBRANCH   1  10
BRANCH   6  12
ATOM     12  C   UNL     1       4.317   5.427  18.226  0.00  0.00    +0.000 C 
ATOM     13  O   UNL     1       4.757   5.428  19.378  0.00  0.00    +0.000 OA
BRANCH  12  14
ATOM     14  C   UNL     1       5.256   5.085  17.103  0.00  0.00    +0.000 A 
ATOM     15  C   UNL     1       6.506   5.701  16.963  0.00  0.00    +0.000 A 
ATOM     16  C   UNL     1       7.299   5.446  15.839  0.00  0.00    +0.000 A 
ATOM     17  C   UNL     1       6.859   4.565  14.856  0.00  0.00    +0.000 A 
ATOM     18  C   UNL     1       5.629   3.923  14.999  0.00  0.00    +0.000 A 
ATOM     19  C   UNL     1       4.830   4.180  16.119  0.00  0.00    +0.000 A 
ENDBRANCH  12  14
ENDBRANCH   6  12
TORSDOF 3
ENDMDL
MODEL 9
REMARK VINA RESULT:      -6.7      1.320      3.631
REMARK  Name = 
REMARK  6 active torsions:
REMARK  status: ('A' for Active; 'I' for Inactive)
REMARK    1  A    between atoms: C_1  and  C_2
REMARK    2  A    between atoms: C_2  and  C_3
REMARK    3  A    between atoms: C_2  and  C_4
REMARK    4  A    between atoms: C_7  and  C_8
REMARK    5  A    between atoms: C_9  and  C_10
REMARK    6  A    between atoms: C_10  and  C_12
REMARK                            x       y       z     vdW  Elec       q    Type
REMARK                         _______ _______ _______ _____ _____    ______ ____
ROOT
ATOM      1  C   UNL     1       3.141   6.284  19.443  0.00  0.00    +0.000 C 
ATOM      2  C   UNL     1       1.899   5.749  20.174  0.00  0.00    +0.000 C 
ATOM      3  C   UNL     1       1.412   4.396  19.649  0.00  0.00    +0.000 C 
ATOM      4  C   UNL     1       2.548   3.366  19.739  0.00  0.00    +0.000 C 
ATOM      5  C   UNL     1       2.073   1.933  19.494  0.00  0.00    +0.000 C 
ATOM      6  C   UNL     1       3.781   3.786  18.906  0.00  0.00    +0.000 C 
ATOM      7  C   UNL     1       4.191   5.163  19.416  0.00  0.00    +0.000 C 
ATOM      8  O   UNL     1       5.346   5.372  19.795  0.00  0.00    +0.000 OA
ENDROOT
BRANCH   1  10
ATOM      9  C   UNL     1       4.190   7.299  17.360  0.00  0.00    +0.000 C 
ATOM     10  C   UNL     1       2.878   6.889  18.041  0.00  0.00    +0.000 C 
ATOM     11  C   UNL     1       1.976   8.127  18.081  0.00  0.00    +0.000 C 
ENDBRANCH   1  10
BRANCH   6  12
ATOM     12  C   UNL     1       3.635   3.756  17.380  0.00  0.00    +0.000 C 
ATOM     13  O   UNL     1       2.554   3.556  16.822  0.00  0.00    +0.000 OA
BRANCH  12  14
ATOM     14  C   UNL     1       4.842   4.027  16.524  0.00  0.00    +0.000 A 
ATOM     15  C   UNL     1       6.135   4.086  17.057  0.00  0.00    +0.000 A 
ATOM     16  C   UNL     1       7.216   4.460  16.251  0.00  0.00    +0.000 A 
ATOM     17  C   UNL     1       7.017   4.762  14.908  0.00  0.00    +0.000 A 
ATOM     18  C   UNL     1       5.738   4.678  14.359  0.00  0.00    +0.000 A 
ATOM     19  C   UNL     1       4.652   4.310  15.163  0.00  0.00    +0.000 A 
ENDBRANCH  12  14
ENDBRANCH   6  12
TORSDOF 3
ENDMDL
