MODEL 1
REMARK VINA RESULT:      -8.1      0.000      0.000
REMARK  Name = 
REMARK  4 active torsions:
REMARK  status: ('A' for Active; 'I' for Inactive)
REMARK    1  A    between atoms: C_1  and  C_2
REMARK    2  A    between atoms: C_2  and  C_4
REMARK    3  A    between atoms: C_8  and  N_9
REMARK    4  A    between atoms: C_10  and  C_12
REMARK                            x       y       z     vdW  Elec       q    Type
REMARK                         _______ _______ _______ _____ _____    ______ ____
ROOT
ATOM      1  N   UNL     1       2.675   6.831  19.034  0.00  0.00    +0.000 N 
ATOM      2  C   UNL     1       2.127   8.063  18.691  0.00  0.00    +0.000 C 
ATOM      3  O   UNL     1       2.171   8.573  17.577  0.00  0.00    +0.000 OA
ATOM      4  H   UNL     1       2.441   6.470  19.948  0.00  0.00    +0.000 HD
ENDROOT
BRANCH   2   5
ATOM      5  C   UNL     1       1.412   8.728  19.766  0.00  0.00    +0.000 A 
ATOM      6  C   UNL     1       1.152   8.355  21.072  0.00  0.00    +0.000 A 
ATOM      7  C   UNL     1       0.338   9.351  21.674  0.00  0.00    +0.000 A 
ATOM      8  C   UNL     1      -0.251   9.480  22.945  0.00  0.00    +0.000 A 
ATOM      9  C   UNL     1      -1.071  10.581  23.209  0.00  0.00    +0.000 A 
ATOM     10  C   UNL     1      -1.294  11.549  22.232  0.00  0.00    +0.000 A 
ATOM     11  C   UNL     1      -0.686  11.460  20.971  0.00  0.00    +0.000 A 
ATOM     12  C   UNL     1       0.125  10.344  20.723  0.00  0.00    +0.000 A 
ATOM     13  N   UNL     1       0.842   9.979  19.605  0.00  0.00    +0.000 N 
ATOM     14  H   UNL     1       0.914  10.523  18.752  0.00  0.00    +0.000 HD
ENDBRANCH   2   5
BRANCH   1  19
ATOM     15  C   UNL     1       5.501   5.526  16.981  0.00  0.00    +0.000 A 
ATOM     16  C   UNL     1       4.997   4.287  16.578  0.00  0.00    +0.000 A 
ATOM     17  C   UNL     1       3.716   3.902  16.958  0.00  0.00    +0.000 A 
ATOM     18  C   UNL     1       2.936   4.737  17.757  0.00  0.00    +0.000 A 
ATOM     19  C   UNL     1       3.423   5.969  18.197  0.00  0.00    +0.000 A 
ATOM     20  C   UNL     1       4.706   6.369  17.787  0.00  0.00    +0.000 A 
BRANCH  15  22
ATOM     21  C   UNL     1       7.597   6.982  17.428  0.00  0.00    +0.000 C 
ATOM     22  C   UNL     1       6.874   5.963  16.577  0.00  0.00    +0.000 C 
ATOM     23  O   UNL     1       7.397   5.485  15.572  0.00  0.00    +0.000 OA
ENDBRANCH  15  22
ENDBRANCH   1  19
TORSDOF 3
ENDMDL
MODEL 2
REMARK VINA RESULT:      -8.0      5.190      7.483
REMARK  Name = 
REMARK  4 active torsions:
REMARK  status: ('A' for Active; 'I' for Inactive)
REMARK    1  A    between atoms: C_1  and  C_2
REMARK    2  A    between atoms: C_2  and  C_4
REMARK    3  A    between atoms: C_8  and  N_9
REMARK    4  A    between atoms: C_10  and  C_12
REMARK                            x       y       z     vdW  Elec       q    Type
REMARK                         _______ _______ _______ _____ _____    ______ ____
ROOT
ATOM      1  N   UNL     1       7.020   7.611  17.190  0.00  0.00    +0.000 N 
ATOM      2  C   UNL     1       7.955   7.772  18.208  0.00  0.00    +0.000 C 
ATOM      3  O   UNL     1       8.388   6.873  18.921  0.00  0.00    +0.000 OA
ATOM      4  H   UNL     1       6.861   8.409  16.591  0.00  0.00    +0.000 HD
ENDROOT
BRANCH   2   5
ATOM      5  C   UNL     1       8.463   9.124  18.357  0.00  0.00    +0.000 A 
ATOM      6  C   UNL     1       8.320  10.256  17.573  0.00  0.00    +0.000 A 
ATOM      7  C   UNL     1       9.093  11.302  18.144  0.00  0.00    +0.000 A 
ATOM      8  C   UNL     1       9.350  12.632  17.765  0.00  0.00    +0.000 A 
ATOM      9  C   UNL     1      10.230  13.402  18.530  0.00  0.00    +0.000 A 
ATOM     10  C   UNL     1      10.838  12.867  19.664  0.00  0.00    +0.000 A 
ATOM     11  C   UNL     1      10.567  11.556  20.081  0.00  0.00    +0.000 A 
ATOM     12  C   UNL     1       9.689  10.797  19.296  0.00  0.00    +0.000 A 
ATOM     13  N   UNL     1       9.235   9.504  19.440  0.00  0.00    +0.000 N 
ATOM     14  H   UNL     1       9.467   8.885  20.209  0.00  0.00    +0.000 HD
ENDBRANCH   2   5
BRANCH   1  19
ATOM     15  C   UNL     1       4.391   4.972  17.027  0.00  0.00    +0.000 A 
ATOM     16  C   UNL     1       4.951   4.086  16.102  0.00  0.00    +0.000 A 
ATOM     17  C   UNL     1       6.205   4.346  15.562  0.00  0.00    +0.000 A 
ATOM     18  C   UNL     1       6.903   5.499  15.923  0.00  0.00    +0.000 A 
ATOM     19  C   UNL     1       6.358   6.416  16.823  0.00  0.00    +0.000 A 
ATOM     20  C   UNL     1       5.103   6.135  17.391  0.00  0.00    +0.000 A 
BRANCH  15  22
ATOM     21  C   UNL     1       2.436   3.331  17.472  0.00  0.00    +0.000 C 
ATOM     22  C   UNL     1       3.045   4.706  17.626  0.00  0.00    +0.000 C 
ATOM     23  O   UNL     1       2.462   5.598  18.239  0.00  0.00    +0.000 OA
ENDBRANCH  15  22
ENDBRANCH   1  19
TORSDOF 3
ENDMDL
MODEL 3
REMARK VINA RESULT:      -7.8      0.857      1.433
REMARK  Name = 
REMARK  4 active torsions:
REMARK  status: ('A' for Active; 'I' for Inactive)
REMARK    1  A    between atoms: C_1  and  C_2
REMARK    2  A    between atoms: C_2  and  C_4
REMARK    3  A    between atoms: C_8  and  N_9
REMARK    4  A    between atoms: C_10  and  C_12
REMARK                            x       y       z     vdW  Elec       q    Type
REMARK                         _______ _______ _______ _____ _____    ______ ____
ROOT
ATOM      1  N   UNL     1       2.580   6.771  18.945  0.00  0.00    +0.000 N 
ATOM      2  C   UNL     1       2.235   8.031  18.468  0.00  0.00    +0.000 C 
ATOM      3  O   UNL     1       2.531   8.478  17.365  0.00  0.00    +0.000 OA
ATOM      4  H   UNL     1       2.149   6.481  19.811  0.00  0.00    +0.000 HD
ENDROOT
BRANCH   2   5
ATOM      5  C   UNL     1       1.411   8.816  19.370  0.00  0.00    +0.000 A 
ATOM      6  C   UNL     1       0.779  10.037  19.217  0.00  0.00    +0.000 A 
ATOM      7  C   UNL     1       0.162  10.385  20.449  0.00  0.00    +0.000 A 
ATOM      8  C   UNL     1      -0.571  11.505  20.881  0.00  0.00    +0.000 A 
ATOM      9  C   UNL     1      -0.996  11.571  22.210  0.00  0.00    +0.000 A 
ATOM     10  C   UNL     1      -0.712  10.536  23.098  0.00  0.00    +0.000 A 
ATOM     11  C   UNL     1      -0.016   9.393  22.679  0.00  0.00    +0.000 A 
ATOM     12  C   UNL     1       0.410   9.349  21.344  0.00  0.00    +0.000 A 
ATOM     13  N   UNL     1       1.103   8.384  20.649  0.00  0.00    +0.000 N 
ATOM     14  H   UNL     1       1.398   7.490  21.024  0.00  0.00    +0.000 HD
ENDBRANCH   2   5
BRANCH   1  19
ATOM     15  C   UNL     1       5.598   5.006  17.649  0.00  0.00    +0.000 A 
ATOM     16  C   UNL     1       5.022   3.883  17.050  0.00  0.00    +0.000 A 
ATOM     17  C   UNL     1       3.640   3.730  17.047  0.00  0.00    +0.000 A 
ATOM     18  C   UNL     1       2.824   4.682  17.657  0.00  0.00    +0.000 A 
ATOM     19  C   UNL     1       3.372   5.799  18.288  0.00  0.00    +0.000 A 
ATOM     20  C   UNL     1       4.767   5.968  18.262  0.00  0.00    +0.000 A 
BRANCH  15  22
ATOM     21  C   UNL     1       7.699   6.114  18.686  0.00  0.00    +0.000 C 
ATOM     22  C   UNL     1       7.083   5.194  17.656  0.00  0.00    +0.000 C 
ATOM     23  O   UNL     1       7.779   4.596  16.838  0.00  0.00    +0.000 OA
ENDBRANCH  15  22
ENDBRANCH   1  19
TORSDOF 3
ENDMDL
MODEL 4
REMARK VINA RESULT:      -7.8      0.987      1.019
REMARK  Name = 
REMARK  4 active torsions:
REMARK  status: ('A' for Active; 'I' for Inactive)
REMARK    1  A    between atoms: C_1  and  C_2
REMARK    2  A    between atoms: C_2  and  C_4
REMARK    3  A    between atoms: C_8  and  N_9
REMARK    4  A    between atoms: C_10  and  C_12
REMARK                            x       y       z     vdW  Elec       q    Type
REMARK                         _______ _______ _______ _____ _____    ______ ____
ROOT
ATOM      1  N   UNL     1       2.370   6.445  19.278  0.00  0.00    +0.000 N 
ATOM      2  C   UNL     1       2.165   7.783  18.954  0.00  0.00    +0.000 C 
ATOM      3  O   UNL     1       2.491   8.315  17.899  0.00  0.00    +0.000 OA
ATOM      4  H   UNL     1       1.924   6.109  20.119  0.00  0.00    +0.000 HD
ENDROOT
BRANCH   2   5
ATOM      5  C   UNL     1       1.455   8.548  19.963  0.00  0.00    +0.000 A 
ATOM      6  C   UNL     1       1.108   8.255  21.271  0.00  0.00    +0.000 A 
ATOM      7  C   UNL     1       0.346   9.337  21.789  0.00  0.00    +0.000 A 
ATOM      8  C   UNL     1      -0.288   9.568  23.023  0.00  0.00    +0.000 A 
ATOM      9  C   UNL     1      -1.032  10.737  23.200  0.00  0.00    +0.000 A 
ATOM     10  C   UNL     1      -1.135  11.674  22.173  0.00  0.00    +0.000 A 
ATOM     11  C   UNL     1      -0.480  11.482  20.949  0.00  0.00    +0.000 A 
ATOM     12  C   UNL     1       0.254  10.298  20.788  0.00  0.00    +0.000 A 
ATOM     13  N   UNL     1       0.991   9.830  19.723  0.00  0.00    +0.000 N 
ATOM     14  H   UNL     1       1.142  10.327  18.852  0.00  0.00    +0.000 HD
ENDBRANCH   2   5
BRANCH   1  19
ATOM     15  C   UNL     1       5.125   4.620  17.551  0.00  0.00    +0.000 A 
ATOM     16  C   UNL     1       4.431   3.544  16.991  0.00  0.00    +0.000 A 
ATOM     17  C   UNL     1       3.054   3.443  17.158  0.00  0.00    +0.000 A 
ATOM     18  C   UNL     1       2.361   4.401  17.898  0.00  0.00    +0.000 A 
ATOM     19  C   UNL     1       3.031   5.471  18.493  0.00  0.00    +0.000 A 
ATOM     20  C   UNL     1       4.418   5.587  18.297  0.00  0.00    +0.000 A 
BRANCH  15  22
ATOM     21  C   UNL     1       7.145   5.244  16.053  0.00  0.00    +0.000 C 
ATOM     22  C   UNL     1       6.605   4.751  17.377  0.00  0.00    +0.000 C 
ATOM     23  O   UNL     1       7.358   4.468  18.307  0.00  0.00    +0.000 OA
ENDBRANCH  15  22
ENDBRANCH   1  19
TORSDOF 3
ENDMDL
MODEL 5
REMARK VINA RESULT:      -7.6      1.739      2.899
REMARK  Name = 
REMARK  4 active torsions:
REMARK  status: ('A' for Active; 'I' for Inactive)
REMARK    1  A    between atoms: C_1  and  C_2
REMARK    2  A    between atoms: C_2  and  C_4
REMARK    3  A    between atoms: C_8  and  N_9
REMARK    4  A    between atoms: C_10  and  C_12
REMARK                            x       y       z     vdW  Elec       q    Type
REMARK                         _______ _______ _______ _____ _____    ______ ____
ROOT
ATOM      1  N   UNL     1       4.396   7.031  17.878  0.00  0.00    +0.000 N 
ATOM      2  C   UNL     1       3.104   6.669  18.247  0.00  0.00    +0.000 C 
ATOM      3  O   UNL     1       2.684   5.519  18.320  0.00  0.00    +0.000 OA
ATOM      4  H   UNL     1       4.646   8.002  17.999  0.00  0.00    +0.000 HD
ENDROOT
BRANCH   2   5
ATOM      5  C   UNL     1       2.246   7.780  18.617  0.00  0.00    +0.000 A 
ATOM      6  C   UNL     1       1.703   8.814  17.875  0.00  0.00    +0.000 A 
ATOM      7  C   UNL     1       0.993   9.676  18.753  0.00  0.00    +0.000 A 
ATOM      8  C   UNL     1       0.288  10.879  18.566  0.00  0.00    +0.000 A 
ATOM      9  C   UNL     1      -0.258  11.530  19.675  0.00  0.00    +0.000 A 
ATOM     10  C   UNL     1      -0.121  10.990  20.953  0.00  0.00    +0.000 A 
ATOM     11  C   UNL     1       0.545   9.773  21.157  0.00  0.00    +0.000 A 
ATOM     12  C   UNL     1       1.093   9.140  20.033  0.00  0.00    +0.000 A 
ATOM     13  N   UNL     1       1.792   7.959  19.912  0.00  0.00    +0.000 N 
ATOM     14  H   UNL     1       1.997   7.320  20.671  0.00  0.00    +0.000 HD
ENDBRANCH   2   5
BRANCH   1  19
ATOM     15  C   UNL     1       6.649   5.075  15.642  0.00  0.00    +0.000 A 
ATOM     16  C   UNL     1       7.523   4.502  16.568  0.00  0.00    +0.000 A 
ATOM     17  C   UNL     1       7.347   4.736  17.927  0.00  0.00    +0.000 A 
ATOM     18  C   UNL     1       6.311   5.558  18.372  0.00  0.00    +0.000 A 
ATOM     19  C   UNL     1       5.439   6.166  17.469  0.00  0.00    +0.000 A 
ATOM     20  C   UNL     1       5.601   5.903  16.098  0.00  0.00    +0.000 A 
BRANCH  15  22
ATOM     21  C   UNL     1       5.932   3.808  13.499  0.00  0.00    +0.000 C 
ATOM     22  C   UNL     1       6.817   4.829  14.175  0.00  0.00    +0.000 C 
ATOM     23  O   UNL     1       7.659   5.462  13.541  0.00  0.00    +0.000 OA
ENDBRANCH  15  22
ENDBRANCH   1  19
TORSDOF 3
ENDMDL
MODEL 6
REMARK VINA RESULT:      -7.5      1.193      1.619
REMARK  Name = 
REMARK  4 active torsions:
REMARK  status: ('A' for Active; 'I' for Inactive)
REMARK    1  A    between atoms: C_1  and  C_2
REMARK    2  A    between atoms: C_2  and  C_4
REMARK    3  A    between atoms: C_8  and  N_9
REMARK    4  A    between atoms: C_10  and  C_12
REMARK                            x       y       z     vdW  Elec       q    Type
REMARK                         _______ _______ _______ _____ _____    ______ ____
ROOT
ATOM      1  N   UNL     1       2.517   7.316  18.762  0.00  0.00    +0.000 N 
ATOM      2  C   UNL     1       1.936   7.185  20.020  0.00  0.00    +0.000 C 
ATOM      3  O   UNL     1       2.065   6.218  20.763  0.00  0.00    +0.000 OA
ATOM      4  H   UNL     1       2.444   8.222  18.322  0.00  0.00    +0.000 HD
ENDROOT
BRANCH   2   5
ATOM      5  C   UNL     1       1.173   8.340  20.458  0.00  0.00    +0.000 A 
ATOM      6  C   UNL     1       0.916   9.560  19.857  0.00  0.00    +0.000 A 
ATOM      7  C   UNL     1       0.170  10.361  20.763  0.00  0.00    +0.000 A 
ATOM      8  C   UNL     1      -0.327  11.676  20.706  0.00  0.00    +0.000 A 
ATOM      9  C   UNL     1      -0.983  12.206  21.819  0.00  0.00    +0.000 A 
ATOM     10  C   UNL     1      -1.159  11.440  22.970  0.00  0.00    +0.000 A 
ATOM     11  C   UNL     1      -0.706  10.115  23.034  0.00  0.00    +0.000 A 
ATOM     12  C   UNL     1      -0.041   9.605  21.911  0.00  0.00    +0.000 A 
ATOM     13  N   UNL     1       0.511   8.365  21.673  0.00  0.00    +0.000 N 
ATOM     14  H   UNL     1       0.485   7.581  22.314  0.00  0.00    +0.000 HD
ENDBRANCH   2   5
BRANCH   1  19
ATOM     15  C   UNL     1       5.443   5.771  17.044  0.00  0.00    +0.000 A 
ATOM     16  C   UNL     1       4.959   4.487  16.780  0.00  0.00    +0.000 A 
ATOM     17  C   UNL     1       3.660   4.147  17.141  0.00  0.00    +0.000 A 
ATOM     18  C   UNL     1       2.840   5.075  17.783  0.00  0.00    +0.000 A 
ATOM     19  C   UNL     1       3.305   6.356  18.084  0.00  0.00    +0.000 A 
ATOM     20  C   UNL     1       4.608   6.707  17.691  0.00  0.00    +0.000 A 
BRANCH  15  22
ATOM     21  C   UNL     1       7.561   7.197  17.482  0.00  0.00    +0.000 C 
ATOM     22  C   UNL     1       6.836   6.159  16.657  0.00  0.00    +0.000 C 
ATOM     23  O   UNL     1       7.372   5.627  15.687  0.00  0.00    +0.000 OA
ENDBRANCH  15  22
ENDBRANCH   1  19
TORSDOF 3
ENDMDL
MODEL 7
REMARK VINA RESULT:      -7.4      1.108      1.179
REMARK  Name = 
REMARK  4 active torsions:
REMARK  status: ('A' for Active; 'I' for Inactive)
REMARK    1  A    between atoms: C_1  and  C_2
REMARK    2  A    between atoms: C_2  and  C_4
REMARK    3  A    between atoms: C_8  and  N_9
REMARK    4  A    between atoms: C_10  and  C_12
REMARK                            x       y       z     vdW  Elec       q    Type
REMARK                         _______ _______ _______ _____ _____    ______ ____
ROOT
ATOM      1  N   UNL     1       2.553   7.235  18.931  0.00  0.00    +0.000 N 
ATOM      2  C   UNL     1       1.966   7.027  20.176  0.00  0.00    +0.000 C 
ATOM      3  O   UNL     1       2.051   5.998  20.836  0.00  0.00    +0.000 OA
ATOM      4  H   UNL     1       2.520   8.177  18.567  0.00  0.00    +0.000 HD
ENDROOT
BRANCH   2   5
ATOM      5  C   UNL     1       1.253   8.175  20.709  0.00  0.00    +0.000 A 
ATOM      6  C   UNL     1       0.775   8.457  21.977  0.00  0.00    +0.000 A 
ATOM      7  C   UNL     1       0.082   9.697  21.932  0.00  0.00    +0.000 A 
ATOM      8  C   UNL     1      -0.625  10.443  22.892  0.00  0.00    +0.000 A 
ATOM      9  C   UNL     1      -1.264  11.623  22.504  0.00  0.00    +0.000 A 
ATOM     10  C   UNL     1      -1.192  12.067  21.185  0.00  0.00    +0.000 A 
ATOM     11  C   UNL     1      -0.461  11.359  20.220  0.00  0.00    +0.000 A 
ATOM     12  C   UNL     1       0.165  10.173  20.628  0.00  0.00    +0.000 A 
ATOM     13  N   UNL     1       0.937   9.272  19.928  0.00  0.00    +0.000 N 
ATOM     14  H   UNL     1       1.206   9.364  18.955  0.00  0.00    +0.000 HD
ENDBRANCH   2   5
BRANCH   1  19
ATOM     15  C   UNL     1       5.398   5.724  17.055  0.00  0.00    +0.000 A 
ATOM     16  C   UNL     1       4.870   4.476  16.716  0.00  0.00    +0.000 A 
ATOM     17  C   UNL     1       3.569   4.151  17.080  0.00  0.00    +0.000 A 
ATOM     18  C   UNL     1       2.790   5.057  17.799  0.00  0.00    +0.000 A 
ATOM     19  C   UNL     1       3.299   6.301  18.175  0.00  0.00    +0.000 A 
ATOM     20  C   UNL     1       4.605   6.639  17.779  0.00  0.00    +0.000 A 
BRANCH  15  22
ATOM     21  C   UNL     1       7.563   7.063  17.539  0.00  0.00    +0.000 C 
ATOM     22  C   UNL     1       6.795   6.097  16.666  0.00  0.00    +0.000 C 
ATOM     23  O   UNL     1       7.300   5.610  15.657  0.00  0.00    +0.000 OA
ENDBRANCH  15  22
ENDBRANCH   1  19
TORSDOF 3
ENDMDL
MODEL 8
REMARK VINA RESULT:      -7.4      1.644      1.969
REMARK  Name = 
REMARK  4 active torsions:
REMARK  status: ('A' for Active; 'I' for Inactive)
REMARK    1  A    between atoms: C_1  and  C_2
REMARK    2  A    between atoms: C_2  and  C_4
REMARK    3  A    between atoms: C_8  and  N_9
REMARK    4  A    between atoms: C_10  and  C_12
REMARK                            x       y       z     vdW  Elec       q    Type
REMARK                         _______ _______ _______ _____ _____    ______ ____
ROOT
ATOM      1  N   UNL     1       2.100   7.187  18.858  0.00  0.00    +0.000 N 
ATOM      2  C   UNL     1       2.036   8.416  18.209  0.00  0.00    +0.000 C 
ATOM      3  O   UNL     1       2.612   8.697  17.163  0.00  0.00    +0.000 OA
ATOM      4  H   UNL     1       1.464   7.049  19.630  0.00  0.00    +0.000 HD
ENDROOT
BRANCH   2   5
ATOM      5  C   UNL     1       1.159   9.388  18.837  0.00  0.00    +0.000 A 
ATOM      6  C   UNL     1       0.862   9.642  20.165  0.00  0.00    +0.000 A 
ATOM      7  C   UNL     1      -0.126  10.662  20.220  0.00  0.00    +0.000 A 
ATOM      8  C   UNL     1      -0.817  11.282  21.277  0.00  0.00    +0.000 A 
ATOM      9  C   UNL     1      -1.800  12.231  20.986  0.00  0.00    +0.000 A 
ATOM     10  C   UNL     1      -2.086  12.573  19.665  0.00  0.00    +0.000 A 
ATOM     11  C   UNL     1      -1.384  11.995  18.598  0.00  0.00    +0.000 A 
ATOM     12  C   UNL     1      -0.408  11.039  18.911  0.00  0.00    +0.000 A 
ATOM     13  N   UNL     1       0.432  10.307  18.100  0.00  0.00    +0.000 N 
ATOM     14  H   UNL     1       0.487  10.385  17.091  0.00  0.00    +0.000 HD
ENDBRANCH   2   5
BRANCH   1  19
ATOM     15  C   UNL     1       5.056   4.962  18.393  0.00  0.00    +0.000 A 
ATOM     16  C   UNL     1       4.464   3.842  17.802  0.00  0.00    +0.000 A 
ATOM     17  C   UNL     1       3.101   3.839  17.530  0.00  0.00    +0.000 A 
ATOM     18  C   UNL     1       2.313   4.942  17.861  0.00  0.00    +0.000 A 
ATOM     19  C   UNL     1       2.870   6.063  18.477  0.00  0.00    +0.000 A 
ATOM     20  C   UNL     1       4.254   6.076  18.723  0.00  0.00    +0.000 A 
BRANCH  15  22
ATOM     21  C   UNL     1       7.496   4.643  17.582  0.00  0.00    +0.000 C 
ATOM     22  C   UNL     1       6.523   4.989  18.687  0.00  0.00    +0.000 C 
ATOM     23  O   UNL     1       6.917   5.298  19.809  0.00  0.00    +0.000 OA
ENDBRANCH  15  22
ENDBRANCH   1  19
TORSDOF 3
ENDMDL
MODEL 9
REMARK VINA RESULT:      -7.3      2.878      8.692
REMARK  Name = 
REMARK  4 active torsions:
REMARK  status: ('A' for Active; 'I' for Inactive)
REMARK    1  A    between atoms: C_1  and  C_2
REMARK    2  A    between atoms: C_2  and  C_4
REMARK    3  A    between atoms: C_8  and  N_9
REMARK    4  A    between atoms: C_10  and  C_12
REMARK                            x       y       z     vdW  Elec       q    Type
REMARK                         _______ _______ _______ _____ _____    ______ ____
ROOT
ATOM      1  N   UNL     1       3.982   5.226  17.643  0.00  0.00    +0.000 N 
ATOM      2  C   UNL     1       5.290   4.752  17.615  0.00  0.00    +0.000 C 
ATOM      3  O   UNL     1       5.931   4.381  18.593  0.00  0.00    +0.000 OA
ATOM      4  H   UNL     1       3.530   5.360  16.750  0.00  0.00    +0.000 HD
ENDROOT
BRANCH   2   5
ATOM      5  C   UNL     1       5.872   4.659  16.288  0.00  0.00    +0.000 A 
ATOM      6  C   UNL     1       6.914   5.344  15.687  0.00  0.00    +0.000 A 
ATOM      7  C   UNL     1       7.022   4.910  14.339  0.00  0.00    +0.000 A 
ATOM      8  C   UNL     1       7.857   5.278  13.269  0.00  0.00    +0.000 A 
ATOM      9  C   UNL     1       7.662   4.690  12.017  0.00  0.00    +0.000 A 
ATOM     10  C   UNL     1       6.661   3.739  11.828  0.00  0.00    +0.000 A 
ATOM     11  C   UNL     1       5.842   3.329  12.890  0.00  0.00    +0.000 A 
ATOM     12  C   UNL     1       6.048   3.937  14.136  0.00  0.00    +0.000 A 
ATOM     13  N   UNL     1       5.416   3.754  15.346  0.00  0.00    +0.000 N 
ATOM     14  H   UNL     1       4.680   3.081  15.526  0.00  0.00    +0.000 HD
ENDBRANCH   2   5
BRANCH   1  19
ATOM     15  C   UNL     1       1.896   6.961  20.201  0.00  0.00    +0.000 A 
ATOM     16  C   UNL     1       1.512   5.891  21.012  0.00  0.00    +0.000 A 
ATOM     17  C   UNL     1       1.968   4.608  20.731  0.00  0.00    +0.000 A 
ATOM     18  C   UNL     1       2.794   4.378  19.631  0.00  0.00    +0.000 A 
ATOM     19  C   UNL     1       3.172   5.423  18.787  0.00  0.00    +0.000 A 
ATOM     20  C   UNL     1       2.734   6.723  19.091  0.00  0.00    +0.000 A 
BRANCH  15  22
ATOM     21  C   UNL     1       1.129   8.740  21.921  0.00  0.00    +0.000 C 
ATOM     22  C   UNL     1       1.422   8.351  20.490  0.00  0.00    +0.000 C 
ATOM     23  O   UNL     1       1.288   9.156  19.570  0.00  0.00    +0.000 OA
ENDBRANCH  15  22
ENDBRANCH   1  19
TORSDOF 3
ENDMDL
