MODEL 1
REMARK VINA RESULT:      -8.0      0.000      0.000
REMARK  Name = 
REMARK  6 active torsions:
REMARK  status: ('A' for Active; 'I' for Inactive)
REMARK    1  A    between atoms: C_1  and  N_2
REMARK    2  A    between atoms: N_2  and  C_3
REMARK    3  A    between atoms: N_2  and  C_28
REMARK    4  A    between atoms: C_13  and  N_14
REMARK    5  A    between atoms: C_17  and  C_18
REMARK    6  A    between atoms: C_21  and  C_22
REMARK                            x       y       z     vdW  Elec       q    Type
REMARK                         _______ _______ _______ _____ _____    ______ ____
ROOT
ATOM      1  C   UNL     1      -2.810  12.250  19.809  0.00  0.00    +0.000 A 
ATOM      2  C   UNL     1      -3.727  12.232  18.723  0.00  0.00    +0.000 A 
ATOM      3  C   UNL     1      -3.482  11.569  17.520  0.00  0.00    +0.000 A 
ATOM      4  N   UNL     1      -4.427  11.658  16.480  0.00  0.00    +0.000 NA
ATOM      5  C   UNL     1      -4.152  11.032  15.376  0.00  0.00    +0.000 A 
ATOM      6  C   UNL     1      -2.899  10.215  15.151  0.00  0.00    +0.000 A 
ATOM      7  O   UNL     1      -2.726   9.650  14.082  0.00  0.00    +0.000 OA
ATOM      8  N   UNL     1      -2.024  10.174  16.204  0.00  0.00    +0.000 N 
ATOM      9  C   UNL     1      -2.297  10.854  17.396  0.00  0.00    +0.000 A 
ATOM     10  C   UNL     1      -1.382  10.813  18.439  0.00  0.00    +0.000 A 
ATOM     11  C   UNL     1      -1.606  11.502  19.653  0.00  0.00    +0.000 A 
ATOM     12  H   UNL     1      -1.178   9.633  16.096  0.00  0.00    +0.000 HD
ENDROOT
BRANCH  11  13
ATOM     13  N   UNL     1      -0.628  11.432  20.686  0.00  0.00    +0.000 N 
ATOM     14  C   UNL     1       0.164  10.354  20.921  0.00  0.00    +0.000 A 
ATOM     15  N   UNL     1       0.670   9.576  19.995  0.00  0.00    +0.000 NA
ATOM     16  C   UNL     1       1.390   8.530  20.523  0.00  0.00    +0.000 A 
ATOM     17  C   UNL     1       1.428   8.500  21.900  0.00  0.00    +0.000 A 
ATOM     18  S   UNL     1       0.591   9.873  22.525  0.00  0.00    +0.000 S 
ATOM     19  H   UNL     1      -0.836  12.050  21.453  0.00  0.00    +0.000 HD
BRANCH  16  20
ATOM     20  C   UNL     1       2.032   7.600  19.610  0.00  0.00    +0.000 A 
ATOM     21  C   UNL     1       2.190   6.266  20.028  0.00  0.00    +0.000 A 
ATOM     22  C   UNL     1       2.865   5.337  19.234  0.00  0.00    +0.000 A 
ATOM     23  C   UNL     1       3.395   5.738  18.008  0.00  0.00    +0.000 A 
ATOM     24  C   UNL     1       3.237   7.060  17.580  0.00  0.00    +0.000 A 
ATOM     25  C   UNL     1       2.555   7.990  18.374  0.00  0.00    +0.000 A 
BRANCH  23  26
ATOM     26  C   UNL     1       4.110   4.799  17.200  0.00  0.00    +0.000 C 
ATOM     27  N   UNL     1       4.697   4.037  16.544  0.00  0.00    +0.000 NA
ENDBRANCH  23  26
ENDBRANCH  16  20
ENDBRANCH  11  13
BRANCH   1  29
ATOM     28  C   UNL     1      -2.788  14.458  20.834  0.00  0.00    +0.000 C 
ATOM     29  N   UNL     1      -3.129  13.034  20.931  0.00  0.00    +0.000 N 
BRANCH  29  30
ATOM     30  C   UNL     1      -3.828  12.504  22.126  0.00  0.00    +0.000 C 
ATOM     31  C   UNL     1      -2.896  12.399  23.345  0.00  0.00    +0.000 C 
ATOM     32  C   UNL     1      -2.690  13.714  24.094  0.00  0.00    +0.000 C 
ATOM     33  C   UNL     1      -4.000  14.412  24.432  0.00  0.00    +0.000 C 
ATOM     34  C   UNL     1      -4.976  14.521  23.263  0.00  0.00    +0.000 C 
ATOM     35  C   UNL     1      -5.132  13.228  22.476  0.00  0.00    +0.000 C 
ENDBRANCH  29  30
ENDBRANCH   1  29
TORSDOF 5
ENDMDL
MODEL 2
REMARK VINA RESULT:      -7.8      0.594      1.090
REMARK  Name = 
REMARK  6 active torsions:
REMARK  status: ('A' for Active; 'I' for Inactive)
REMARK    1  A    between atoms: C_1  and  N_2
REMARK    2  A    between atoms: N_2  and  C_3
REMARK    3  A    between atoms: N_2  and  C_28
REMARK    4  A    between atoms: C_13  and  N_14
REMARK    5  A    between atoms: C_17  and  C_18
REMARK    6  A    between atoms: C_21  and  C_22
REMARK                            x       y       z     vdW  Elec       q    Type
REMARK                         _______ _______ _______ _____ _____    ______ ____
ROOT
ATOM      1  C   UNL     1      -3.084  12.287  19.785  0.00  0.00    +0.000 A 
ATOM      2  C   UNL     1      -3.952  12.199  18.663  0.00  0.00    +0.000 A 
ATOM      3  C   UNL     1      -3.612  11.551  17.475  0.00  0.00    +0.000 A 
ATOM      4  N   UNL     1      -4.518  11.567  16.397  0.00  0.00    +0.000 NA
ATOM      5  C   UNL     1      -4.154  10.959  15.309  0.00  0.00    +0.000 A 
ATOM      6  C   UNL     1      -2.837  10.233  15.141  0.00  0.00    +0.000 A 
ATOM      7  O   UNL     1      -2.581   9.678  14.084  0.00  0.00    +0.000 OA
ATOM      8  N   UNL     1      -2.005  10.259  16.228  0.00  0.00    +0.000 N 
ATOM      9  C   UNL     1      -2.374  10.922  17.404  0.00  0.00    +0.000 A 
ATOM     10  C   UNL     1      -1.503  10.951  18.483  0.00  0.00    +0.000 A 
ATOM     11  C   UNL     1      -1.824  11.626  19.683  0.00  0.00    +0.000 A 
ATOM     12  H   UNL     1      -1.119   9.780  16.159  0.00  0.00    +0.000 HD
ENDROOT
BRANCH  11  13
ATOM     13  N   UNL     1      -0.887  11.631  20.755  0.00  0.00    +0.000 N 
ATOM     14  C   UNL     1      -0.131  10.562  21.116  0.00  0.00    +0.000 A 
ATOM     15  N   UNL     1       0.391   9.694  20.285  0.00  0.00    +0.000 NA
ATOM     16  C   UNL     1       1.065   8.685  20.933  0.00  0.00    +0.000 A 
ATOM     17  C   UNL     1       1.052   8.780  22.307  0.00  0.00    +0.000 A 
ATOM     18  S   UNL     1       0.226  10.221  22.773  0.00  0.00    +0.000 S 
ATOM     19  H   UNL     1      -1.108  12.321  21.454  0.00  0.00    +0.000 HD
BRANCH  16  20
ATOM     20  C   UNL     1       1.717   7.663  20.133  0.00  0.00    +0.000 A 
ATOM     21  C   UNL     1       2.200   8.027  18.863  0.00  0.00    +0.000 A 
ATOM     22  C   UNL     1       2.768   7.079  18.009  0.00  0.00    +0.000 A 
ATOM     23  C   UNL     1       2.855   5.749  18.420  0.00  0.00    +0.000 A 
ATOM     24  C   UNL     1       2.384   5.378  19.684  0.00  0.00    +0.000 A 
ATOM     25  C   UNL     1       1.820   6.331  20.542  0.00  0.00    +0.000 A 
BRANCH  23  26
ATOM     26  C   UNL     1       3.412   4.767  17.542  0.00  0.00    +0.000 C 
ATOM     27  N   UNL     1       3.870   3.969  16.827  0.00  0.00    +0.000 NA
ENDBRANCH  23  26
ENDBRANCH  16  20
ENDBRANCH  11  13
BRANCH   1  29
ATOM     28  C   UNL     1      -3.019  14.435  20.929  0.00  0.00    +0.000 C 
ATOM     29  N   UNL     1      -3.504  13.050  20.888  0.00  0.00    +0.000 N 
BRANCH  29  30
ATOM     30  C   UNL     1      -4.433  12.544  21.926  0.00  0.00    +0.000 C 
ATOM     31  C   UNL     1      -3.891  12.768  23.348  0.00  0.00    +0.000 C 
ATOM     32  C   UNL     1      -4.113  14.180  23.890  0.00  0.00    +0.000 C 
ATOM     33  C   UNL     1      -5.555  14.647  23.744  0.00  0.00    +0.000 C 
ATOM     34  C   UNL     1      -6.153  14.423  22.357  0.00  0.00    +0.000 C 
ATOM     35  C   UNL     1      -5.875  13.039  21.789  0.00  0.00    +0.000 C 
ENDBRANCH  29  30
ENDBRANCH   1  29
TORSDOF 5
ENDMDL
MODEL 3
REMARK VINA RESULT:      -7.7      0.616      1.101
REMARK  Name = 
REMARK  6 active torsions:
REMARK  status: ('A' for Active; 'I' for Inactive)
REMARK    1  A    between atoms: C_1  and  N_2
REMARK    2  A    between atoms: N_2  and  C_3
REMARK    3  A    between atoms: N_2  and  C_28
REMARK    4  A    between atoms: C_13  and  N_14
REMARK    5  A    between atoms: C_17  and  C_18
REMARK    6  A    between atoms: C_21  and  C_22
REMARK                            x       y       z     vdW  Elec       q    Type
REMARK                         _______ _______ _______ _____ _____    ______ ____
ROOT
ATOM      1  C   UNL     1      -3.171  12.085  19.925  0.00  0.00    +0.000 A 
ATOM      2  C   UNL     1      -4.053  12.071  18.811  0.00  0.00    +0.000 A 
ATOM      3  C   UNL     1      -3.711  11.544  17.566  0.00  0.00    +0.000 A 
ATOM      4  N   UNL     1      -4.633  11.629  16.504  0.00  0.00    +0.000 NA
ATOM      5  C   UNL     1      -4.267  11.132  15.362  0.00  0.00    +0.000 A 
ATOM      6  C   UNL     1      -2.933  10.465  15.112  0.00  0.00    +0.000 A 
ATOM      7  O   UNL     1      -2.676  10.015  14.007  0.00  0.00    +0.000 OA
ATOM      8  N   UNL     1      -2.086  10.418  16.188  0.00  0.00    +0.000 N 
ATOM      9  C   UNL     1      -2.457  10.962  17.422  0.00  0.00    +0.000 A 
ATOM     10  C   UNL     1      -1.571  10.920  18.490  0.00  0.00    +0.000 A 
ATOM     11  C   UNL     1      -1.894  11.475  19.749  0.00  0.00    +0.000 A 
ATOM     12  H   UNL     1      -1.187   9.975  16.065  0.00  0.00    +0.000 HD
ENDROOT
BRANCH  11  13
ATOM     13  N   UNL     1      -0.941  11.413  20.806  0.00  0.00    +0.000 N 
ATOM     14  C   UNL     1      -0.088  10.375  21.008  0.00  0.00    +0.000 A 
ATOM     15  N   UNL     1       0.492   9.682  20.059  0.00  0.00    +0.000 NA
ATOM     16  C   UNL     1       1.264   8.657  20.553  0.00  0.00    +0.000 A 
ATOM     17  C   UNL     1       1.268   8.556  21.927  0.00  0.00    +0.000 A 
ATOM     18  S   UNL     1       0.328   9.837  22.597  0.00  0.00    +0.000 S 
ATOM     19  H   UNL     1      -1.209  11.974  21.597  0.00  0.00    +0.000 HD
BRANCH  16  20
ATOM     20  C   UNL     1       1.989   7.819  19.612  0.00  0.00    +0.000 A 
ATOM     21  C   UNL     1       2.300   6.504  20.002  0.00  0.00    +0.000 A 
ATOM     22  C   UNL     1       3.059   5.669  19.180  0.00  0.00    +0.000 A 
ATOM     23  C   UNL     1       3.521   6.148  17.955  0.00  0.00    +0.000 A 
ATOM     24  C   UNL     1       3.212   7.452  17.554  0.00  0.00    +0.000 A 
ATOM     25  C   UNL     1       2.445   8.287  18.377  0.00  0.00    +0.000 A 
BRANCH  23  26
ATOM     26  C   UNL     1       4.322   5.308  17.118  0.00  0.00    +0.000 C 
ATOM     27  N   UNL     1       4.974   4.621  16.440  0.00  0.00    +0.000 NA
ENDBRANCH  23  26
ENDBRANCH  16  20
ENDBRANCH  11  13
BRANCH   1  29
ATOM     28  C   UNL     1      -5.028  12.628  21.402  0.00  0.00    +0.000 C 
ATOM     29  N   UNL     1      -3.596  12.733  21.098  0.00  0.00    +0.000 N 
BRANCH  29  30
ATOM     30  C   UNL     1      -2.675  13.426  22.029  0.00  0.00    +0.000 C 
ATOM     31  C   UNL     1      -2.741  14.955  21.879  0.00  0.00    +0.000 C 
ATOM     32  C   UNL     1      -3.913  15.609  22.611  0.00  0.00    +0.000 C 
ATOM     33  C   UNL     1      -4.019  15.169  24.065  0.00  0.00    +0.000 C 
ATOM     34  C   UNL     1      -3.932  13.660  24.275  0.00  0.00    +0.000 C 
ATOM     35  C   UNL     1      -2.805  12.998  23.494  0.00  0.00    +0.000 C 
ENDBRANCH  29  30
ENDBRANCH   1  29
TORSDOF 5
ENDMDL
MODEL 4
REMARK VINA RESULT:      -7.7      0.683      1.104
REMARK  Name = 
REMARK  6 active torsions:
REMARK  status: ('A' for Active; 'I' for Inactive)
REMARK    1  A    between atoms: C_1  and  N_2
REMARK    2  A    between atoms: N_2  and  C_3
REMARK    3  A    between atoms: N_2  and  C_28
REMARK    4  A    between atoms: C_13  and  N_14
REMARK    5  A    between atoms: C_17  and  C_18
REMARK    6  A    between atoms: C_21  and  C_22
REMARK                            x       y       z     vdW  Elec       q    Type
REMARK                         _______ _______ _______ _____ _____    ______ ____
ROOT
ATOM      1  C   UNL     1      -3.033  12.246  19.717  0.00  0.00    +0.000 A 
ATOM      2  C   UNL     1      -3.892  12.245  18.586  0.00  0.00    +0.000 A 
ATOM      3  C   UNL     1      -3.593  11.587  17.392  0.00  0.00    +0.000 A 
ATOM      4  N   UNL     1      -4.482  11.693  16.305  0.00  0.00    +0.000 NA
ATOM      5  C   UNL     1      -4.157  11.071  15.212  0.00  0.00    +0.000 A 
ATOM      6  C   UNL     1      -2.903  10.240  15.048  0.00  0.00    +0.000 A 
ATOM      7  O   UNL     1      -2.682   9.680  13.986  0.00  0.00    +0.000 OA
ATOM      8  N   UNL     1      -2.085  10.183  16.144  0.00  0.00    +0.000 N 
ATOM      9  C   UNL     1      -2.411  10.859  17.325  0.00  0.00    +0.000 A 
ATOM     10  C   UNL     1      -1.553  10.800  18.414  0.00  0.00    +0.000 A 
ATOM     11  C   UNL     1      -1.831  11.485  19.619  0.00  0.00    +0.000 A 
ATOM     12  H   UNL     1      -1.240   9.633  16.077  0.00  0.00    +0.000 HD
ENDROOT
BRANCH  11  13
ATOM     13  N   UNL     1      -0.908  11.397  20.701  0.00  0.00    +0.000 N 
ATOM     14  C   UNL     1      -0.072  10.348  20.912  0.00  0.00    +0.000 A 
ATOM     15  N   UNL     1       0.527   9.662  19.970  0.00  0.00    +0.000 NA
ATOM     16  C   UNL     1       1.274   8.622  20.471  0.00  0.00    +0.000 A 
ATOM     17  C   UNL     1       1.238   8.502  21.843  0.00  0.00    +0.000 A 
ATOM     18  S   UNL     1       0.293   9.784  22.505  0.00  0.00    +0.000 S 
ATOM     19  H   UNL     1      -1.192  11.951  21.492  0.00  0.00    +0.000 HD
BRANCH  16  20
ATOM     20  C   UNL     1       2.016   7.789  19.539  0.00  0.00    +0.000 A 
ATOM     21  C   UNL     1       2.357   6.486  19.944  0.00  0.00    +0.000 A 
ATOM     22  C   UNL     1       3.134   5.659  19.131  0.00  0.00    +0.000 A 
ATOM     23  C   UNL     1       3.584   6.133  17.899  0.00  0.00    +0.000 A 
ATOM     24  C   UNL     1       3.244   7.425  17.483  0.00  0.00    +0.000 A 
ATOM     25  C   UNL     1       2.459   8.252  18.297  0.00  0.00    +0.000 A 
BRANCH  23  26
ATOM     26  C   UNL     1       4.401   5.302  17.071  0.00  0.00    +0.000 C 
ATOM     27  N   UNL     1       5.071   4.626  16.399  0.00  0.00    +0.000 NA
ENDBRANCH  23  26
ENDBRANCH  16  20
ENDBRANCH  11  13
BRANCH   1  29
ATOM     28  C   UNL     1      -2.778  14.354  20.908  0.00  0.00    +0.000 C 
ATOM     29  N   UNL     1      -3.400  13.027  20.827  0.00  0.00    +0.000 N 
BRANCH  29  30
ATOM     30  C   UNL     1      -4.401  12.599  21.832  0.00  0.00    +0.000 C 
ATOM     31  C   UNL     1      -4.471  13.562  23.029  0.00  0.00    +0.000 C 
ATOM     32  C   UNL     1      -5.310  14.815  22.780  0.00  0.00    +0.000 C 
ATOM     33  C   UNL     1      -6.689  14.497  22.218  0.00  0.00    +0.000 C 
ATOM     34  C   UNL     1      -6.682  13.523  21.043  0.00  0.00    +0.000 C 
ATOM     35  C   UNL     1      -5.793  12.307  21.263  0.00  0.00    +0.000 C 
ENDBRANCH  29  30
ENDBRANCH   1  29
TORSDOF 5
ENDMDL
MODEL 5
REMARK VINA RESULT:      -7.7      3.473      4.423
REMARK  Name = 
REMARK  6 active torsions:
REMARK  status: ('A' for Active; 'I' for Inactive)
REMARK    1  A    between atoms: C_1  and  N_2
REMARK    2  A    between atoms: N_2  and  C_3
REMARK    3  A    between atoms: N_2  and  C_28
REMARK    4  A    between atoms: C_13  and  N_14
REMARK    5  A    between atoms: C_17  and  C_18
REMARK    6  A    between atoms: C_21  and  C_22
REMARK                            x       y       z     vdW  Elec       q    Type
REMARK                         _______ _______ _______ _____ _____    ______ ____
ROOT
ATOM      1  C   UNL     1      -0.655  13.977  20.170  0.00  0.00    +0.000 A 
ATOM      2  C   UNL     1      -0.367  14.968  19.193  0.00  0.00    +0.000 A 
ATOM      3  C   UNL     1       0.890  15.553  19.037  0.00  0.00    +0.000 A 
ATOM      4  N   UNL     1       1.064  16.571  18.080  0.00  0.00    +0.000 NA
ATOM      5  C   UNL     1       2.250  17.091  17.977  0.00  0.00    +0.000 A 
ATOM      6  C   UNL     1       3.441  16.663  18.806  0.00  0.00    +0.000 A 
ATOM      7  O   UNL     1       4.524  17.200  18.635  0.00  0.00    +0.000 OA
ATOM      8  N   UNL     1       3.199  15.670  19.718  0.00  0.00    +0.000 N 
ATOM      9  C   UNL     1       1.925  15.108  19.853  0.00  0.00    +0.000 A 
ATOM     10  C   UNL     1       1.704  14.118  20.800  0.00  0.00    +0.000 A 
ATOM     11  C   UNL     1       0.428  13.537  20.987  0.00  0.00    +0.000 A 
ATOM     12  H   UNL     1       3.970  15.351  20.287  0.00  0.00    +0.000 HD
ENDROOT
BRANCH  11  13
ATOM     13  N   UNL     1       0.257  12.532  21.981  0.00  0.00    +0.000 N 
ATOM     14  C   UNL     1       0.244  11.198  21.727  0.00  0.00    +0.000 A 
ATOM     15  N   UNL     1       0.991  10.594  20.836  0.00  0.00    +0.000 NA
ATOM     16  C   UNL     1       0.730   9.245  20.758  0.00  0.00    +0.000 A 
ATOM     17  C   UNL     1      -0.257   8.804  21.612  0.00  0.00    +0.000 A 
ATOM     18  S   UNL     1      -0.807  10.122  22.580  0.00  0.00    +0.000 S 
ATOM     19  H   UNL     1      -0.240  12.872  22.788  0.00  0.00    +0.000 HD
BRANCH  16  20
ATOM     20  C   UNL     1       1.505   8.443  19.827  0.00  0.00    +0.000 A 
ATOM     21  C   UNL     1       1.948   7.178  20.256  0.00  0.00    +0.000 A 
ATOM     22  C   UNL     1       2.761   6.386  19.442  0.00  0.00    +0.000 A 
ATOM     23  C   UNL     1       3.144   6.858  18.187  0.00  0.00    +0.000 A 
ATOM     24  C   UNL     1       2.703   8.110  17.749  0.00  0.00    +0.000 A 
ATOM     25  C   UNL     1       1.883   8.902  18.563  0.00  0.00    +0.000 A 
BRANCH  23  26
ATOM     26  C   UNL     1       3.998   6.064  17.358  0.00  0.00    +0.000 C 
ATOM     27  N   UNL     1       4.689   5.414  16.683  0.00  0.00    +0.000 NA
ENDBRANCH  23  26
ENDBRANCH  16  20
ENDBRANCH  11  13
BRANCH   1  29
ATOM     28  C   UNL     1      -2.292  12.250  19.655  0.00  0.00    +0.000 C 
ATOM     29  N   UNL     1      -1.984  13.536  20.293  0.00  0.00    +0.000 N 
BRANCH  29  30
ATOM     30  C   UNL     1      -3.017  14.261  21.069  0.00  0.00    +0.000 C 
ATOM     31  C   UNL     1      -4.098  13.316  21.620  0.00  0.00    +0.000 C 
ATOM     32  C   UNL     1      -3.701  12.584  22.902  0.00  0.00    +0.000 C 
ATOM     33  C   UNL     1      -3.159  13.523  23.971  0.00  0.00    +0.000 C 
ATOM     34  C   UNL     1      -2.100  14.502  23.473  0.00  0.00    +0.000 C 
ATOM     35  C   UNL     1      -2.466  15.182  22.161  0.00  0.00    +0.000 C 
ENDBRANCH  29  30
ENDBRANCH   1  29
TORSDOF 5
ENDMDL
MODEL 6
REMARK VINA RESULT:      -7.6      9.186     12.080
REMARK  Name = 
REMARK  6 active torsions:
REMARK  status: ('A' for Active; 'I' for Inactive)
REMARK    1  A    between atoms: C_1  and  N_2
REMARK    2  A    between atoms: N_2  and  C_3
REMARK    3  A    between atoms: N_2  and  C_28
REMARK    4  A    between atoms: C_13  and  N_14
REMARK    5  A    between atoms: C_17  and  C_18
REMARK    6  A    between atoms: C_21  and  C_22
REMARK                            x       y       z     vdW  Elec       q    Type
REMARK                         _______ _______ _______ _____ _____    ______ ____
ROOT
ATOM      1  C   UNL     1       8.832  14.049  20.508  0.00  0.00    +0.000 A 
ATOM      2  C   UNL     1       7.973  13.995  19.377  0.00  0.00    +0.000 A 
ATOM      3  C   UNL     1       6.893  14.858  19.190  0.00  0.00    +0.000 A 
ATOM      4  N   UNL     1       6.062  14.689  18.065  0.00  0.00    +0.000 NA
ATOM      5  C   UNL     1       5.064  15.510  17.937  0.00  0.00    +0.000 A 
ATOM      6  C   UNL     1       4.755  16.630  18.906  0.00  0.00    +0.000 A 
ATOM      7  O   UNL     1       3.800  17.363  18.702  0.00  0.00    +0.000 OA
ATOM      8  N   UNL     1       5.602  16.735  19.977  0.00  0.00    +0.000 N 
ATOM      9  C   UNL     1       6.674  15.850  20.139  0.00  0.00    +0.000 A 
ATOM     10  C   UNL     1       7.505  15.966  21.245  0.00  0.00    +0.000 A 
ATOM     11  C   UNL     1       8.586  15.081  21.461  0.00  0.00    +0.000 A 
ATOM     12  H   UNL     1       5.434  17.474  20.644  0.00  0.00    +0.000 HD
ENDROOT
BRANCH  11  13
ATOM     13  N   UNL     1       9.399  15.241  22.619  0.00  0.00    +0.000 N 
ATOM     14  C   UNL     1       8.994  14.959  23.884  0.00  0.00    +0.000 A 
ATOM     15  N   UNL     1       8.214  13.961  24.220  0.00  0.00    +0.000 NA
ATOM     16  C   UNL     1       7.927  13.947  25.565  0.00  0.00    +0.000 A 
ATOM     17  C   UNL     1       8.500  14.974  26.282  0.00  0.00    +0.000 A 
ATOM     18  S   UNL     1       9.479  15.928  25.231  0.00  0.00    +0.000 S 
ATOM     19  H   UNL     1      10.119  15.933  22.489  0.00  0.00    +0.000 HD
BRANCH  16  20
ATOM     20  C   UNL     1       7.089  12.878  26.083  0.00  0.00    +0.000 A 
ATOM     21  C   UNL     1       7.220  12.537  27.442  0.00  0.00    +0.000 A 
ATOM     22  C   UNL     1       6.503  11.471  27.988  0.00  0.00    +0.000 A 
ATOM     23  C   UNL     1       5.648  10.728  27.175  0.00  0.00    +0.000 A 
ATOM     24  C   UNL     1       5.506  11.064  25.824  0.00  0.00    +0.000 A 
ATOM     25  C   UNL     1       6.220  12.138  25.278  0.00  0.00    +0.000 A 
BRANCH  23  26
ATOM     26  C   UNL     1       4.930   9.618  27.721  0.00  0.00    +0.000 C 
ATOM     27  N   UNL     1       4.342   8.718  28.167  0.00  0.00    +0.000 NA
ENDBRANCH  23  26
ENDBRANCH  16  20
ENDBRANCH  11  13
BRANCH   1  29
ATOM     28  C   UNL     1       9.367  11.747  21.091  0.00  0.00    +0.000 C 
ATOM     29  N   UNL     1       9.826  13.063  20.631  0.00  0.00    +0.000 N 
BRANCH  29  30
ATOM     30  C   UNL     1      11.244  13.282  20.263  0.00  0.00    +0.000 C 
ATOM     31  C   UNL     1      11.920  11.993  19.763  0.00  0.00    +0.000 C 
ATOM     32  C   UNL     1      11.630  11.657  18.301  0.00  0.00    +0.000 C 
ATOM     33  C   UNL     1      11.876  12.834  17.366  0.00  0.00    +0.000 C 
ATOM     34  C   UNL     1      11.249  14.147  17.828  0.00  0.00    +0.000 C 
ATOM     35  C   UNL     1      11.482  14.450  19.301  0.00  0.00    +0.000 C 
ENDBRANCH  29  30
ENDBRANCH   1  29
TORSDOF 5
ENDMDL
MODEL 7
REMARK VINA RESULT:      -7.6      0.917      1.655
REMARK  Name = 
REMARK  6 active torsions:
REMARK  status: ('A' for Active; 'I' for Inactive)
REMARK    1  A    between atoms: C_1  and  N_2
REMARK    2  A    between atoms: N_2  and  C_3
REMARK    3  A    between atoms: N_2  and  C_28
REMARK    4  A    between atoms: C_13  and  N_14
REMARK    5  A    between atoms: C_17  and  C_18
REMARK    6  A    between atoms: C_21  and  C_22
REMARK                            x       y       z     vdW  Elec       q    Type
REMARK                         _______ _______ _______ _____ _____    ______ ____
ROOT
ATOM      1  C   UNL     1      -2.707  12.271  20.026  0.00  0.00    +0.000 A 
ATOM      2  C   UNL     1      -3.644  12.288  18.957  0.00  0.00    +0.000 A 
ATOM      3  C   UNL     1      -3.441  11.627  17.745  0.00  0.00    +0.000 A 
ATOM      4  N   UNL     1      -4.401  11.752  16.723  0.00  0.00    +0.000 NA
ATOM      5  C   UNL     1      -4.166  11.125  15.610  0.00  0.00    +0.000 A 
ATOM      6  C   UNL     1      -2.943  10.271  15.358  0.00  0.00    +0.000 A 
ATOM      7  O   UNL     1      -2.807   9.708  14.283  0.00  0.00    +0.000 OA
ATOM      8  N   UNL     1      -2.051  10.195  16.394  0.00  0.00    +0.000 N 
ATOM      9  C   UNL     1      -2.281  10.876  17.595  0.00  0.00    +0.000 A 
ATOM     10  C   UNL     1      -1.350  10.799  18.622  0.00  0.00    +0.000 A 
ATOM     11  C   UNL     1      -1.530  11.487  19.844  0.00  0.00    +0.000 A 
ATOM     12  H   UNL     1      -1.224   9.630  16.269  0.00  0.00    +0.000 HD
ENDROOT
BRANCH  11  13
ATOM     13  N   UNL     1      -0.536  11.380  20.859  0.00  0.00    +0.000 N 
ATOM     14  C   UNL     1       0.242  10.285  21.056  0.00  0.00    +0.000 A 
ATOM     15  N   UNL     1       0.721   9.520  20.106  0.00  0.00    +0.000 NA
ATOM     16  C   UNL     1       1.433   8.452  20.600  0.00  0.00    +0.000 A 
ATOM     17  C   UNL     1       1.493   8.391  21.974  0.00  0.00    +0.000 A 
ATOM     18  S   UNL     1       0.688   9.763  22.643  0.00  0.00    +0.000 S 
ATOM     19  H   UNL     1      -0.722  11.984  21.642  0.00  0.00    +0.000 HD
BRANCH  16  20
ATOM     20  C   UNL     1       2.045   7.532  19.655  0.00  0.00    +0.000 A 
ATOM     21  C   UNL     1       2.173   6.184  20.035  0.00  0.00    +0.000 A 
ATOM     22  C   UNL     1       2.820   5.261  19.210  0.00  0.00    +0.000 A 
ATOM     23  C   UNL     1       3.352   5.683  17.992  0.00  0.00    +0.000 A 
ATOM     24  C   UNL     1       3.223   7.020  17.602  0.00  0.00    +0.000 A 
ATOM     25  C   UNL     1       2.569   7.944  18.427  0.00  0.00    +0.000 A 
BRANCH  23  26
ATOM     26  C   UNL     1       4.038   4.750  17.153  0.00  0.00    +0.000 C 
ATOM     27  N   UNL     1       4.596   3.994  16.465  0.00  0.00    +0.000 NA
ENDBRANCH  23  26
ENDBRANCH  16  20
ENDBRANCH  11  13
BRANCH   1  29
ATOM     28  C   UNL     1      -3.454  12.329  22.342  0.00  0.00    +0.000 C 
ATOM     29  N   UNL     1      -2.982  13.057  21.159  0.00  0.00    +0.000 N 
BRANCH  29  30
ATOM     30  C   UNL     1      -2.752  14.520  21.213  0.00  0.00    +0.000 C 
ATOM     31  C   UNL     1      -2.787  15.059  22.654  0.00  0.00    +0.000 C 
ATOM     32  C   UNL     1      -1.486  14.863  23.431  0.00  0.00    +0.000 C 
ATOM     33  C   UNL     1      -0.263  15.350  22.665  0.00  0.00    +0.000 C 
ATOM     34  C   UNL     1      -0.191  14.865  21.219  0.00  0.00    +0.000 C 
ATOM     35  C   UNL     1      -1.506  14.999  20.464  0.00  0.00    +0.000 C 
ENDBRANCH  29  30
ENDBRANCH   1  29
TORSDOF 5
ENDMDL
MODEL 8
REMARK VINA RESULT:      -7.6      0.959      1.362
REMARK  Name = 
REMARK  6 active torsions:
REMARK  status: ('A' for Active; 'I' for Inactive)
REMARK    1  A    between atoms: C_1  and  N_2
REMARK    2  A    between atoms: N_2  and  C_3
REMARK    3  A    between atoms: N_2  and  C_28
REMARK    4  A    between atoms: C_13  and  N_14
REMARK    5  A    between atoms: C_17  and  C_18
REMARK    6  A    between atoms: C_21  and  C_22
REMARK                            x       y       z     vdW  Elec       q    Type
REMARK                         _______ _______ _______ _____ _____    ______ ____
ROOT
ATOM      1  C   UNL     1      -2.388  12.207  19.955  0.00  0.00    +0.000 A 
ATOM      2  C   UNL     1      -3.428  12.168  18.988  0.00  0.00    +0.000 A 
ATOM      3  C   UNL     1      -3.295  11.562  17.739  0.00  0.00    +0.000 A 
ATOM      4  N   UNL     1      -4.363  11.627  16.823  0.00  0.00    +0.000 NA
ATOM      5  C   UNL     1      -4.191  11.055  15.670  0.00  0.00    +0.000 A 
ATOM      6  C   UNL     1      -2.930  10.324  15.264  0.00  0.00    +0.000 A 
ATOM      7  O   UNL     1      -2.857   9.806  14.161  0.00  0.00    +0.000 OA
ATOM      8  N   UNL     1      -1.932  10.301  16.202  0.00  0.00    +0.000 N 
ATOM      9  C   UNL     1      -2.095  10.924  17.444  0.00  0.00    +0.000 A 
ATOM     10  C   UNL     1      -1.060  10.905  18.368  0.00  0.00    +0.000 A 
ATOM     11  C   UNL     1      -1.172  11.539  19.627  0.00  0.00    +0.000 A 
ATOM     12  H   UNL     1      -1.076   9.817  15.973  0.00  0.00    +0.000 HD
ENDROOT
BRANCH  11  13
ATOM     13  N   UNL     1      -0.072  11.495  20.532  0.00  0.00    +0.000 N 
ATOM     14  C   UNL     1       0.552  10.355  20.923  0.00  0.00    +0.000 A 
ATOM     15  N   UNL     1       0.773   9.315  20.156  0.00  0.00    +0.000 NA
ATOM     16  C   UNL     1       1.379   8.282  20.832  0.00  0.00    +0.000 A 
ATOM     17  C   UNL     1       1.622   8.535  22.163  0.00  0.00    +0.000 A 
ATOM     18  S   UNL     1       1.134  10.147  22.538  0.00  0.00    +0.000 S 
ATOM     19  H   UNL     1      -0.054  12.289  21.150  0.00  0.00    +0.000 HD
BRANCH  16  20
ATOM     20  C   UNL     1       1.707   7.072  20.097  0.00  0.00    +0.000 A 
ATOM     21  C   UNL     1       2.177   7.208  18.778  0.00  0.00    +0.000 A 
ATOM     22  C   UNL     1       2.438   6.087  17.987  0.00  0.00    +0.000 A 
ATOM     23  C   UNL     1       2.225   4.812  18.511  0.00  0.00    +0.000 A 
ATOM     24  C   UNL     1       1.765   4.666  19.823  0.00  0.00    +0.000 A 
ATOM     25  C   UNL     1       1.509   5.791  20.618  0.00  0.00    +0.000 A 
BRANCH  23  26
ATOM     26  C   UNL     1       2.466   3.659  17.699  0.00  0.00    +0.000 C 
ATOM     27  N   UNL     1       2.658   2.719  17.039  0.00  0.00    +0.000 NA
ENDBRANCH  23  26
ENDBRANCH  16  20
ENDBRANCH  11  13
BRANCH   1  29
ATOM     28  C   UNL     1      -3.237  14.249  20.972  0.00  0.00    +0.000 C 
ATOM     29  N   UNL     1      -2.611  12.932  21.139  0.00  0.00    +0.000 N 
BRANCH  29  30
ATOM     30  C   UNL     1      -2.312  12.404  22.490  0.00  0.00    +0.000 C 
ATOM     31  C   UNL     1      -1.198  13.200  23.191  0.00  0.00    +0.000 C 
ATOM     32  C   UNL     1      -1.669  14.500  23.843  0.00  0.00    +0.000 C 
ATOM     33  C   UNL     1      -2.884  14.302  24.739  0.00  0.00    +0.000 C 
ATOM     34  C   UNL     1      -4.012  13.494  24.102  0.00  0.00    +0.000 C 
ATOM     35  C   UNL     1      -3.535  12.233  23.395  0.00  0.00    +0.000 C 
ENDBRANCH  29  30
ENDBRANCH   1  29
TORSDOF 5
ENDMDL
MODEL 9
REMARK VINA RESULT:      -7.6      0.757      1.574
REMARK  Name = 
REMARK  6 active torsions:
REMARK  status: ('A' for Active; 'I' for Inactive)
REMARK    1  A    between atoms: C_1  and  N_2
REMARK    2  A    between atoms: N_2  and  C_3
REMARK    3  A    between atoms: N_2  and  C_28
REMARK    4  A    between atoms: C_13  and  N_14
REMARK    5  A    between atoms: C_17  and  C_18
REMARK    6  A    between atoms: C_21  and  C_22
REMARK                            x       y       z     vdW  Elec       q    Type
REMARK                         _______ _______ _______ _____ _____    ______ ____
ROOT
ATOM      1  C   UNL     1      -3.369  12.244  19.856  0.00  0.00    +0.000 A 
ATOM      2  C   UNL     1      -4.194  12.149  18.703  0.00  0.00    +0.000 A 
ATOM      3  C   UNL     1      -3.778  11.570  17.504  0.00  0.00    +0.000 A 
ATOM      4  N   UNL     1      -4.648  11.577  16.397  0.00  0.00    +0.000 NA
ATOM      5  C   UNL     1      -4.214  11.034  15.300  0.00  0.00    +0.000 A 
ATOM      6  C   UNL     1      -2.851  10.394  15.149  0.00  0.00    +0.000 A 
ATOM      7  O   UNL     1      -2.529   9.897  14.082  0.00  0.00    +0.000 OA
ATOM      8  N   UNL     1      -2.058  10.425  16.265  0.00  0.00    +0.000 N 
ATOM      9  C   UNL     1      -2.503  11.018  17.451  0.00  0.00    +0.000 A 
ATOM     10  C   UNL     1      -1.670  11.055  18.560  0.00  0.00    +0.000 A 
ATOM     11  C   UNL     1      -2.069  11.663  19.773  0.00  0.00    +0.000 A 
ATOM     12  H   UNL     1      -1.142  10.002  16.208  0.00  0.00    +0.000 HD
ENDROOT
BRANCH  11  13
ATOM     13  N   UNL     1      -1.168  11.680  20.876  0.00  0.00    +0.000 N 
ATOM     14  C   UNL     1      -0.367  10.641  21.227  0.00  0.00    +0.000 A 
ATOM     15  N   UNL     1       0.227   9.831  20.386  0.00  0.00    +0.000 NA
ATOM     16  C   UNL     1       0.935   8.838  21.022  0.00  0.00    +0.000 A 
ATOM     17  C   UNL     1       0.872   8.884  22.397  0.00  0.00    +0.000 A 
ATOM     18  S   UNL     1      -0.046  10.261  22.883  0.00  0.00    +0.000 S 
ATOM     19  H   UNL     1      -1.449  12.332  21.590  0.00  0.00    +0.000 HD
BRANCH  16  20
ATOM     20  C   UNL     1       1.667   7.880  20.211  0.00  0.00    +0.000 A 
ATOM     21  C   UNL     1       2.109   8.293  18.941  0.00  0.00    +0.000 A 
ATOM     22  C   UNL     1       2.751   7.403  18.078  0.00  0.00    +0.000 A 
ATOM     23  C   UNL     1       2.953   6.082  18.478  0.00  0.00    +0.000 A 
ATOM     24  C   UNL     1       2.523   5.664  19.742  0.00  0.00    +0.000 A 
ATOM     25  C   UNL     1       1.885   6.559  20.609  0.00  0.00    +0.000 A 
BRANCH  23  26
ATOM     26  C   UNL     1       3.587   5.157  17.590  0.00  0.00    +0.000 C 
ATOM     27  N   UNL     1       4.101   4.407  16.863  0.00  0.00    +0.000 NA
ENDBRANCH  23  26
ENDBRANCH  16  20
ENDBRANCH  11  13
BRANCH   1  29
ATOM     28  C   UNL     1      -5.151  12.457  21.502  0.00  0.00    +0.000 C 
ATOM     29  N   UNL     1      -3.868  12.937  20.973  0.00  0.00    +0.000 N 
BRANCH  29  30
ATOM     30  C   UNL     1      -3.140  14.040  21.643  0.00  0.00    +0.000 C 
ATOM     31  C   UNL     1      -3.811  15.404  21.408  0.00  0.00    +0.000 C 
ATOM     32  C   UNL     1      -5.003  15.685  22.321  0.00  0.00    +0.000 C 
ATOM     33  C   UNL     1      -4.687  15.446  23.792  0.00  0.00    +0.000 C 
ATOM     34  C   UNL     1      -3.996  14.116  24.080  0.00  0.00    +0.000 C 
ATOM     35  C   UNL     1      -2.850  13.805  23.128  0.00  0.00    +0.000 C 
ENDBRANCH  29  30
ENDBRANCH   1  29
TORSDOF 5
ENDMDL
