MODEL 1
REMARK VINA RESULT:      -7.5      0.000      0.000
REMARK  Name = 
REMARK  7 active torsions:
REMARK  status: ('A' for Active; 'I' for Inactive)
REMARK    1  A    between atoms: C_1  and  C_2
REMARK    2  A    between atoms: C_5  and  C_6
REMARK    3  A    between atoms: N_11  and  C_12
REMARK    4  A    between atoms: C_12  and  C_13
REMARK    5  A    between atoms: C_13  and  C_14
REMARK    6  A    between atoms: N_16  and  N_17
REMARK    7  A    between atoms: C_18  and  C_20
REMARK                            x       y       z     vdW  Elec       q    Type
REMARK                         _______ _______ _______ _____ _____    ______ ____
ROOT
ATOM      1  C   UNL     1       1.418   8.721  21.248  0.00  0.00    +0.000 C 
ENDROOT
BRANCH   1   7
ATOM      2  C   UNL     1      -1.748  11.830  23.380  0.00  0.00    +0.000 C 
ATOM      3  C   UNL     1      -1.085  11.294  22.347  0.00  0.00    +0.000 C 
ATOM      4  S   UNL     1      -1.238  11.692  20.686  0.00  0.00    +0.000 S 
ATOM      5  C   UNL     1      -0.078  10.466  20.185  0.00  0.00    +0.000 C 
ATOM      6  S   UNL     1       0.315  10.247  18.579  0.00  0.00    +0.000 S 
ATOM      7  N   UNL     1       0.394   9.781  21.287  0.00  0.00    +0.000 N 
ATOM      8  C   UNL     1      -0.080  10.210  22.519  0.00  0.00    +0.000 C 
ATOM      9  O   UNL     1       0.260   9.773  23.610  0.00  0.00    +0.000 OA
BRANCH   2  14
ATOM     10  C   UNL     1      -5.712  16.030  23.075  0.00  0.00    +0.000 C 
ATOM     11  C   UNL     1      -4.695  14.927  23.129  0.00  0.00    +0.000 A 
ATOM     12  C   UNL     1      -5.071  13.613  23.427  0.00  0.00    +0.000 A 
ATOM     13  C   UNL     1      -4.109  12.600  23.503  0.00  0.00    +0.000 A 
ATOM     14  C   UNL     1      -2.759  12.888  23.281  0.00  0.00    +0.000 A 
ATOM     15  C   UNL     1      -2.382  14.198  22.969  0.00  0.00    +0.000 A 
ATOM     16  C   UNL     1      -3.343  15.211  22.894  0.00  0.00    +0.000 A 
ENDBRANCH   2  14
ENDBRANCH   1   7
BRANCH   1  17
ATOM     17  C   UNL     1       0.820   7.314  21.164  0.00  0.00    +0.000 C 
BRANCH  17  18
ATOM     18  C   UNL     1       1.741   6.345  20.453  0.00  0.00    +0.000 C 
ATOM     19  O   UNL     1       1.622   5.123  20.492  0.00  0.00    +0.000 OA
ATOM     20  N   UNL     1       2.749   6.983  19.754  0.00  0.00    +0.000 N 
ATOM     21  H   UNL     1       2.814   7.995  19.641  0.00  0.00    +0.000 HD
BRANCH  20  22
ATOM     22  N   UNL     1       3.622   6.214  18.981  0.00  0.00    +0.000 N 
ATOM     23  C   UNL     1       3.983   6.682  17.731  0.00  0.00    +0.000 C 
ATOM     24  O   UNL     1       3.541   7.722  17.253  0.00  0.00    +0.000 OA
ATOM     25  H   UNL     1       4.102   5.456  19.465  0.00  0.00    +0.000 HD
BRANCH  23  26
ATOM     26  C   UNL     1       4.975   5.865  16.996  0.00  0.00    +0.000 A 
ATOM     27  C   UNL     1       4.703   4.572  16.542  0.00  0.00    +0.000 A 
ATOM     28  C   UNL     1       5.701   3.852  15.887  0.00  0.00    +0.000 A 
ATOM     29  C   UNL     1       6.934   4.456  15.700  0.00  0.00    +0.000 A 
ATOM     30  N   UNL     1       7.221   5.714  16.102  0.00  0.00    +0.000 NA
ATOM     31  C   UNL     1       6.231   6.397  16.732  0.00  0.00    +0.000 A 
ENDBRANCH  23  26
ENDBRANCH  20  22
ENDBRANCH  17  18
ENDBRANCH   1  17
TORSDOF 6
ENDMDL
MODEL 2
REMARK VINA RESULT:      -7.4      2.054     11.212
REMARK  Name = 
REMARK  7 active torsions:
REMARK  status: ('A' for Active; 'I' for Inactive)
REMARK    1  A    between atoms: C_1  and  C_2
REMARK    2  A    between atoms: C_5  and  C_6
REMARK    3  A    between atoms: N_11  and  C_12
REMARK    4  A    between atoms: C_12  and  C_13
REMARK    5  A    between atoms: C_13  and  C_14
REMARK    6  A    between atoms: N_16  and  N_17
REMARK    7  A    between atoms: C_18  and  C_20
REMARK                            x       y       z     vdW  Elec       q    Type
REMARK                         _______ _______ _______ _____ _____    ______ ____
ROOT
ATOM      1  C   UNL     1       0.853   7.907  21.087  0.00  0.00    +0.000 C 
ENDROOT
BRANCH   1   7
ATOM      2  C   UNL     1       4.068   5.287  18.433  0.00  0.00    +0.000 C 
ATOM      3  C   UNL     1       3.264   6.331  18.679  0.00  0.00    +0.000 C 
ATOM      4  S   UNL     1       3.039   7.729  17.712  0.00  0.00    +0.000 S 
ATOM      5  C   UNL     1       1.926   8.464  18.861  0.00  0.00    +0.000 C 
ATOM      6  S   UNL     1       1.240   9.956  18.573  0.00  0.00    +0.000 S 
ATOM      7  N   UNL     1       1.756   7.635  19.953  0.00  0.00    +0.000 N 
ATOM      8  C   UNL     1       2.425   6.420  19.905  0.00  0.00    +0.000 C 
ATOM      9  O   UNL     1       2.357   5.531  20.742  0.00  0.00    +0.000 OA
BRANCH   2  14
ATOM     10  C   UNL     1       7.437   4.798  13.758  0.00  0.00    +0.000 C 
ATOM     11  C   UNL     1       6.566   4.895  14.978  0.00  0.00    +0.000 A 
ATOM     12  C   UNL     1       5.311   4.280  15.018  0.00  0.00    +0.000 A 
ATOM     13  C   UNL     1       4.497   4.402  16.150  0.00  0.00    +0.000 A 
ATOM     14  C   UNL     1       4.929   5.142  17.256  0.00  0.00    +0.000 A 
ATOM     15  C   UNL     1       6.190   5.746  17.223  0.00  0.00    +0.000 A 
ATOM     16  C   UNL     1       7.002   5.624  16.091  0.00  0.00    +0.000 A 
ENDBRANCH   2  14
ENDBRANCH   1   7
BRANCH   1  17
ATOM     17  C   UNL     1       1.478   8.822  22.143  0.00  0.00    +0.000 C 
BRANCH  17  18
ATOM     18  C   UNL     1       0.432   9.609  22.905  0.00  0.00    +0.000 C 
ATOM     19  O   UNL     1       0.305   9.589  24.126  0.00  0.00    +0.000 OA
ATOM     20  N   UNL     1      -0.382  10.357  22.075  0.00  0.00    +0.000 N 
ATOM     21  H   UNL     1      -0.239  10.453  21.069  0.00  0.00    +0.000 HD
BRANCH  20  22
ATOM     22  N   UNL     1      -1.337  11.199  22.649  0.00  0.00    +0.000 N 
ATOM     23  C   UNL     1      -1.062  12.552  22.725  0.00  0.00    +0.000 C 
ATOM     24  O   UNL     1      -0.003  13.042  22.347  0.00  0.00    +0.000 OA
ATOM     25  H   UNL     1      -2.263  10.798  22.792  0.00  0.00    +0.000 HD
BRANCH  23  26
ATOM     26  C   UNL     1      -2.146  13.403  23.267  0.00  0.00    +0.000 A 
ATOM     27  C   UNL     1      -3.495  13.047  23.195  0.00  0.00    +0.000 A 
ATOM     28  C   UNL     1      -4.461  13.919  23.697  0.00  0.00    +0.000 A 
ATOM     29  C   UNL     1      -4.041  15.112  24.264  0.00  0.00    +0.000 A 
ATOM     30  N   UNL     1      -2.743  15.473  24.373  0.00  0.00    +0.000 NA
ATOM     31  C   UNL     1      -1.822  14.605  23.882  0.00  0.00    +0.000 A 
ENDBRANCH  23  26
ENDBRANCH  20  22
ENDBRANCH  17  18
ENDBRANCH   1  17
TORSDOF 6
ENDMDL
MODEL 3
REMARK VINA RESULT:      -7.4      3.288     11.035
REMARK  Name = 
REMARK  7 active torsions:
REMARK  status: ('A' for Active; 'I' for Inactive)
REMARK    1  A    between atoms: C_1  and  C_2
REMARK    2  A    between atoms: C_5  and  C_6
REMARK    3  A    between atoms: N_11  and  C_12
REMARK    4  A    between atoms: C_12  and  C_13
REMARK    5  A    between atoms: C_13  and  C_14
REMARK    6  A    between atoms: N_16  and  N_17
REMARK    7  A    between atoms: C_18  and  C_20
REMARK                            x       y       z     vdW  Elec       q    Type
REMARK                         _______ _______ _______ _____ _____    ______ ____
ROOT
ATOM      1  C   UNL     1       0.837  11.560  19.535  0.00  0.00    +0.000 C 
ENDROOT
BRANCH   1   7
ATOM      2  C   UNL     1       2.616   7.286  17.859  0.00  0.00    +0.000 C 
ATOM      3  C   UNL     1       2.048   8.090  18.768  0.00  0.00    +0.000 C 
ATOM      4  S   UNL     1       1.472   7.664  20.326  0.00  0.00    +0.000 S 
ATOM      5  C   UNL     1       0.890   9.292  20.662  0.00  0.00    +0.000 C 
ATOM      6  S   UNL     1       0.149   9.668  22.108  0.00  0.00    +0.000 S 
ATOM      7  N   UNL     1       1.142  10.118  19.584  0.00  0.00    +0.000 N 
ATOM      8  C   UNL     1       1.818   9.539  18.519  0.00  0.00    +0.000 C 
ATOM      9  O   UNL     1       2.182  10.116  17.503  0.00  0.00    +0.000 OA
BRANCH   2  14
ATOM     10  C   UNL     1       3.537   1.629  18.631  0.00  0.00    +0.000 C 
ATOM     11  C   UNL     1       3.316   3.097  18.406  0.00  0.00    +0.000 A 
ATOM     12  C   UNL     1       4.349   4.020  18.601  0.00  0.00    +0.000 A 
ATOM     13  C   UNL     1       4.122   5.388  18.416  0.00  0.00    +0.000 A 
ATOM     14  C   UNL     1       2.859   5.851  18.033  0.00  0.00    +0.000 A 
ATOM     15  C   UNL     1       1.829   4.929  17.824  0.00  0.00    +0.000 A 
ATOM     16  C   UNL     1       2.056   3.562  18.010  0.00  0.00    +0.000 A 
ENDBRANCH   2  14
ENDBRANCH   1   7
BRANCH   1  17
ATOM     17  C   UNL     1      -0.309  11.897  18.578  0.00  0.00    +0.000 C 
BRANCH  17  18
ATOM     18  C   UNL     1      -1.665  11.685  19.217  0.00  0.00    +0.000 C 
ATOM     19  O   UNL     1      -2.571  11.025  18.714  0.00  0.00    +0.000 OA
ATOM     20  N   UNL     1      -1.786  12.324  20.437  0.00  0.00    +0.000 N 
ATOM     21  H   UNL     1      -1.019  12.804  20.909  0.00  0.00    +0.000 HD
BRANCH  20  22
ATOM     22  N   UNL     1      -2.956  12.143  21.178  0.00  0.00    +0.000 N 
ATOM     23  C   UNL     1      -3.836  13.204  21.290  0.00  0.00    +0.000 C 
ATOM     24  O   UNL     1      -3.619  14.308  20.802  0.00  0.00    +0.000 OA
ATOM     25  H   UNL     1      -3.190  11.182  21.421  0.00  0.00    +0.000 HD
BRANCH  23  26
ATOM     26  C   UNL     1      -5.096  12.925  22.017  0.00  0.00    +0.000 A 
ATOM     27  C   UNL     1      -5.306  13.310  23.343  0.00  0.00    +0.000 A 
ATOM     28  C   UNL     1      -6.507  12.981  23.970  0.00  0.00    +0.000 A 
ATOM     29  C   UNL     1      -7.460  12.285  23.244  0.00  0.00    +0.000 A 
ATOM     30  N   UNL     1      -7.300  11.921  21.952  0.00  0.00    +0.000 NA
ATOM     31  C   UNL     1      -6.124  12.259  21.362  0.00  0.00    +0.000 A 
ENDBRANCH  23  26
ENDBRANCH  20  22
ENDBRANCH  17  18
ENDBRANCH   1  17
TORSDOF 6
ENDMDL
MODEL 4
REMARK VINA RESULT:      -7.3      0.639      1.100
REMARK  Name = 
REMARK  7 active torsions:
REMARK  status: ('A' for Active; 'I' for Inactive)
REMARK    1  A    between atoms: C_1  and  C_2
REMARK    2  A    between atoms: C_5  and  C_6
REMARK    3  A    between atoms: N_11  and  C_12
REMARK    4  A    between atoms: C_12  and  C_13
REMARK    5  A    between atoms: C_13  and  C_14
REMARK    6  A    between atoms: N_16  and  N_17
REMARK    7  A    between atoms: C_18  and  C_20
REMARK                            x       y       z     vdW  Elec       q    Type
REMARK                         _______ _______ _______ _____ _____    ______ ____
ROOT
ATOM      1  C   UNL     1       1.806   8.198  21.253  0.00  0.00    +0.000 C 
ENDROOT
BRANCH   1   7
ATOM      2  C   UNL     1      -1.260  11.492  23.251  0.00  0.00    +0.000 C 
ATOM      3  C   UNL     1      -0.599  10.906  22.243  0.00  0.00    +0.000 C 
ATOM      4  S   UNL     1      -0.696  11.277  20.572  0.00  0.00    +0.000 S 
ATOM      5  C   UNL     1       0.416   9.990  20.122  0.00  0.00    +0.000 C 
ATOM      6  S   UNL     1       0.835   9.720  18.530  0.00  0.00    +0.000 S 
ATOM      7  N   UNL     1       0.832   9.305  21.248  0.00  0.00    +0.000 N 
ATOM      8  C   UNL     1       0.350   9.780  22.460  0.00  0.00    +0.000 C 
ATOM      9  O   UNL     1       0.645   9.349  23.566  0.00  0.00    +0.000 OA
BRANCH   2  14
ATOM     10  C   UNL     1      -5.059  15.803  22.600  0.00  0.00    +0.000 C 
ATOM     11  C   UNL     1      -4.061  14.699  22.794  0.00  0.00    +0.000 A 
ATOM     12  C   UNL     1      -2.696  14.912  22.572  0.00  0.00    +0.000 A 
ATOM     13  C   UNL     1      -1.781  13.866  22.728  0.00  0.00    +0.000 A 
ATOM     14  C   UNL     1      -2.218  12.593  23.108  0.00  0.00    +0.000 A 
ATOM     15  C   UNL     1      -3.580  12.380  23.343  0.00  0.00    +0.000 A 
ATOM     16  C   UNL     1      -4.495  13.426  23.186  0.00  0.00    +0.000 A 
ENDBRANCH   2  14
ENDBRANCH   1   7
BRANCH   1  17
ATOM     17  C   UNL     1       1.158   6.831  21.023  0.00  0.00    +0.000 C 
BRANCH  17  18
ATOM     18  C   UNL     1       1.935   5.993  20.029  0.00  0.00    +0.000 C 
ATOM     19  O   UNL     1       1.467   5.036  19.417  0.00  0.00    +0.000 OA
ATOM     20  N   UNL     1       3.243   6.414  19.884  0.00  0.00    +0.000 N 
ATOM     21  H   UNL     1       3.624   7.256  20.317  0.00  0.00    +0.000 HD
BRANCH  20  22
ATOM     22  N   UNL     1       4.051   5.784  18.934  0.00  0.00    +0.000 N 
ATOM     23  C   UNL     1       4.205   6.383  17.698  0.00  0.00    +0.000 C 
ATOM     24  O   UNL     1       3.634   7.422  17.382  0.00  0.00    +0.000 OA
ATOM     25  H   UNL     1       4.642   5.028  19.277  0.00  0.00    +0.000 HD
BRANCH  23  26
ATOM     26  C   UNL     1       5.139   5.712  16.765  0.00  0.00    +0.000 A 
ATOM     27  C   UNL     1       4.820   4.527  16.096  0.00  0.00    +0.000 A 
ATOM     28  C   UNL     1       5.766   3.937  15.260  0.00  0.00    +0.000 A 
ATOM     29  C   UNL     1       6.996   4.558  15.115  0.00  0.00    +0.000 A 
ATOM     30  N   UNL     1       7.327   5.718  15.725  0.00  0.00    +0.000 NA
ATOM     31  C   UNL     1       6.386   6.276  16.529  0.00  0.00    +0.000 A 
ENDBRANCH  23  26
ENDBRANCH  20  22
ENDBRANCH  17  18
ENDBRANCH   1  17
TORSDOF 6
ENDMDL
MODEL 5
REMARK VINA RESULT:      -7.3      3.474     10.997
REMARK  Name = 
REMARK  7 active torsions:
REMARK  status: ('A' for Active; 'I' for Inactive)
REMARK    1  A    between atoms: C_1  and  C_2
REMARK    2  A    between atoms: C_5  and  C_6
REMARK    3  A    between atoms: N_11  and  C_12
REMARK    4  A    between atoms: C_12  and  C_13
REMARK    5  A    between atoms: C_13  and  C_14
REMARK    6  A    between atoms: N_16  and  N_17
REMARK    7  A    between atoms: C_18  and  C_20
REMARK                            x       y       z     vdW  Elec       q    Type
REMARK                         _______ _______ _______ _____ _____    ______ ____
ROOT
ATOM      1  C   UNL     1       0.557  11.918  19.399  0.00  0.00    +0.000 C 
ENDROOT
BRANCH   1   7
ATOM      2  C   UNL     1       2.479   7.592  18.043  0.00  0.00    +0.000 C 
ATOM      3  C   UNL     1       1.876   8.440  18.888  0.00  0.00    +0.000 C 
ATOM      4  S   UNL     1       1.293   8.106  20.465  0.00  0.00    +0.000 S 
ATOM      5  C   UNL     1       0.660   9.735  20.681  0.00  0.00    +0.000 C 
ATOM      6  S   UNL     1      -0.109  10.189  22.089  0.00  0.00    +0.000 S 
ATOM      7  N   UNL     1       0.902  10.492  19.551  0.00  0.00    +0.000 N 
ATOM      8  C   UNL     1       1.608   9.861  18.536  0.00  0.00    +0.000 C 
ATOM      9  O   UNL     1       1.970  10.376  17.487  0.00  0.00    +0.000 OA
BRANCH   2  14
ATOM     10  C   UNL     1       3.655   2.022  19.061  0.00  0.00    +0.000 C 
ATOM     11  C   UNL     1       3.324   3.465  18.815  0.00  0.00    +0.000 A 
ATOM     12  C   UNL     1       2.212   3.830  18.048  0.00  0.00    +0.000 A 
ATOM     13  C   UNL     1       1.933   5.179  17.801  0.00  0.00    +0.000 A 
ATOM     14  C   UNL     1       2.761   6.180  18.319  0.00  0.00    +0.000 A 
ATOM     15  C   UNL     1       3.865   5.818  19.097  0.00  0.00    +0.000 A 
ATOM     16  C   UNL     1       4.145   4.470  19.342  0.00  0.00    +0.000 A 
ENDBRANCH   2  14
ENDBRANCH   1   7
BRANCH   1  17
ATOM     17  C   UNL     1      -0.569  12.156  18.391  0.00  0.00    +0.000 C 
BRANCH  17  18
ATOM     18  C   UNL     1      -1.917  11.727  18.932  0.00  0.00    +0.000 C 
ATOM     19  O   UNL     1      -2.438  10.638  18.707  0.00  0.00    +0.000 OA
ATOM     20  N   UNL     1      -2.515  12.703  19.709  0.00  0.00    +0.000 N 
ATOM     21  H   UNL     1      -2.062  13.577  19.976  0.00  0.00    +0.000 HD
BRANCH  20  22
ATOM     22  N   UNL     1      -3.724  12.410  20.343  0.00  0.00    +0.000 N 
ATOM     23  C   UNL     1      -4.158  13.248  21.353  0.00  0.00    +0.000 C 
ATOM     24  O   UNL     1      -3.513  14.214  21.745  0.00  0.00    +0.000 OA
ATOM     25  H   UNL     1      -4.314  11.715  19.887  0.00  0.00    +0.000 HD
BRANCH  23  26
ATOM     26  C   UNL     1      -5.486  12.934  21.928  0.00  0.00    +0.000 A 
ATOM     27  C   UNL     1      -6.487  12.275  21.209  0.00  0.00    +0.000 A 
ATOM     28  C   UNL     1      -7.724  12.046  21.809  0.00  0.00    +0.000 A 
ATOM     29  C   UNL     1      -7.914  12.475  23.113  0.00  0.00    +0.000 A 
ATOM     30  N   UNL     1      -6.959  13.091  23.845  0.00  0.00    +0.000 NA
ATOM     31  C   UNL     1      -5.761  13.297  23.241  0.00  0.00    +0.000 A 
ENDBRANCH  23  26
ENDBRANCH  20  22
ENDBRANCH  17  18
ENDBRANCH   1  17
TORSDOF 6
ENDMDL
MODEL 6
REMARK VINA RESULT:      -7.2      1.510      2.155
REMARK  Name = 
REMARK  7 active torsions:
REMARK  status: ('A' for Active; 'I' for Inactive)
REMARK    1  A    between atoms: C_1  and  C_2
REMARK    2  A    between atoms: C_5  and  C_6
REMARK    3  A    between atoms: N_11  and  C_12
REMARK    4  A    between atoms: C_12  and  C_13
REMARK    5  A    between atoms: C_13  and  C_14
REMARK    6  A    between atoms: N_16  and  N_17
REMARK    7  A    between atoms: C_18  and  C_20
REMARK                            x       y       z     vdW  Elec       q    Type
REMARK                         _______ _______ _______ _____ _____    ______ ____
ROOT
ATOM      1  C   UNL     1       0.807  10.768  20.594  0.00  0.00    +0.000 C 
ENDROOT
BRANCH   1   7
ATOM      2  C   UNL     1      -2.872  12.578  23.319  0.00  0.00    +0.000 C 
ATOM      3  C   UNL     1      -2.162  12.417  22.194  0.00  0.00    +0.000 C 
ATOM      4  S   UNL     1      -2.498  13.065  20.643  0.00  0.00    +0.000 S 
ATOM      5  C   UNL     1      -1.114  12.267  19.902  0.00  0.00    +0.000 C 
ATOM      6  S   UNL     1      -0.773  12.447  18.280  0.00  0.00    +0.000 S 
ATOM      7  N   UNL     1      -0.433  11.525  20.848  0.00  0.00    +0.000 N 
ATOM      8  C   UNL     1      -0.923  11.593  22.144  0.00  0.00    +0.000 C 
ATOM      9  O   UNL     1      -0.428  11.058  23.127  0.00  0.00    +0.000 OA
BRANCH   2  14
ATOM     10  C   UNL     1      -7.741  15.677  23.686  0.00  0.00    +0.000 C 
ATOM     11  C   UNL     1      -6.473  14.876  23.621  0.00  0.00    +0.000 A 
ATOM     12  C   UNL     1      -5.227  15.481  23.818  0.00  0.00    +0.000 A 
ATOM     13  C   UNL     1      -4.051  14.729  23.726  0.00  0.00    +0.000 A 
ATOM     14  C   UNL     1      -4.106  13.362  23.436  0.00  0.00    +0.000 A 
ATOM     15  C   UNL     1      -5.351  12.752  23.253  0.00  0.00    +0.000 A 
ATOM     16  C   UNL     1      -6.526  13.504  23.344  0.00  0.00    +0.000 A 
ENDBRANCH   2  14
ENDBRANCH   1   7
BRANCH   1  17
ATOM     17  C   UNL     1       0.547   9.344  20.096  0.00  0.00    +0.000 C 
BRANCH  17  18
ATOM     18  C   UNL     1       1.460   8.967  18.948  0.00  0.00    +0.000 C 
ATOM     19  O   UNL     1       1.576   9.620  17.914  0.00  0.00    +0.000 OA
ATOM     20  N   UNL     1       2.152   7.794  19.180  0.00  0.00    +0.000 N 
ATOM     21  H   UNL     1       2.134   7.285  20.064  0.00  0.00    +0.000 HD
BRANCH  20  22
ATOM     22  N   UNL     1       3.095   7.372  18.240  0.00  0.00    +0.000 N 
ATOM     23  C   UNL     1       3.473   6.042  18.237  0.00  0.00    +0.000 C 
ATOM     24  O   UNL     1       3.049   5.223  19.045  0.00  0.00    +0.000 OA
ATOM     25  H   UNL     1       3.296   8.022  17.482  0.00  0.00    +0.000 HD
BRANCH  23  26
ATOM     26  C   UNL     1       4.412   5.639  17.165  0.00  0.00    +0.000 A 
ATOM     27  C   UNL     1       4.476   4.335  16.665  0.00  0.00    +0.000 A 
ATOM     28  C   UNL     1       5.411   4.025  15.679  0.00  0.00    +0.000 A 
ATOM     29  C   UNL     1       6.243   5.033  15.219  0.00  0.00    +0.000 A 
ATOM     30  N   UNL     1       6.188   6.310  15.661  0.00  0.00    +0.000 NA
ATOM     31  C   UNL     1       5.266   6.588  16.617  0.00  0.00    +0.000 A 
ENDBRANCH  23  26
ENDBRANCH  20  22
ENDBRANCH  17  18
ENDBRANCH   1  17
TORSDOF 6
ENDMDL
MODEL 7
REMARK VINA RESULT:      -7.2      4.022      7.008
REMARK  Name = 
REMARK  7 active torsions:
REMARK  status: ('A' for Active; 'I' for Inactive)
REMARK    1  A    between atoms: C_1  and  C_2
REMARK    2  A    between atoms: C_5  and  C_6
REMARK    3  A    between atoms: N_11  and  C_12
REMARK    4  A    between atoms: C_12  and  C_13
REMARK    5  A    between atoms: C_13  and  C_14
REMARK    6  A    between atoms: N_16  and  N_17
REMARK    7  A    between atoms: C_18  and  C_20
REMARK                            x       y       z     vdW  Elec       q    Type
REMARK                         _______ _______ _______ _____ _____    ______ ____
ROOT
ATOM      1  C   UNL     1       5.707   4.806  17.338  0.00  0.00    +0.000 C 
ENDROOT
BRANCH   1   7
ATOM      2  C   UNL     1       2.598   8.576  17.936  0.00  0.00    +0.000 C 
ATOM      3  C   UNL     1       3.100   7.363  18.207  0.00  0.00    +0.000 C 
ATOM      4  S   UNL     1       2.599   6.274  19.433  0.00  0.00    +0.000 S 
ATOM      5  C   UNL     1       3.841   5.094  19.027  0.00  0.00    +0.000 C 
ATOM      6  S   UNL     1       3.983   3.659  19.864  0.00  0.00    +0.000 S 
ATOM      7  N   UNL     1       4.609   5.556  17.975  0.00  0.00    +0.000 N 
ATOM      8  C   UNL     1       4.233   6.780  17.439  0.00  0.00    +0.000 C 
ATOM      9  O   UNL     1       4.747   7.327  16.473  0.00  0.00    +0.000 OA
BRANCH   2  14
ATOM     10  C   UNL     1      -1.701  11.177  20.801  0.00  0.00    +0.000 C 
ATOM     11  C   UNL     1      -0.600  10.475  20.059  0.00  0.00    +0.000 A 
ATOM     12  C   UNL     1       0.232   9.555  20.705  0.00  0.00    +0.000 A 
ATOM     13  C   UNL     1       1.273   8.929  20.009  0.00  0.00    +0.000 A 
ATOM     14  C   UNL     1       1.494   9.216  18.659  0.00  0.00    +0.000 A 
ATOM     15  C   UNL     1       0.655  10.126  18.008  0.00  0.00    +0.000 A 
ATOM     16  C   UNL     1      -0.384  10.751  18.703  0.00  0.00    +0.000 A 
ENDBRANCH   2  14
ENDBRANCH   1   7
BRANCH   1  17
ATOM     17  C   UNL     1       6.777   4.352  18.334  0.00  0.00    +0.000 C 
BRANCH  17  18
ATOM     18  C   UNL     1       7.414   5.520  19.057  0.00  0.00    +0.000 C 
ATOM     19  O   UNL     1       7.565   5.580  20.275  0.00  0.00    +0.000 OA
ATOM     20  N   UNL     1       7.806   6.530  18.198  0.00  0.00    +0.000 N 
ATOM     21  H   UNL     1       7.767   6.462  17.181  0.00  0.00    +0.000 HD
BRANCH  20  22
ATOM     22  N   UNL     1       8.486   7.632  18.722  0.00  0.00    +0.000 N 
ATOM     23  C   UNL     1       8.327   8.859  18.105  0.00  0.00    +0.000 C 
ATOM     24  O   UNL     1       7.647   9.017  17.096  0.00  0.00    +0.000 OA
ATOM     25  H   UNL     1       8.896   7.509  19.647  0.00  0.00    +0.000 HD
BRANCH  23  26
ATOM     26  C   UNL     1       9.005  10.003  18.755  0.00  0.00    +0.000 A 
ATOM     27  C   UNL     1       9.036  10.177  20.141  0.00  0.00    +0.000 A 
ATOM     28  C   UNL     1       9.666  11.299  20.677  0.00  0.00    +0.000 A 
ATOM     29  C   UNL     1      10.251  12.204  19.807  0.00  0.00    +0.000 A 
ATOM     30  N   UNL     1      10.263  12.053  18.463  0.00  0.00    +0.000 NA
ATOM     31  C   UNL     1       9.649  10.948  17.966  0.00  0.00    +0.000 A 
ENDBRANCH  23  26
ENDBRANCH  20  22
ENDBRANCH  17  18
ENDBRANCH   1  17
TORSDOF 6
ENDMDL
MODEL 8
REMARK VINA RESULT:      -7.1      3.276     11.574
REMARK  Name = 
REMARK  7 active torsions:
REMARK  status: ('A' for Active; 'I' for Inactive)
REMARK    1  A    between atoms: C_1  and  C_2
REMARK    2  A    between atoms: C_5  and  C_6
REMARK    3  A    between atoms: N_11  and  C_12
REMARK    4  A    between atoms: C_12  and  C_13
REMARK    5  A    between atoms: C_13  and  C_14
REMARK    6  A    between atoms: N_16  and  N_17
REMARK    7  A    between atoms: C_18  and  C_20
REMARK                            x       y       z     vdW  Elec       q    Type
REMARK                         _______ _______ _______ _____ _____    ______ ____
ROOT
ATOM      1  C   UNL     1       0.803  11.194  19.703  0.00  0.00    +0.000 C 
ENDROOT
BRANCH   1   7
ATOM      2  C   UNL     1       2.492   6.956  17.851  0.00  0.00    +0.000 C 
ATOM      3  C   UNL     1       2.020   7.754  18.819  0.00  0.00    +0.000 C 
ATOM      4  S   UNL     1       1.665   7.332  20.442  0.00  0.00    +0.000 S 
ATOM      5  C   UNL     1       1.078   8.944  20.836  0.00  0.00    +0.000 C 
ATOM      6  S   UNL     1       0.519   9.317  22.362  0.00  0.00    +0.000 S 
ATOM      7  N   UNL     1       1.160   9.763  19.726  0.00  0.00    +0.000 N 
ATOM      8  C   UNL     1       1.711   9.191  18.587  0.00  0.00    +0.000 C 
ATOM      9  O   UNL     1       1.921   9.765  17.527  0.00  0.00    +0.000 OA
BRANCH   2  14
ATOM     10  C   UNL     1       3.680   1.339  18.546  0.00  0.00    +0.000 C 
ATOM     11  C   UNL     1       3.391   2.798  18.341  0.00  0.00    +0.000 A 
ATOM     12  C   UNL     1       4.370   3.768  18.581  0.00  0.00    +0.000 A 
ATOM     13  C   UNL     1       4.078   5.126  18.414  0.00  0.00    +0.000 A 
ATOM     14  C   UNL     1       2.804   5.531  18.005  0.00  0.00    +0.000 A 
ATOM     15  C   UNL     1       1.827   4.563  17.751  0.00  0.00    +0.000 A 
ATOM     16  C   UNL     1       2.119   3.206  17.919  0.00  0.00    +0.000 A 
ENDBRANCH   2  14
ENDBRANCH   1   7
BRANCH   1  17
ATOM     17  C   UNL     1      -0.698  11.433  19.526  0.00  0.00    +0.000 C 
BRANCH  17  18
ATOM     18  C   UNL     1      -1.150  12.723  20.178  0.00  0.00    +0.000 C 
ATOM     19  O   UNL     1      -0.985  13.838  19.691  0.00  0.00    +0.000 OA
ATOM     20  N   UNL     1      -1.767  12.516  21.398  0.00  0.00    +0.000 N 
ATOM     21  H   UNL     1      -1.989  11.596  21.777  0.00  0.00    +0.000 HD
BRANCH  20  22
ATOM     22  N   UNL     1      -2.311  13.613  22.071  0.00  0.00    +0.000 N 
ATOM     23  C   UNL     1      -3.579  13.494  22.608  0.00  0.00    +0.000 C 
ATOM     24  O   UNL     1      -4.265  12.484  22.488  0.00  0.00    +0.000 OA
ATOM     25  H   UNL     1      -1.663  14.364  22.304  0.00  0.00    +0.000 HD
BRANCH  23  26
ATOM     26  C   UNL     1      -4.066  14.659  23.381  0.00  0.00    +0.000 A 
ATOM     27  C   UNL     1      -3.219  15.476  24.135  0.00  0.00    +0.000 A 
ATOM     28  C   UNL     1      -3.758  16.535  24.863  0.00  0.00    +0.000 A 
ATOM     29  C   UNL     1      -5.126  16.745  24.805  0.00  0.00    +0.000 A 
ATOM     30  N   UNL     1      -5.970  15.992  24.066  0.00  0.00    +0.000 NA
ATOM     31  C   UNL     1      -5.420  14.971  23.360  0.00  0.00    +0.000 A 
ENDBRANCH  23  26
ENDBRANCH  20  22
ENDBRANCH  17  18
ENDBRANCH   1  17
TORSDOF 6
ENDMDL
MODEL 9
REMARK VINA RESULT:      -7.1      3.156     11.317
REMARK  Name = 
REMARK  7 active torsions:
REMARK  status: ('A' for Active; 'I' for Inactive)
REMARK    1  A    between atoms: C_1  and  C_2
REMARK    2  A    between atoms: C_5  and  C_6
REMARK    3  A    between atoms: N_11  and  C_12
REMARK    4  A    between atoms: C_12  and  C_13
REMARK    5  A    between atoms: C_13  and  C_14
REMARK    6  A    between atoms: N_16  and  N_17
REMARK    7  A    between atoms: C_18  and  C_20
REMARK                            x       y       z     vdW  Elec       q    Type
REMARK                         _______ _______ _______ _____ _____    ______ ____
ROOT
ATOM      1  C   UNL     1       0.814  11.217  19.654  0.00  0.00    +0.000 C 
ENDROOT
BRANCH   1   7
ATOM      2  C   UNL     1       2.512   6.947  17.885  0.00  0.00    +0.000 C 
ATOM      3  C   UNL     1       2.023   7.758  18.833  0.00  0.00    +0.000 C 
ATOM      4  S   UNL     1       1.624   7.355  20.451  0.00  0.00    +0.000 S 
ATOM      5  C   UNL     1       1.041   8.976  20.814  0.00  0.00    +0.000 C 
ATOM      6  S   UNL     1       0.447   9.368  22.322  0.00  0.00    +0.000 S 
ATOM      7  N   UNL     1       1.158   9.783  19.699  0.00  0.00    +0.000 N 
ATOM      8  C   UNL     1       1.732   9.196  18.580  0.00  0.00    +0.000 C 
ATOM      9  O   UNL     1       1.974   9.758  17.521  0.00  0.00    +0.000 OA
BRANCH   2  14
ATOM     10  C   UNL     1       3.718   1.324  18.492  0.00  0.00    +0.000 C 
ATOM     11  C   UNL     1       3.385   2.782  18.359  0.00  0.00    +0.000 A 
ATOM     12  C   UNL     1       2.117   3.197  17.940  0.00  0.00    +0.000 A 
ATOM     13  C   UNL     1       1.830   4.559  17.792  0.00  0.00    +0.000 A 
ATOM     14  C   UNL     1       2.807   5.522  18.060  0.00  0.00    +0.000 A 
ATOM     15  C   UNL     1       4.072   5.109  18.492  0.00  0.00    +0.000 A 
ATOM     16  C   UNL     1       4.359   3.749  18.639  0.00  0.00    +0.000 A 
ENDBRANCH   2  14
ENDBRANCH   1   7
BRANCH   1  17
ATOM     17  C   UNL     1      -0.649  11.470  19.285  0.00  0.00    +0.000 C 
BRANCH  17  18
ATOM     18  C   UNL     1      -1.238  12.633  20.056  0.00  0.00    +0.000 C 
ATOM     19  O   UNL     1      -1.189  13.803  19.686  0.00  0.00    +0.000 OA
ATOM     20  N   UNL     1      -1.836  12.241  21.239  0.00  0.00    +0.000 N 
ATOM     21  H   UNL     1      -1.962  11.269  21.521  0.00  0.00    +0.000 HD
BRANCH  20  22
ATOM     22  N   UNL     1      -2.496  13.201  22.010  0.00  0.00    +0.000 N 
ATOM     23  C   UNL     1      -1.841  13.729  23.107  0.00  0.00    +0.000 C 
ATOM     24  O   UNL     1      -0.723  13.365  23.459  0.00  0.00    +0.000 OA
ATOM     25  H   UNL     1      -3.337  13.606  21.601  0.00  0.00    +0.000 HD
BRANCH  23  26
ATOM     26  C   UNL     1      -2.557  14.802  23.834  0.00  0.00    +0.000 A 
ATOM     27  C   UNL     1      -1.924  15.655  24.741  0.00  0.00    +0.000 A 
ATOM     28  C   UNL     1      -2.674  16.619  25.412  0.00  0.00    +0.000 A 
ATOM     29  C   UNL     1      -4.031  16.703  25.145  0.00  0.00    +0.000 A 
ATOM     30  N   UNL     1      -4.669  15.911  24.254  0.00  0.00    +0.000 NA
ATOM     31  C   UNL     1      -3.916  14.984  23.609  0.00  0.00    +0.000 A 
ENDBRANCH  23  26
ENDBRANCH  20  22
ENDBRANCH  17  18
ENDBRANCH   1  17
TORSDOF 6
ENDMDL
