MODEL 1
REMARK VINA RESULT:      -7.8      0.000      0.000
REMARK  Name = 
REMARK  10 active torsions:
REMARK  status: ('A' for Active; 'I' for Inactive)
REMARK    1  A    between atoms: C_1  and  C_2
REMARK    2  A    between atoms: C_2  and  C_3
REMARK    3  A    between atoms: C_2  and  C_4
REMARK    4  A    between atoms: C_2  and  C_19
REMARK    5  A    between atoms: C_8  and  O_9
REMARK    6  A    between atoms: C_10  and  C_11
REMARK    7  A    between atoms: C_11  and  N_12
REMARK    8  A    between atoms: C_23  and  O_24
REMARK    9  A    between atoms: C_25  and  C_26
REMARK   10  A    between atoms: C_26  and  N_27
REMARK                            x       y       z     vdW  Elec       q    Type
REMARK                         _______ _______ _______ _____ _____    ______ ____
ROOT
ATOM      1  C   UNL     1      -0.526   8.173  21.866  0.00  0.00    +0.000 C 
ATOM      2  C   UNL     1       0.757   8.732  21.194  0.00  0.00    +0.000 C 
ATOM      3  C   UNL     1       1.563   9.444  22.310  0.00  0.00    +0.000 C 
ENDROOT
BRANCH   2   4
ATOM      4  C   UNL     1       1.495   7.538  20.554  0.00  0.00    +0.000 A 
ATOM      5  C   UNL     1       1.169   6.245  21.027  0.00  0.00    +0.000 A 
ATOM      6  C   UNL     1       1.584   5.116  20.342  0.00  0.00    +0.000 A 
ATOM      7 CL   UNL     1       1.016   3.571  20.851  0.00  0.00    +0.000 Cl
ATOM      8  C   UNL     1       2.401   5.238  19.216  0.00  0.00    +0.000 A 
ATOM      9  C   UNL     1       2.899   6.481  18.812  0.00  0.00    +0.000 A 
ATOM     10  C   UNL     1       2.420   7.636  19.486  0.00  0.00    +0.000 A 
BRANCH   8  11
ATOM     11  O   UNL     1       2.655   4.136  18.443  0.00  0.00    +0.000 OA
ATOM     12  H   UNL     1       2.072   3.420  18.758  0.00  0.00    +0.000 HD
ENDBRANCH   8  11
BRANCH   9  13
ATOM     13  C   UNL     1       3.822   6.597  17.609  0.00  0.00    +0.000 C 
BRANCH  13  14
ATOM     14  N   UNL     1       4.922   5.644  17.447  0.00  0.00    +0.000 NA
ATOM     15  C   UNL     1       6.223   5.964  18.045  0.00  0.00    +0.000 C 
ATOM     16  C   UNL     1       7.258   6.546  17.074  0.00  0.00    +0.000 C 
ATOM     17  O   UNL     1       7.363   5.790  15.860  0.00  0.00    +0.000 OA
ATOM     18  C   UNL     1       6.086   5.672  15.225  0.00  0.00    +0.000 C 
ATOM     19  C   UNL     1       5.070   4.991  16.147  0.00  0.00    +0.000 C 
ENDBRANCH  13  14
ENDBRANCH   9  13
ENDBRANCH   2   4
BRANCH   2  20
ATOM     20  C   UNL     1       0.461   9.854  20.145  0.00  0.00    +0.000 A 
ATOM     21  C   UNL     1      -0.384   9.626  19.049  0.00  0.00    +0.000 A 
ATOM     22  C   UNL     1      -0.812  10.687  18.253  0.00  0.00    +0.000 A 
ATOM     23 CL   UNL     1      -1.859  10.360  16.919  0.00  0.00    +0.000 Cl
ATOM     24  C   UNL     1      -0.414  12.000  18.532  0.00  0.00    +0.000 A 
ATOM     25  C   UNL     1       0.516  12.264  19.542  0.00  0.00    +0.000 A 
ATOM     26  C   UNL     1       0.952  11.174  20.323  0.00  0.00    +0.000 A 
BRANCH  24  27
ATOM     27  O   UNL     1      -0.940  13.041  17.818  0.00  0.00    +0.000 OA
ATOM     28  H   UNL     1      -1.910  13.002  17.924  0.00  0.00    +0.000 HD
ENDBRANCH  24  27
BRANCH  25  29
ATOM     29  C   UNL     1       1.105  13.653  19.714  0.00  0.00    +0.000 C 
BRANCH  29  30
ATOM     30  N   UNL     1       1.717  14.335  18.575  0.00  0.00    +0.000 NA
ATOM     31  C   UNL     1       3.037  13.898  18.130  0.00  0.00    +0.000 C 
ATOM     32  C   UNL     1       4.226  14.750  18.614  0.00  0.00    +0.000 C 
ATOM     33  O   UNL     1       3.990  16.159  18.545  0.00  0.00    +0.000 OA
ATOM     34  C   UNL     1       2.755  16.523  19.175  0.00  0.00    +0.000 C 
ATOM     35  C   UNL     1       1.578  15.789  18.529  0.00  0.00    +0.000 C 
ENDBRANCH  29  30
ENDBRANCH  25  29
ENDBRANCH   2  20
TORSDOF 8
ENDMDL
MODEL 2
REMARK VINA RESULT:      -7.7      0.915      1.179
REMARK  Name = 
REMARK  10 active torsions:
REMARK  status: ('A' for Active; 'I' for Inactive)
REMARK    1  A    between atoms: C_1  and  C_2
REMARK    2  A    between atoms: C_2  and  C_3
REMARK    3  A    between atoms: C_2  and  C_4
REMARK    4  A    between atoms: C_2  and  C_19
REMARK    5  A    between atoms: C_8  and  O_9
REMARK    6  A    between atoms: C_10  and  C_11
REMARK    7  A    between atoms: C_11  and  N_12
REMARK    8  A    between atoms: C_23  and  O_24
REMARK    9  A    between atoms: C_25  and  C_26
REMARK   10  A    between atoms: C_26  and  N_27
REMARK                            x       y       z     vdW  Elec       q    Type
REMARK                         _______ _______ _______ _____ _____    ______ ____
ROOT
ATOM      1  C   UNL     1      -0.586   8.182  21.744  0.00  0.00    +0.000 C 
ATOM      2  C   UNL     1       0.692   8.753  21.071  0.00  0.00    +0.000 C 
ATOM      3  C   UNL     1       1.453   9.539  22.169  0.00  0.00    +0.000 C 
ENDROOT
BRANCH   2   4
ATOM      4  C   UNL     1       1.480   7.557  20.498  0.00  0.00    +0.000 A 
ATOM      5  C   UNL     1       1.226   6.283  21.061  0.00  0.00    +0.000 A 
ATOM      6  C   UNL     1       1.688   5.133  20.444  0.00  0.00    +0.000 A 
ATOM      7 CL   UNL     1       1.205   3.599  21.064  0.00  0.00    +0.000 Cl
ATOM      8  C   UNL     1       2.481   5.220  19.299  0.00  0.00    +0.000 A 
ATOM      9  C   UNL     1       2.911   6.457  18.806  0.00  0.00    +0.000 A 
ATOM     10  C   UNL     1       2.383   7.628  19.410  0.00  0.00    +0.000 A 
BRANCH   8  11
ATOM     11  O   UNL     1       2.780   4.083  18.596  0.00  0.00    +0.000 OA
ATOM     12  H   UNL     1       1.980   3.523  18.596  0.00  0.00    +0.000 HD
ENDBRANCH   8  11
BRANCH   9  13
ATOM     13  C   UNL     1       3.809   6.537  17.582  0.00  0.00    +0.000 C 
BRANCH  13  14
ATOM     14  N   UNL     1       4.931   5.605  17.445  0.00  0.00    +0.000 NA
ATOM     15  C   UNL     1       6.222   5.966  18.039  0.00  0.00    +0.000 C 
ATOM     16  C   UNL     1       7.248   6.548  17.058  0.00  0.00    +0.000 C 
ATOM     17  O   UNL     1       7.374   5.768  15.862  0.00  0.00    +0.000 OA
ATOM     18  C   UNL     1       6.102   5.608  15.226  0.00  0.00    +0.000 C 
ATOM     19  C   UNL     1       5.097   4.926  16.160  0.00  0.00    +0.000 C 
ENDBRANCH  13  14
ENDBRANCH   9  13
ENDBRANCH   2   4
BRANCH   2  20
ATOM     20  C   UNL     1       0.380   9.817  19.968  0.00  0.00    +0.000 A 
ATOM     21  C   UNL     1      -0.667   9.637  19.053  0.00  0.00    +0.000 A 
ATOM     22  C   UNL     1      -1.072  10.683  18.226  0.00  0.00    +0.000 A 
ATOM     23 CL   UNL     1      -2.372  10.418  17.120  0.00  0.00    +0.000 Cl
ATOM     24  C   UNL     1      -0.448  11.934  18.293  0.00  0.00    +0.000 A 
ATOM     25  C   UNL     1       0.673  12.129  19.106  0.00  0.00    +0.000 A 
ATOM     26  C   UNL     1       1.079  11.052  19.921  0.00  0.00    +0.000 A 
BRANCH  24  27
ATOM     27  O   UNL     1      -0.936  12.984  17.564  0.00  0.00    +0.000 OA
ATOM     28  H   UNL     1      -1.838  12.741  17.278  0.00  0.00    +0.000 HD
ENDBRANCH  24  27
BRANCH  25  29
ATOM     29  C   UNL     1       1.476  13.416  19.030  0.00  0.00    +0.000 C 
BRANCH  29  30
ATOM     30  N   UNL     1       0.835  14.696  19.330  0.00  0.00    +0.000 NA
ATOM     31  C   UNL     1       1.400  15.910  18.748  0.00  0.00    +0.000 C 
ATOM     32  C   UNL     1       2.310  16.739  19.675  0.00  0.00    +0.000 C 
ATOM     33  O   UNL     1       1.804  16.874  21.007  0.00  0.00    +0.000 OA
ATOM     34  C   UNL     1       1.447  15.605  21.572  0.00  0.00    +0.000 C 
ATOM     35  C   UNL     1       0.397  14.903  20.708  0.00  0.00    +0.000 C 
ENDBRANCH  29  30
ENDBRANCH  25  29
ENDBRANCH   2  20
TORSDOF 8
ENDMDL
MODEL 3
REMARK VINA RESULT:      -7.6      1.157      8.087
REMARK  Name = 
REMARK  10 active torsions:
REMARK  status: ('A' for Active; 'I' for Inactive)
REMARK    1  A    between atoms: C_1  and  C_2
REMARK    2  A    between atoms: C_2  and  C_3
REMARK    3  A    between atoms: C_2  and  C_4
REMARK    4  A    between atoms: C_2  and  C_19
REMARK    5  A    between atoms: C_8  and  O_9
REMARK    6  A    between atoms: C_10  and  C_11
REMARK    7  A    between atoms: C_11  and  N_12
REMARK    8  A    between atoms: C_23  and  O_24
REMARK    9  A    between atoms: C_25  and  C_26
REMARK   10  A    between atoms: C_26  and  N_27
REMARK                            x       y       z     vdW  Elec       q    Type
REMARK                         _______ _______ _______ _____ _____    ______ ____
ROOT
ATOM      1  C   UNL     1       1.705   9.538  22.137  0.00  0.00    +0.000 C 
ATOM      2  C   UNL     1       0.817   8.793  21.106  0.00  0.00    +0.000 C 
ATOM      3  C   UNL     1      -0.420   8.274  21.884  0.00  0.00    +0.000 C 
ENDROOT
BRANCH   2   4
ATOM      4  C   UNL     1       0.475   9.797  19.986  0.00  0.00    +0.000 A 
ATOM      5  C   UNL     1      -0.723   9.582  19.264  0.00  0.00    +0.000 A 
ATOM      6  C   UNL     1      -1.232  10.563  18.430  0.00  0.00    +0.000 A 
ATOM      7 CL   UNL     1      -2.782  10.331  17.713  0.00  0.00    +0.000 Cl
ATOM      8  C   UNL     1      -0.525  11.749  18.229  0.00  0.00    +0.000 A 
ATOM      9  C   UNL     1       0.749  11.938  18.775  0.00  0.00    +0.000 A 
ATOM     10  C   UNL     1       1.234  10.952  19.675  0.00  0.00    +0.000 A 
BRANCH   8  11
ATOM     11  O   UNL     1      -1.118  12.783  17.552  0.00  0.00    +0.000 OA
ATOM     12  H   UNL     1      -0.928  12.655  16.603  0.00  0.00    +0.000 HD
ENDBRANCH   8  11
BRANCH   9  13
ATOM     13  C   UNL     1       1.527  13.217  18.513  0.00  0.00    +0.000 C 
BRANCH  13  14
ATOM     14  N   UNL     1       1.335  14.374  19.391  0.00  0.00    +0.000 NA
ATOM     15  C   UNL     1       2.514  14.991  20.010  0.00  0.00    +0.000 C 
ATOM     16  C   UNL     1       2.779  14.573  21.462  0.00  0.00    +0.000 C 
ATOM     17  O   UNL     1       1.605  14.648  22.281  0.00  0.00    +0.000 OA
ATOM     18  C   UNL     1       0.544  13.871  21.719  0.00  0.00    +0.000 C 
ATOM     19  C   UNL     1       0.194  14.351  20.307  0.00  0.00    +0.000 C 
ENDBRANCH  13  14
ENDBRANCH   9  13
ENDBRANCH   2   4
BRANCH   2  20
ATOM     20  C   UNL     1       1.492   7.503  20.534  0.00  0.00    +0.000 A 
ATOM     21  C   UNL     1       1.176   6.230  21.031  0.00  0.00    +0.000 A 
ATOM     22  C   UNL     1       1.613   5.084  20.370  0.00  0.00    +0.000 A 
ATOM     23 CL   UNL     1       1.191   3.538  21.013  0.00  0.00    +0.000 Cl
ATOM     24  C   UNL     1       2.370   5.177  19.196  0.00  0.00    +0.000 A 
ATOM     25  C   UNL     1       2.807   6.419  18.726  0.00  0.00    +0.000 A 
ATOM     26  C   UNL     1       2.370   7.566  19.420  0.00  0.00    +0.000 A 
BRANCH  24  27
ATOM     27  O   UNL     1       2.687   4.047  18.494  0.00  0.00    +0.000 OA
ATOM     28  H   UNL     1       2.437   3.283  19.049  0.00  0.00    +0.000 HD
ENDBRANCH  24  27
BRANCH  25  29
ATOM     29  C   UNL     1       3.795   6.513  17.576  0.00  0.00    +0.000 C 
BRANCH  29  30
ATOM     30  N   UNL     1       4.923   5.585  17.503  0.00  0.00    +0.000 NA
ATOM     31  C   UNL     1       6.194   5.987  18.098  0.00  0.00    +0.000 C 
ATOM     32  C   UNL     1       7.251   6.534  17.119  0.00  0.00    +0.000 C 
ATOM     33  O   UNL     1       7.351   5.785  15.904  0.00  0.00    +0.000 OA
ATOM     34  C   UNL     1       6.070   5.597  15.287  0.00  0.00    +0.000 C 
ATOM     35  C   UNL     1       5.110   4.879  16.238  0.00  0.00    +0.000 C 
ENDBRANCH  29  30
ENDBRANCH  25  29
ENDBRANCH   2  20
TORSDOF 8
ENDMDL
MODEL 4
REMARK VINA RESULT:      -7.6      0.542      7.874
REMARK  Name = 
REMARK  10 active torsions:
REMARK  status: ('A' for Active; 'I' for Inactive)
REMARK    1  A    between atoms: C_1  and  C_2
REMARK    2  A    between atoms: C_2  and  C_3
REMARK    3  A    between atoms: C_2  and  C_4
REMARK    4  A    between atoms: C_2  and  C_19
REMARK    5  A    between atoms: C_8  and  O_9
REMARK    6  A    between atoms: C_10  and  C_11
REMARK    7  A    between atoms: C_11  and  N_12
REMARK    8  A    between atoms: C_23  and  O_24
REMARK    9  A    between atoms: C_25  and  C_26
REMARK   10  A    between atoms: C_26  and  N_27
REMARK                            x       y       z     vdW  Elec       q    Type
REMARK                         _______ _______ _______ _____ _____    ______ ____
ROOT
ATOM      1  C   UNL     1       1.691   9.481  22.276  0.00  0.00    +0.000 C 
ATOM      2  C   UNL     1       0.825   8.809  21.176  0.00  0.00    +0.000 C 
ATOM      3  C   UNL     1      -0.454   8.289  21.881  0.00  0.00    +0.000 C 
ENDROOT
BRANCH   2   4
ATOM      4  C   UNL     1       0.554   9.875  20.094  0.00  0.00    +0.000 A 
ATOM      5  C   UNL     1      -0.323   9.521  19.041  0.00  0.00    +0.000 A 
ATOM      6  C   UNL     1      -0.820  10.485  18.181  0.00  0.00    +0.000 A 
ATOM      7 CL   UNL     1      -2.022  10.040  17.029  0.00  0.00    +0.000 Cl
ATOM      8  C   UNL     1      -0.398  11.811  18.293  0.00  0.00    +0.000 A 
ATOM      9  C   UNL     1       0.602  12.181  19.199  0.00  0.00    +0.000 A 
ATOM     10  C   UNL     1       1.061  11.196  20.114  0.00  0.00    +0.000 A 
BRANCH   8  11
ATOM     11  O   UNL     1      -1.027  12.785  17.563  0.00  0.00    +0.000 OA
ATOM     12  H   UNL     1      -1.486  12.342  16.823  0.00  0.00    +0.000 HD
ENDBRANCH   8  11
BRANCH   9  13
ATOM     13  C   UNL     1       1.084  13.620  19.282  0.00  0.00    +0.000 C 
BRANCH  13  14
ATOM     14  N   UNL     1       2.511  13.897  19.461  0.00  0.00    +0.000 NA
ATOM     15  C   UNL     1       2.912  14.926  20.426  0.00  0.00    +0.000 C 
ATOM     16  C   UNL     1       3.243  16.294  19.817  0.00  0.00    +0.000 C 
ATOM     17  O   UNL     1       4.126  16.199  18.692  0.00  0.00    +0.000 OA
ATOM     18  C   UNL     1       3.588  15.321  17.699  0.00  0.00    +0.000 C 
ATOM     19  C   UNL     1       3.355  13.917  18.267  0.00  0.00    +0.000 C 
ENDBRANCH  13  14
ENDBRANCH   9  13
ENDBRANCH   2   4
BRANCH   2  20
ATOM     20  C   UNL     1       1.489   7.529  20.569  0.00  0.00    +0.000 A 
ATOM     21  C   UNL     1       1.144   6.246  21.014  0.00  0.00    +0.000 A 
ATOM     22  C   UNL     1       1.574   5.117  20.319  0.00  0.00    +0.000 A 
ATOM     23 CL   UNL     1       1.117   3.555  20.899  0.00  0.00    +0.000 Cl
ATOM     24  C   UNL     1       2.352   5.239  19.162  0.00  0.00    +0.000 A 
ATOM     25  C   UNL     1       2.817   6.490  18.744  0.00  0.00    +0.000 A 
ATOM     26  C   UNL     1       2.387   7.618  19.472  0.00  0.00    +0.000 A 
BRANCH  24  27
ATOM     27  O   UNL     1       2.662   4.130  18.424  0.00  0.00    +0.000 OA
ATOM     28  H   UNL     1       3.601   3.922  18.596  0.00  0.00    +0.000 HD
ENDBRANCH  24  27
BRANCH  25  29
ATOM     29  C   UNL     1       3.826   6.609  17.615  0.00  0.00    +0.000 C 
BRANCH  29  30
ATOM     30  N   UNL     1       4.941   5.667  17.528  0.00  0.00    +0.000 NA
ATOM     31  C   UNL     1       6.223   6.053  18.110  0.00  0.00    +0.000 C 
ATOM     32  C   UNL     1       7.276   6.588  17.120  0.00  0.00    +0.000 C 
ATOM     33  O   UNL     1       7.353   5.840  15.902  0.00  0.00    +0.000 OA
ATOM     34  C   UNL     1       6.064   5.670  15.300  0.00  0.00    +0.000 C 
ATOM     35  C   UNL     1       5.105   4.961  16.260  0.00  0.00    +0.000 C 
ENDBRANCH  29  30
ENDBRANCH  25  29
ENDBRANCH   2  20
TORSDOF 8
ENDMDL
MODEL 5
REMARK VINA RESULT:      -7.5      1.148      8.331
REMARK  Name = 
REMARK  10 active torsions:
REMARK  status: ('A' for Active; 'I' for Inactive)
REMARK    1  A    between atoms: C_1  and  C_2
REMARK    2  A    between atoms: C_2  and  C_3
REMARK    3  A    between atoms: C_2  and  C_4
REMARK    4  A    between atoms: C_2  and  C_19
REMARK    5  A    between atoms: C_8  and  O_9
REMARK    6  A    between atoms: C_10  and  C_11
REMARK    7  A    between atoms: C_11  and  N_12
REMARK    8  A    between atoms: C_23  and  O_24
REMARK    9  A    between atoms: C_25  and  C_26
REMARK   10  A    between atoms: C_26  and  N_27
REMARK                            x       y       z     vdW  Elec       q    Type
REMARK                         _______ _______ _______ _____ _____    ______ ____
ROOT
ATOM      1  C   UNL     1       1.733   9.511  22.110  0.00  0.00    +0.000 C 
ATOM      2  C   UNL     1       0.832   8.754  21.097  0.00  0.00    +0.000 C 
ATOM      3  C   UNL     1      -0.389   8.234  21.898  0.00  0.00    +0.000 C 
ENDROOT
BRANCH   2   4
ATOM      4  C   UNL     1       0.468   9.749  19.976  0.00  0.00    +0.000 A 
ATOM      5  C   UNL     1      -0.700   9.479  19.223  0.00  0.00    +0.000 A 
ATOM      6  C   UNL     1      -1.237  10.441  18.384  0.00  0.00    +0.000 A 
ATOM      7 CL   UNL     1      -2.755  10.136  17.626  0.00  0.00    +0.000 Cl
ATOM      8  C   UNL     1      -0.587  11.663  18.209  0.00  0.00    +0.000 A 
ATOM      9  C   UNL     1       0.662  11.911  18.788  0.00  0.00    +0.000 A 
ATOM     10  C   UNL     1       1.174  10.943  19.693  0.00  0.00    +0.000 A 
BRANCH   8  11
ATOM     11  O   UNL     1      -1.215  12.671  17.525  0.00  0.00    +0.000 OA
ATOM     12  H   UNL     1      -0.802  13.510  17.802  0.00  0.00    +0.000 HD
ENDBRANCH   8  11
BRANCH   9  13
ATOM     13  C   UNL     1       1.380  13.230  18.555  0.00  0.00    +0.000 C 
BRANCH  13  14
ATOM     14  N   UNL     1       1.266  14.302  19.548  0.00  0.00    +0.000 NA
ATOM     15  C   UNL     1       0.136  14.276  20.484  0.00  0.00    +0.000 C 
ATOM     16  C   UNL     1      -1.038  15.189  20.110  0.00  0.00    +0.000 C 
ATOM     17  O   UNL     1      -0.619  16.515  19.766  0.00  0.00    +0.000 OA
ATOM     18  C   UNL     1       0.350  16.483  18.714  0.00  0.00    +0.000 C 
ATOM     19  C   UNL     1       1.580  15.664  19.117  0.00  0.00    +0.000 C 
ENDBRANCH  13  14
ENDBRANCH   9  13
ENDBRANCH   2   4
BRANCH   2  20
ATOM     20  C   UNL     1       1.505   7.463  20.523  0.00  0.00    +0.000 A 
ATOM     21  C   UNL     1       1.183   6.190  21.015  0.00  0.00    +0.000 A 
ATOM     22  C   UNL     1       1.619   5.045  20.351  0.00  0.00    +0.000 A 
ATOM     23 CL   UNL     1       1.191   3.498  20.988  0.00  0.00    +0.000 Cl
ATOM     24  C   UNL     1       2.381   5.140  19.180  0.00  0.00    +0.000 A 
ATOM     25  C   UNL     1       2.823   6.382  18.715  0.00  0.00    +0.000 A 
ATOM     26  C   UNL     1       2.387   7.528  19.412  0.00  0.00    +0.000 A 
BRANCH  24  27
ATOM     27  O   UNL     1       2.696   4.011  18.475  0.00  0.00    +0.000 OA
ATOM     28  H   UNL     1       3.507   3.639  18.873  0.00  0.00    +0.000 HD
ENDBRANCH  24  27
BRANCH  25  29
ATOM     29  C   UNL     1       3.815   6.476  17.569  0.00  0.00    +0.000 C 
BRANCH  29  30
ATOM     30  N   UNL     1       4.967   5.578  17.523  0.00  0.00    +0.000 NA
ATOM     31  C   UNL     1       6.229   6.035  18.097  0.00  0.00    +0.000 C 
ATOM     32  C   UNL     1       7.267   6.575  17.094  0.00  0.00    +0.000 C 
ATOM     33  O   UNL     1       7.382   5.788  15.905  0.00  0.00    +0.000 OA
ATOM     34  C   UNL     1       6.104   5.544  15.302  0.00  0.00    +0.000 C 
ATOM     35  C   UNL     1       5.168   4.833  16.282  0.00  0.00    +0.000 C 
ENDBRANCH  29  30
ENDBRANCH  25  29
ENDBRANCH   2  20
TORSDOF 8
ENDMDL
MODEL 6
REMARK VINA RESULT:      -7.3      0.793      1.263
REMARK  Name = 
REMARK  10 active torsions:
REMARK  status: ('A' for Active; 'I' for Inactive)
REMARK    1  A    between atoms: C_1  and  C_2
REMARK    2  A    between atoms: C_2  and  C_3
REMARK    3  A    between atoms: C_2  and  C_4
REMARK    4  A    between atoms: C_2  and  C_19
REMARK    5  A    between atoms: C_8  and  O_9
REMARK    6  A    between atoms: C_10  and  C_11
REMARK    7  A    between atoms: C_11  and  N_12
REMARK    8  A    between atoms: C_23  and  O_24
REMARK    9  A    between atoms: C_25  and  C_26
REMARK   10  A    between atoms: C_26  and  N_27
REMARK                            x       y       z     vdW  Elec       q    Type
REMARK                         _______ _______ _______ _____ _____    ______ ____
ROOT
ATOM      1  C   UNL     1      -0.494   8.191  21.795  0.00  0.00    +0.000 C 
ATOM      2  C   UNL     1       0.772   8.756  21.097  0.00  0.00    +0.000 C 
ATOM      3  C   UNL     1       1.587   9.491  22.193  0.00  0.00    +0.000 C 
ENDROOT
BRANCH   2   4
ATOM      4  C   UNL     1       1.514   7.564  20.460  0.00  0.00    +0.000 A 
ATOM      5  C   UNL     1       1.246   6.277  20.985  0.00  0.00    +0.000 A 
ATOM      6  C   UNL     1       1.662   5.139  20.315  0.00  0.00    +0.000 A 
ATOM      7 CL   UNL     1       1.160   3.595  20.894  0.00  0.00    +0.000 Cl
ATOM      8  C   UNL     1       2.424   5.249  19.151  0.00  0.00    +0.000 A 
ATOM      9  C   UNL     1       2.869   6.492  18.688  0.00  0.00    +0.000 A 
ATOM     10  C   UNL     1       2.388   7.653  19.349  0.00  0.00    +0.000 A 
BRANCH   8  11
ATOM     11  O   UNL     1       2.674   4.130  18.399  0.00  0.00    +0.000 OA
ATOM     12  H   UNL     1       3.641   3.998  18.390  0.00  0.00    +0.000 HD
ENDBRANCH   8  11
BRANCH   9  13
ATOM     13  C   UNL     1       3.734   6.595  17.442  0.00  0.00    +0.000 C 
BRANCH  13  14
ATOM     14  N   UNL     1       5.192   6.585  17.571  0.00  0.00    +0.000 NA
ATOM     15  C   UNL     1       6.006   6.524  16.351  0.00  0.00    +0.000 C 
ATOM     16  C   UNL     1       6.537   5.131  15.993  0.00  0.00    +0.000 C 
ATOM     17  O   UNL     1       7.141   4.466  17.110  0.00  0.00    +0.000 OA
ATOM     18  C   UNL     1       6.228   4.391  18.209  0.00  0.00    +0.000 C 
ATOM     19  C   UNL     1       5.775   5.787  18.649  0.00  0.00    +0.000 C 
ENDBRANCH  13  14
ENDBRANCH   9  13
ENDBRANCH   2   4
BRANCH   2  20
ATOM     20  C   UNL     1       0.447   9.862  20.040  0.00  0.00    +0.000 A 
ATOM     21  C   UNL     1      -0.460   9.632  18.996  0.00  0.00    +0.000 A 
ATOM     22  C   UNL     1      -0.905  10.686  18.200  0.00  0.00    +0.000 A 
ATOM     23 CL   UNL     1      -2.030  10.357  16.932  0.00  0.00    +0.000 Cl
ATOM     24  C   UNL     1      -0.461  11.994  18.427  0.00  0.00    +0.000 A 
ATOM     25  C   UNL     1       0.528  12.256  19.380  0.00  0.00    +0.000 A 
ATOM     26  C   UNL     1       0.979  11.173  20.162  0.00  0.00    +0.000 A 
BRANCH  24  27
ATOM     27  O   UNL     1      -1.000  13.033  17.719  0.00  0.00    +0.000 OA
ATOM     28  H   UNL     1      -1.073  13.791  18.330  0.00  0.00    +0.000 HD
ENDBRANCH  24  27
BRANCH  25  29
ATOM     29  C   UNL     1       1.158  13.634  19.489  0.00  0.00    +0.000 C 
BRANCH  29  30
ATOM     30  N   UNL     1       2.613  13.774  19.506  0.00  0.00    +0.000 NA
ATOM     31  C   UNL     1       3.214  14.674  20.485  0.00  0.00    +0.000 C 
ATOM     32  C   UNL     1       3.607  16.070  19.963  0.00  0.00    +0.000 C 
ATOM     33  O   UNL     1       4.239  16.047  18.680  0.00  0.00    +0.000 OA
ATOM     34  C   UNL     1       3.480  15.292  17.726  0.00  0.00    +0.000 C 
ATOM     35  C   UNL     1       3.279  13.854  18.208  0.00  0.00    +0.000 C 
ENDBRANCH  29  30
ENDBRANCH  25  29
ENDBRANCH   2  20
TORSDOF 8
ENDMDL
MODEL 7
REMARK VINA RESULT:      -7.3      2.196      8.764
REMARK  Name = 
REMARK  10 active torsions:
REMARK  status: ('A' for Active; 'I' for Inactive)
REMARK    1  A    between atoms: C_1  and  C_2
REMARK    2  A    between atoms: C_2  and  C_3
REMARK    3  A    between atoms: C_2  and  C_4
REMARK    4  A    between atoms: C_2  and  C_19
REMARK    5  A    between atoms: C_8  and  O_9
REMARK    6  A    between atoms: C_10  and  C_11
REMARK    7  A    between atoms: C_11  and  N_12
REMARK    8  A    between atoms: C_23  and  O_24
REMARK    9  A    between atoms: C_25  and  C_26
REMARK   10  A    between atoms: C_26  and  N_27
REMARK                            x       y       z     vdW  Elec       q    Type
REMARK                         _______ _______ _______ _____ _____    ______ ____
ROOT
ATOM      1  C   UNL     1       1.391   9.417  22.300  0.00  0.00    +0.000 C 
ATOM      2  C   UNL     1       0.699   8.908  21.007  0.00  0.00    +0.000 C 
ATOM      3  C   UNL     1      -0.611   8.211  21.455  0.00  0.00    +0.000 C 
ENDROOT
BRANCH   2   4
ATOM      4  C   UNL     1       0.477  10.131  20.095  0.00  0.00    +0.000 A 
ATOM      5  C   UNL     1      -0.459   9.994  19.042  0.00  0.00    +0.000 A 
ATOM      6  C   UNL     1      -0.906  11.104  18.345  0.00  0.00    +0.000 A 
ATOM      7 CL   UNL     1      -2.177  10.914  17.195  0.00  0.00    +0.000 Cl
ATOM      8  C   UNL     1      -0.378  12.366  18.619  0.00  0.00    +0.000 A 
ATOM      9  C   UNL     1       0.677  12.531  19.523  0.00  0.00    +0.000 A 
ATOM     10  C   UNL     1       1.087  11.397  20.274  0.00  0.00    +0.000 A 
BRANCH   8  11
ATOM     11  O   UNL     1      -0.953  13.476  18.058  0.00  0.00    +0.000 OA
ATOM     12  H   UNL     1      -0.394  13.741  17.303  0.00  0.00    +0.000 HD
ENDBRANCH   8  11
BRANCH   9  13
ATOM     13  C   UNL     1       1.273  13.905  19.783  0.00  0.00    +0.000 C 
BRANCH  13  14
ATOM     14  N   UNL     1       1.618  14.769  18.652  0.00  0.00    +0.000 NA
ATOM     15  C   UNL     1       2.943  14.630  18.038  0.00  0.00    +0.000 C 
ATOM     16  C   UNL     1       3.981  15.665  18.490  0.00  0.00    +0.000 C 
ATOM     17  O   UNL     1       3.477  17.006  18.449  0.00  0.00    +0.000 OA
ATOM     18  C   UNL     1       2.279  17.121  19.224  0.00  0.00    +0.000 C 
ATOM     19  C   UNL     1       1.195  16.168  18.711  0.00  0.00    +0.000 C 
ENDBRANCH  13  14
ENDBRANCH   9  13
ENDBRANCH   2   4
BRANCH   2  20
ATOM     20  C   UNL     1       1.512   7.787  20.278  0.00  0.00    +0.000 A 
ATOM     21  C   UNL     1       2.223   8.050  19.099  0.00  0.00    +0.000 A 
ATOM     22  C   UNL     1       3.114   7.109  18.586  0.00  0.00    +0.000 A 
ATOM     23 CL   UNL     1       3.976   7.479  17.136  0.00  0.00    +0.000 Cl
ATOM     24  C   UNL     1       3.322   5.887  19.237  0.00  0.00    +0.000 A 
ATOM     25  C   UNL     1       2.553   5.532  20.350  0.00  0.00    +0.000 A 
ATOM     26  C   UNL     1       1.643   6.491  20.842  0.00  0.00    +0.000 A 
BRANCH  24  27
ATOM     27  O   UNL     1       4.288   5.028  18.790  0.00  0.00    +0.000 OA
ATOM     28  H   UNL     1       5.148   5.377  19.096  0.00  0.00    +0.000 HD
ENDBRANCH  24  27
BRANCH  25  29
ATOM     29  C   UNL     1       2.629   4.133  20.935  0.00  0.00    +0.000 C 
BRANCH  29  30
ATOM     30  N   UNL     1       2.017   3.010  20.226  0.00  0.00    +0.000 NA
ATOM     31  C   UNL     1       2.890   1.991  19.651  0.00  0.00    +0.000 C 
ATOM     32  C   UNL     1       3.167   2.119  18.141  0.00  0.00    +0.000 C 
ATOM     33  O   UNL     1       2.008   2.442  17.368  0.00  0.00    +0.000 OA
ATOM     34  C   UNL     1       1.312   3.576  17.900  0.00  0.00    +0.000 C 
ATOM     35  C   UNL     1       0.890   3.324  19.350  0.00  0.00    +0.000 C 
ENDBRANCH  29  30
ENDBRANCH  25  29
ENDBRANCH   2  20
TORSDOF 8
ENDMDL
MODEL 8
REMARK VINA RESULT:      -7.3      2.207      2.934
REMARK  Name = 
REMARK  10 active torsions:
REMARK  status: ('A' for Active; 'I' for Inactive)
REMARK    1  A    between atoms: C_1  and  C_2
REMARK    2  A    between atoms: C_2  and  C_3
REMARK    3  A    between atoms: C_2  and  C_4
REMARK    4  A    between atoms: C_2  and  C_19
REMARK    5  A    between atoms: C_8  and  O_9
REMARK    6  A    between atoms: C_10  and  C_11
REMARK    7  A    between atoms: C_11  and  N_12
REMARK    8  A    between atoms: C_23  and  O_24
REMARK    9  A    between atoms: C_25  and  C_26
REMARK   10  A    between atoms: C_26  and  N_27
REMARK                            x       y       z     vdW  Elec       q    Type
REMARK                         _______ _______ _______ _____ _____    ______ ____
ROOT
ATOM      1  C   UNL     1      -0.656   8.315  21.696  0.00  0.00    +0.000 C 
ATOM      2  C   UNL     1       0.643   8.927  21.108  0.00  0.00    +0.000 C 
ATOM      3  C   UNL     1       1.412   9.555  22.298  0.00  0.00    +0.000 C 
ENDROOT
BRANCH   2   4
ATOM      4  C   UNL     1       1.406   7.788  20.402  0.00  0.00    +0.000 A 
ATOM      5  C   UNL     1       2.047   8.096  19.178  0.00  0.00    +0.000 A 
ATOM      6  C   UNL     1       2.957   7.218  18.616  0.00  0.00    +0.000 A 
ATOM      7 CL   UNL     1       3.846   7.711  17.224  0.00  0.00    +0.000 Cl
ATOM      8  C   UNL     1       3.195   5.977  19.208  0.00  0.00    +0.000 A 
ATOM      9  C   UNL     1       2.456   5.549  20.317  0.00  0.00    +0.000 A 
ATOM     10  C   UNL     1       1.569   6.480  20.919  0.00  0.00    +0.000 A 
BRANCH   8  11
ATOM     11  O   UNL     1       4.223   5.195  18.752  0.00  0.00    +0.000 OA
ATOM     12  H   UNL     1       4.705   5.713  18.079  0.00  0.00    +0.000 HD
ENDBRANCH   8  11
BRANCH   9  13
ATOM     13  C   UNL     1       2.695   4.177  20.928  0.00  0.00    +0.000 C 
BRANCH  13  14
ATOM     14  N   UNL     1       2.170   2.985  20.258  0.00  0.00    +0.000 NA
ATOM     15  C   UNL     1       3.120   2.029  19.678  0.00  0.00    +0.000 C 
ATOM     16  C   UNL     1       3.334   2.163  18.165  0.00  0.00    +0.000 C 
ATOM     17  O   UNL     1       2.101   2.248  17.439  0.00  0.00    +0.000 OA
ATOM     18  C   UNL     1       1.296   3.323  17.931  0.00  0.00    +0.000 C 
ATOM     19  C   UNL     1       0.982   3.144  19.420  0.00  0.00    +0.000 C 
ENDBRANCH  13  14
ENDBRANCH   9  13
ENDBRANCH   2   4
BRANCH   2  20
ATOM     20  C   UNL     1       0.372  10.124  20.138  0.00  0.00    +0.000 A 
ATOM     21  C   UNL     1      -0.581  10.034  19.113  0.00  0.00    +0.000 A 
ATOM     22  C   UNL     1      -0.967  11.170  18.405  0.00  0.00    +0.000 A 
ATOM     23 CL   UNL     1      -2.151  11.014  17.158  0.00  0.00    +0.000 Cl
ATOM     24  C   UNL     1      -0.418  12.423  18.703  0.00  0.00    +0.000 A 
ATOM     25  C   UNL     1       0.616  12.545  19.635  0.00  0.00    +0.000 A 
ATOM     26  C   UNL     1       1.006  11.381  20.328  0.00  0.00    +0.000 A 
BRANCH  24  27
ATOM     27  O   UNL     1      -0.897  13.546  18.084  0.00  0.00    +0.000 OA
ATOM     28  H   UNL     1      -0.502  13.572  17.190  0.00  0.00    +0.000 HD
ENDBRANCH  24  27
BRANCH  25  29
ATOM     29  C   UNL     1       1.353  13.862  19.814  0.00  0.00    +0.000 C 
BRANCH  29  30
ATOM     30  N   UNL     1       1.862  14.579  18.646  0.00  0.00    +0.000 NA
ATOM     31  C   UNL     1       3.176  14.215  18.125  0.00  0.00    +0.000 C 
ATOM     32  C   UNL     1       4.343  15.130  18.547  0.00  0.00    +0.000 C 
ATOM     33  O   UNL     1       4.027  16.524  18.499  0.00  0.00    +0.000 OA
ATOM     34  C   UNL     1       2.811  16.819  19.199  0.00  0.00    +0.000 C 
ATOM     35  C   UNL     1       1.641  16.023  18.616  0.00  0.00    +0.000 C 
ENDBRANCH  29  30
ENDBRANCH  25  29
ENDBRANCH   2  20
TORSDOF 8
ENDMDL
MODEL 9
REMARK VINA RESULT:      -7.2      0.599      7.980
REMARK  Name = 
REMARK  10 active torsions:
REMARK  status: ('A' for Active; 'I' for Inactive)
REMARK    1  A    between atoms: C_1  and  C_2
REMARK    2  A    between atoms: C_2  and  C_3
REMARK    3  A    between atoms: C_2  and  C_4
REMARK    4  A    between atoms: C_2  and  C_19
REMARK    5  A    between atoms: C_8  and  O_9
REMARK    6  A    between atoms: C_10  and  C_11
REMARK    7  A    between atoms: C_11  and  N_12
REMARK    8  A    between atoms: C_23  and  O_24
REMARK    9  A    between atoms: C_25  and  C_26
REMARK   10  A    between atoms: C_26  and  N_27
REMARK                            x       y       z     vdW  Elec       q    Type
REMARK                         _______ _______ _______ _____ _____    ______ ____
ROOT
ATOM      1  C   UNL     1       1.684   9.389  22.376  0.00  0.00    +0.000 C 
ATOM      2  C   UNL     1       0.820   8.788  21.235  0.00  0.00    +0.000 C 
ATOM      3  C   UNL     1      -0.473   8.251  21.899  0.00  0.00    +0.000 C 
ENDROOT
BRANCH   2   4
ATOM      4  C   UNL     1       0.574   9.912  20.207  0.00  0.00    +0.000 A 
ATOM      5  C   UNL     1      -0.226   9.600  19.083  0.00  0.00    +0.000 A 
ATOM      6  C   UNL     1      -0.706  10.602  18.257  0.00  0.00    +0.000 A 
ATOM      7 CL   UNL     1      -1.822  10.195  17.008  0.00  0.00    +0.000 Cl
ATOM      8  C   UNL     1      -0.339  11.930  18.477  0.00  0.00    +0.000 A 
ATOM      9  C   UNL     1       0.593  12.272  19.463  0.00  0.00    +0.000 A 
ATOM     10  C   UNL     1       1.032  11.246  20.341  0.00  0.00    +0.000 A 
BRANCH   8  11
ATOM     11  O   UNL     1      -0.958  12.929  17.772  0.00  0.00    +0.000 OA
ATOM     12  H   UNL     1      -0.603  12.906  16.863  0.00  0.00    +0.000 HD
ENDBRANCH   8  11
BRANCH   9  13
ATOM     13  C   UNL     1       1.018  13.718  19.665  0.00  0.00    +0.000 C 
BRANCH  13  14
ATOM     14  N   UNL     1       1.692  14.433  18.580  0.00  0.00    +0.000 NA
ATOM     15  C   UNL     1       3.010  13.961  18.139  0.00  0.00    +0.000 C 
ATOM     16  C   UNL     1       4.203  14.739  18.709  0.00  0.00    +0.000 C 
ATOM     17  O   UNL     1       4.042  16.159  18.594  0.00  0.00    +0.000 OA
ATOM     18  C   UNL     1       2.822  16.582  19.210  0.00  0.00    +0.000 C 
ATOM     19  C   UNL     1       1.611  15.893  18.574  0.00  0.00    +0.000 C 
ENDBRANCH  13  14
ENDBRANCH   9  13
ENDBRANCH   2   4
BRANCH   2  20
ATOM     20  C   UNL     1       1.471   7.532  20.567  0.00  0.00    +0.000 A 
ATOM     21  C   UNL     1       1.126   6.232  20.963  0.00  0.00    +0.000 A 
ATOM     22  C   UNL     1       1.543   5.132  20.217  0.00  0.00    +0.000 A 
ATOM     23 CL   UNL     1       1.086   3.549  20.737  0.00  0.00    +0.000 Cl
ATOM     24  C   UNL     1       2.309   5.299  19.057  0.00  0.00    +0.000 A 
ATOM     25  C   UNL     1       2.774   6.564  18.686  0.00  0.00    +0.000 A 
ATOM     26  C   UNL     1       2.357   7.663  19.465  0.00  0.00    +0.000 A 
BRANCH  24  27
ATOM     27  O   UNL     1       2.605   4.220  18.271  0.00  0.00    +0.000 OA
ATOM     28  H   UNL     1       2.353   3.420  18.772  0.00  0.00    +0.000 HD
ENDBRANCH  24  27
BRANCH  25  29
ATOM     29  C   UNL     1       3.770   6.725  17.551  0.00  0.00    +0.000 C 
BRANCH  29  30
ATOM     30  N   UNL     1       5.205   6.675  17.824  0.00  0.00    +0.000 NA
ATOM     31  C   UNL     1       6.132   6.792  16.702  0.00  0.00    +0.000 C 
ATOM     32  C   UNL     1       6.714   5.468  16.171  0.00  0.00    +0.000 C 
ATOM     33  O   UNL     1       7.109   4.559  17.202  0.00  0.00    +0.000 OA
ATOM     34  C   UNL     1       6.066   4.358  18.164  0.00  0.00    +0.000 C 
ATOM     35  C   UNL     1       5.652   5.686  18.803  0.00  0.00    +0.000 C 
ENDBRANCH  29  30
ENDBRANCH  25  29
ENDBRANCH   2  20
TORSDOF 8
ENDMDL
