MODEL 1
REMARK VINA RESULT:      -7.0      0.000      0.000
REMARK  Name = 
REMARK  5 active torsions:
REMARK  status: ('A' for Active; 'I' for Inactive)
REMARK    1  A    between atoms: O_1  and  C_2
REMARK    2  A    between atoms: C_2  and  C_3
REMARK    3  A    between atoms: C_2  and  C_15
REMARK    4  A    between atoms: C_3  and  O_4
REMARK    5  A    between atoms: O_4  and  C_5
REMARK                            x       y       z     vdW  Elec       q    Type
REMARK                         _______ _______ _______ _____ _____    ______ ____
ROOT
ATOM      1  C   UNL     1       6.936   5.553  18.968  0.00  0.00    +0.000 C 
ENDROOT
BRANCH   1   2
ATOM      2  C   UNL     1       7.158   4.738  17.686  0.00  0.00    +0.000 C 
BRANCH   2   3
ATOM      3  C   UNL     1       7.239   5.658  16.424  0.00  0.00    +0.000 C 
ATOM      4  C   UNL     1       7.583   4.879  15.141  0.00  0.00    +0.000 C 
ATOM      5  C   UNL     1       6.421   4.016  14.661  0.00  0.00    +0.000 C 
ATOM      6  C   UNL     1       5.133   4.824  14.555  0.00  0.00    +0.000 C 
ATOM      7  C   UNL     1       4.880   5.715  15.770  0.00  0.00    +0.000 C 
ATOM      8  N   UNL     1       6.056   6.493  16.147  0.00  0.00    +0.000 NA
ATOM      9  H   UNL     1       5.840   7.106  16.929  0.00  0.00    +0.000 HD
ENDBRANCH   2   3
BRANCH   2  10
ATOM     10  O   UNL     1       8.387   4.008  17.814  0.00  0.00    +0.000 OA
ATOM     11  H   UNL     1       8.141   3.106  18.095  0.00  0.00    +0.000 HD
ENDBRANCH   2  10
ENDBRANCH   1   2
BRANCH   1  12
ATOM     12  O   UNL     1       5.863   4.987  19.744  0.00  0.00    +0.000 OA
BRANCH  12  13
ATOM     13  C   UNL     1       4.585   5.230  19.271  0.00  0.00    +0.000 A 
ATOM     14  C   UNL     1       4.044   6.519  19.151  0.00  0.00    +0.000 A 
ATOM     15  C   UNL     1       2.760   6.709  18.649  0.00  0.00    +0.000 A 
ATOM     16  C   UNL     1       1.993   5.616  18.262  0.00  0.00    +0.000 A 
ATOM     17  C   UNL     1       2.496   4.315  18.377  0.00  0.00    +0.000 A 
ATOM     18  C   UNL     1       1.704   3.226  17.986  0.00  0.00    +0.000 A 
ATOM     19  C   UNL     1       2.176   1.920  18.103  0.00  0.00    +0.000 A 
ATOM     20  C   UNL     1       3.448   1.690  18.613  0.00  0.00    +0.000 A 
ATOM     21  C   UNL     1       4.253   2.768  19.001  0.00  0.00    +0.000 A 
ATOM     22  C   UNL     1       3.804   4.104  18.894  0.00  0.00    +0.000 A 
ENDBRANCH  12  13
ENDBRANCH   1  12
TORSDOF 5
ENDMDL
MODEL 2
REMARK VINA RESULT:      -6.9      2.169      3.891
REMARK  Name = 
REMARK  5 active torsions:
REMARK  status: ('A' for Active; 'I' for Inactive)
REMARK    1  A    between atoms: O_1  and  C_2
REMARK    2  A    between atoms: C_2  and  C_3
REMARK    3  A    between atoms: C_2  and  C_15
REMARK    4  A    between atoms: C_3  and  O_4
REMARK    5  A    between atoms: O_4  and  C_5
REMARK                            x       y       z     vdW  Elec       q    Type
REMARK                         _______ _______ _______ _____ _____    ______ ____
ROOT
ATOM      1  C   UNL     1       3.910   3.103  16.700  0.00  0.00    +0.000 C 
ENDROOT
BRANCH   1   2
ATOM      2  C   UNL     1       4.877   4.260  16.408  0.00  0.00    +0.000 C 
BRANCH   2   3
ATOM      3  C   UNL     1       6.292   3.995  17.018  0.00  0.00    +0.000 C 
ATOM      4  C   UNL     1       7.365   4.954  16.469  0.00  0.00    +0.000 C 
ATOM      5  C   UNL     1       7.200   6.372  17.006  0.00  0.00    +0.000 C 
ATOM      6  C   UNL     1       7.093   6.384  18.527  0.00  0.00    +0.000 C 
ATOM      7  C   UNL     1       6.142   5.320  19.071  0.00  0.00    +0.000 C 
ATOM      8  N   UNL     1       6.383   4.003  18.490  0.00  0.00    +0.000 NA
ATOM      9  H   UNL     1       5.763   3.313  18.906  0.00  0.00    +0.000 HD
ENDBRANCH   2   3
BRANCH   2  10
ATOM     10  O   UNL     1       4.999   4.408  14.987  0.00  0.00    +0.000 OA
ATOM     11  H   UNL     1       5.710   3.798  14.708  0.00  0.00    +0.000 HD
ENDBRANCH   2  10
ENDBRANCH   1   2
BRANCH   1  12
ATOM     12  O   UNL     1       2.564   3.596  16.837  0.00  0.00    +0.000 OA
BRANCH  12  13
ATOM     13  C   UNL     1       2.086   3.686  18.134  0.00  0.00    +0.000 A 
ATOM     14  C   UNL     1       1.615   2.579  18.856  0.00  0.00    +0.000 A 
ATOM     15  C   UNL     1       1.165   2.722  20.165  0.00  0.00    +0.000 A 
ATOM     16  C   UNL     1       1.172   3.971  20.773  0.00  0.00    +0.000 A 
ATOM     17  C   UNL     1       1.625   5.099  20.080  0.00  0.00    +0.000 A 
ATOM     18  C   UNL     1       1.620   6.352  20.711  0.00  0.00    +0.000 A 
ATOM     19  C   UNL     1       2.053   7.493  20.039  0.00  0.00    +0.000 A 
ATOM     20  C   UNL     1       2.496   7.393  18.726  0.00  0.00    +0.000 A 
ATOM     21  C   UNL     1       2.515   6.147  18.085  0.00  0.00    +0.000 A 
ATOM     22  C   UNL     1       2.083   4.971  18.740  0.00  0.00    +0.000 A 
ENDBRANCH  12  13
ENDBRANCH   1  12
TORSDOF 5
ENDMDL
MODEL 3
REMARK VINA RESULT:      -6.9      2.605      5.446
REMARK  Name = 
REMARK  5 active torsions:
REMARK  status: ('A' for Active; 'I' for Inactive)
REMARK    1  A    between atoms: O_1  and  C_2
REMARK    2  A    between atoms: C_2  and  C_3
REMARK    3  A    between atoms: C_2  and  C_15
REMARK    4  A    between atoms: C_3  and  O_4
REMARK    5  A    between atoms: O_4  and  C_5
REMARK                            x       y       z     vdW  Elec       q    Type
REMARK                         _______ _______ _______ _____ _____    ______ ____
ROOT
ATOM      1  C   UNL     1       4.038   1.899  18.019  0.00  0.00    +0.000 C 
ENDROOT
BRANCH   1   2
ATOM      2  C   UNL     1       4.005   2.442  19.455  0.00  0.00    +0.000 C 
BRANCH   2   3
ATOM      3  C   UNL     1       2.786   1.879  20.256  0.00  0.00    +0.000 C 
ATOM      4  C   UNL     1       2.503   2.674  21.545  0.00  0.00    +0.000 C 
ATOM      5  C   UNL     1       1.910   4.049  21.256  0.00  0.00    +0.000 C 
ATOM      6  C   UNL     1       0.707   3.953  20.324  0.00  0.00    +0.000 C 
ATOM      7  C   UNL     1       0.946   3.034  19.127  0.00  0.00    +0.000 C 
ATOM      8  N   UNL     1       1.519   1.748  19.514  0.00  0.00    +0.000 NA
ATOM      9  H   UNL     1       1.623   1.147  18.701  0.00  0.00    +0.000 HD
ENDBRANCH   2   3
BRANCH   2  10
ATOM     10  O   UNL     1       5.218   2.060  20.117  0.00  0.00    +0.000 OA
ATOM     11  H   UNL     1       5.928   2.133  19.450  0.00  0.00    +0.000 HD
ENDBRANCH   2  10
ENDBRANCH   1   2
BRANCH   1  12
ATOM     12  O   UNL     1       3.486   2.863  17.103  0.00  0.00    +0.000 OA
BRANCH  12  13
ATOM     13  C   UNL     1       4.317   3.919  16.768  0.00  0.00    +0.000 A 
ATOM     14  C   UNL     1       5.525   3.754  16.075  0.00  0.00    +0.000 A 
ATOM     15  C   UNL     1       6.313   4.852  15.743  0.00  0.00    +0.000 A 
ATOM     16  C   UNL     1       5.911   6.133  16.103  0.00  0.00    +0.000 A 
ATOM     17  C   UNL     1       4.717   6.335  16.805  0.00  0.00    +0.000 A 
ATOM     18  C   UNL     1       4.332   7.636  17.163  0.00  0.00    +0.000 A 
ATOM     19  C   UNL     1       3.155   7.863  17.873  0.00  0.00    +0.000 A 
ATOM     20  C   UNL     1       2.349   6.789  18.234  0.00  0.00    +0.000 A 
ATOM     21  C   UNL     1       2.717   5.486  17.877  0.00  0.00    +0.000 A 
ATOM     22  C   UNL     1       3.904   5.222  17.156  0.00  0.00    +0.000 A 
ENDBRANCH  12  13
ENDBRANCH   1  12
TORSDOF 5
ENDMDL
MODEL 4
REMARK VINA RESULT:      -6.7      2.268      5.598
REMARK  Name = 
REMARK  5 active torsions:
REMARK  status: ('A' for Active; 'I' for Inactive)
REMARK    1  A    between atoms: O_1  and  C_2
REMARK    2  A    between atoms: C_2  and  C_3
REMARK    3  A    between atoms: C_2  and  C_15
REMARK    4  A    between atoms: C_3  and  O_4
REMARK    5  A    between atoms: O_4  and  C_5
REMARK                            x       y       z     vdW  Elec       q    Type
REMARK                         _______ _______ _______ _____ _____    ______ ____
ROOT
ATOM      1  C   UNL     1       3.229   2.643  17.492  0.00  0.00    +0.000 C 
ENDROOT
BRANCH   1   2
ATOM      2  C   UNL     1       2.402   2.586  18.785  0.00  0.00    +0.000 C 
BRANCH   2   3
ATOM      3  C   UNL     1       1.270   3.664  18.793  0.00  0.00    +0.000 C 
ATOM      4  C   UNL     1       0.863   4.089  20.217  0.00  0.00    +0.000 C 
ATOM      5  C   UNL     1       1.932   4.942  20.891  0.00  0.00    +0.000 C 
ATOM      6  C   UNL     1       2.354   6.110  20.006  0.00  0.00    +0.000 C 
ATOM      7  C   UNL     1       2.604   5.704  18.555  0.00  0.00    +0.000 C 
ATOM      8  N   UNL     1       1.525   4.887  18.008  0.00  0.00    +0.000 NA
ATOM      9  H   UNL     1       1.702   4.672  17.031  0.00  0.00    +0.000 HD
ENDBRANCH   2   3
BRANCH   2  10
ATOM     10  O   UNL     1       1.810   1.284  18.893  0.00  0.00    +0.000 OA
ATOM     11  H   UNL     1       2.547   0.659  19.037  0.00  0.00    +0.000 HD
ENDBRANCH   2  10
ENDBRANCH   1   2
BRANCH   1  12
ATOM     12  O   UNL     1       4.601   2.961  17.787  0.00  0.00    +0.000 OA
BRANCH  12  13
ATOM     13  C   UNL     1       5.198   3.889  16.949  0.00  0.00    +0.000 A 
ATOM     14  C   UNL     1       4.951   3.947  15.570  0.00  0.00    +0.000 A 
ATOM     15  C   UNL     1       5.561   4.913  14.776  0.00  0.00    +0.000 A 
ATOM     16  C   UNL     1       6.431   5.835  15.345  0.00  0.00    +0.000 A 
ATOM     17  C   UNL     1       6.710   5.801  16.716  0.00  0.00    +0.000 A 
ATOM     18  C   UNL     1       7.595   6.738  17.270  0.00  0.00    +0.000 A 
ATOM     19  C   UNL     1       7.900   6.717  18.629  0.00  0.00    +0.000 A 
ATOM     20  C   UNL     1       7.321   5.757  19.451  0.00  0.00    +0.000 A 
ATOM     21  C   UNL     1       6.429   4.821  18.914  0.00  0.00    +0.000 A 
ATOM     22  C   UNL     1       6.099   4.815  17.539  0.00  0.00    +0.000 A 
ENDBRANCH  12  13
ENDBRANCH   1  12
TORSDOF 5
ENDMDL
MODEL 5
REMARK VINA RESULT:      -6.6      1.720      3.632
REMARK  Name = 
REMARK  5 active torsions:
REMARK  status: ('A' for Active; 'I' for Inactive)
REMARK    1  A    between atoms: O_1  and  C_2
REMARK    2  A    between atoms: C_2  and  C_3
REMARK    3  A    between atoms: C_2  and  C_15
REMARK    4  A    between atoms: C_3  and  O_4
REMARK    5  A    between atoms: O_4  and  C_5
REMARK                            x       y       z     vdW  Elec       q    Type
REMARK                         _______ _______ _______ _____ _____    ______ ____
ROOT
ATOM      1  C   UNL     1       5.383   3.835  16.216  0.00  0.00    +0.000 C 
ENDROOT
BRANCH   1   2
ATOM      2  C   UNL     1       6.453   4.903  16.488  0.00  0.00    +0.000 C 
BRANCH   2   3
ATOM      3  C   UNL     1       5.953   5.971  17.515  0.00  0.00    +0.000 C 
ATOM      4  C   UNL     1       6.444   5.694  18.948  0.00  0.00    +0.000 C 
ATOM      5  C   UNL     1       7.935   5.971  19.111  0.00  0.00    +0.000 C 
ATOM      6  C   UNL     1       8.303   7.359  18.599  0.00  0.00    +0.000 C 
ATOM      7  C   UNL     1       7.680   7.685  17.244  0.00  0.00    +0.000 C 
ATOM      8  N   UNL     1       6.254   7.379  17.195  0.00  0.00    +0.000 NA
ATOM      9  H   UNL     1       5.863   7.648  16.296  0.00  0.00    +0.000 HD
ENDBRANCH   2   3
BRANCH   2  10
ATOM     10  O   UNL     1       7.621   4.258  17.014  0.00  0.00    +0.000 OA
ATOM     11  H   UNL     1       8.136   3.954  16.241  0.00  0.00    +0.000 HD
ENDBRANCH   2  10
ENDBRANCH   1   2
BRANCH   1  12
ATOM     12  O   UNL     1       4.075   4.339  16.544  0.00  0.00    +0.000 OA
BRANCH  12  13
ATOM     13  C   UNL     1       3.421   3.688  17.576  0.00  0.00    +0.000 A 
ATOM     14  C   UNL     1       3.331   2.292  17.668  0.00  0.00    +0.000 A 
ATOM     15  C   UNL     1       2.680   1.689  18.740  0.00  0.00    +0.000 A 
ATOM     16  C   UNL     1       2.103   2.469  19.735  0.00  0.00    +0.000 A 
ATOM     17  C   UNL     1       2.164   3.866  19.671  0.00  0.00    +0.000 A 
ATOM     18  C   UNL     1       1.571   4.635  20.683  0.00  0.00    +0.000 A 
ATOM     19  C   UNL     1       1.606   6.027  20.636  0.00  0.00    +0.000 A 
ATOM     20  C   UNL     1       2.235   6.666  19.574  0.00  0.00    +0.000 A 
ATOM     21  C   UNL     1       2.838   5.911  18.560  0.00  0.00    +0.000 A 
ATOM     22  C   UNL     1       2.821   4.497  18.579  0.00  0.00    +0.000 A 
ENDBRANCH  12  13
ENDBRANCH   1  12
TORSDOF 5
ENDMDL
MODEL 6
REMARK VINA RESULT:      -6.6      2.095      4.901
REMARK  Name = 
REMARK  5 active torsions:
REMARK  status: ('A' for Active; 'I' for Inactive)
REMARK    1  A    between atoms: O_1  and  C_2
REMARK    2  A    between atoms: C_2  and  C_3
REMARK    3  A    between atoms: C_2  and  C_15
REMARK    4  A    between atoms: C_3  and  O_4
REMARK    5  A    between atoms: O_4  and  C_5
REMARK                            x       y       z     vdW  Elec       q    Type
REMARK                         _______ _______ _______ _____ _____    ______ ____
ROOT
ATOM      1  C   UNL     1       5.043   2.839  19.056  0.00  0.00    +0.000 C 
ENDROOT
BRANCH   1   2
ATOM      2  C   UNL     1       4.035   2.570  20.182  0.00  0.00    +0.000 C 
BRANCH   2   3
ATOM      3  C   UNL     1       2.781   1.795  19.661  0.00  0.00    +0.000 C 
ATOM      4  C   UNL     1       1.464   2.322  20.261  0.00  0.00    +0.000 C 
ATOM      5  C   UNL     1       1.080   3.687  19.700  0.00  0.00    +0.000 C 
ATOM      6  C   UNL     1       1.096   3.688  18.175  0.00  0.00    +0.000 C 
ATOM      7  C   UNL     1       2.338   3.020  17.588  0.00  0.00    +0.000 C 
ATOM      8  N   UNL     1       2.618   1.724  18.197  0.00  0.00    +0.000 NA
ATOM      9  H   UNL     1       3.423   1.289  17.753  0.00  0.00    +0.000 HD
ENDBRANCH   2   3
BRANCH   2  10
ATOM     10  O   UNL     1       4.680   1.789  21.198  0.00  0.00    +0.000 OA
ATOM     11  H   UNL     1       3.990   1.212  21.579  0.00  0.00    +0.000 HD
ENDBRANCH   2  10
ENDBRANCH   1   2
BRANCH   1  12
ATOM     12  O   UNL     1       5.634   4.143  19.211  0.00  0.00    +0.000 OA
BRANCH  12  13
ATOM     13  C   UNL     1       5.423   5.027  18.166  0.00  0.00    +0.000 A 
ATOM     14  C   UNL     1       6.186   5.022  16.990  0.00  0.00    +0.000 A 
ATOM     15  C   UNL     1       5.917   5.920  15.961  0.00  0.00    +0.000 A 
ATOM     16  C   UNL     1       4.885   6.841  16.092  0.00  0.00    +0.000 A 
ATOM     17  C   UNL     1       4.109   6.883  17.256  0.00  0.00    +0.000 A 
ATOM     18  C   UNL     1       3.076   7.825  17.370  0.00  0.00    +0.000 A 
ATOM     19  C   UNL     1       2.297   7.896  18.524  0.00  0.00    +0.000 A 
ATOM     20  C   UNL     1       2.546   7.025  19.578  0.00  0.00    +0.000 A 
ATOM     21  C   UNL     1       3.569   6.075  19.475  0.00  0.00    +0.000 A 
ATOM     22  C   UNL     1       4.376   5.976  18.319  0.00  0.00    +0.000 A 
ENDBRANCH  12  13
ENDBRANCH   1  12
TORSDOF 5
ENDMDL
MODEL 7
REMARK VINA RESULT:      -6.6      2.276      4.940
REMARK  Name = 
REMARK  5 active torsions:
REMARK  status: ('A' for Active; 'I' for Inactive)
REMARK    1  A    between atoms: O_1  and  C_2
REMARK    2  A    between atoms: C_2  and  C_3
REMARK    3  A    between atoms: C_2  and  C_15
REMARK    4  A    between atoms: C_3  and  O_4
REMARK    5  A    between atoms: O_4  and  C_5
REMARK                            x       y       z     vdW  Elec       q    Type
REMARK                         _______ _______ _______ _____ _____    ______ ____
ROOT
ATOM      1  C   UNL     1       4.334   2.905  20.110  0.00  0.00    +0.000 C 
ENDROOT
BRANCH   1   2
ATOM      2  C   UNL     1       2.890   2.947  20.633  0.00  0.00    +0.000 C 
BRANCH   2   3
ATOM      3  C   UNL     1       1.916   2.157  19.700  0.00  0.00    +0.000 C 
ATOM      4  C   UNL     1       0.837   3.056  19.069  0.00  0.00    +0.000 C 
ATOM      5  C   UNL     1       1.409   3.977  17.996  0.00  0.00    +0.000 C 
ATOM      6  C   UNL     1       2.227   3.199  16.971  0.00  0.00    +0.000 C 
ATOM      7  C   UNL     1       3.186   2.194  17.607  0.00  0.00    +0.000 C 
ATOM      8  N   UNL     1       2.540   1.367  18.621  0.00  0.00    +0.000 NA
ATOM      9  H   UNL     1       3.193   0.682  18.991  0.00  0.00    +0.000 HD
ENDBRANCH   2   3
BRANCH   2  10
ATOM     10  O   UNL     1       2.861   2.364  21.943  0.00  0.00    +0.000 OA
ATOM     11  H   UNL     1       2.406   1.504  21.850  0.00  0.00    +0.000 HD
ENDBRANCH   2  10
ENDBRANCH   1   2
BRANCH   1  12
ATOM     12  O   UNL     1       4.928   4.215  20.170  0.00  0.00    +0.000 OA
BRANCH  12  13
ATOM     13  C   UNL     1       4.957   4.918  18.978  0.00  0.00    +0.000 A 
ATOM     14  C   UNL     1       5.853   4.630  17.939  0.00  0.00    +0.000 A 
ATOM     15  C   UNL     1       5.825   5.354  16.751  0.00  0.00    +0.000 A 
ATOM     16  C   UNL     1       4.904   6.382  16.583  0.00  0.00    +0.000 A 
ATOM     17  C   UNL     1       4.002   6.706  17.602  0.00  0.00    +0.000 A 
ATOM     18  C   UNL     1       3.085   7.750  17.413  0.00  0.00    +0.000 A 
ATOM     19  C   UNL     1       2.184   8.101  18.417  0.00  0.00    +0.000 A 
ATOM     20  C   UNL     1       2.192   7.409  19.623  0.00  0.00    +0.000 A 
ATOM     21  C   UNL     1       3.097   6.359  19.822  0.00  0.00    +0.000 A 
ATOM     22  C   UNL     1       4.022   5.978  18.824  0.00  0.00    +0.000 A 
ENDBRANCH  12  13
ENDBRANCH   1  12
TORSDOF 5
ENDMDL
MODEL 8
REMARK VINA RESULT:      -6.5      3.418      5.896
REMARK  Name = 
REMARK  5 active torsions:
REMARK  status: ('A' for Active; 'I' for Inactive)
REMARK    1  A    between atoms: O_1  and  C_2
REMARK    2  A    between atoms: C_2  and  C_3
REMARK    3  A    between atoms: C_2  and  C_15
REMARK    4  A    between atoms: C_3  and  O_4
REMARK    5  A    between atoms: O_4  and  C_5
REMARK                            x       y       z     vdW  Elec       q    Type
REMARK                         _______ _______ _______ _____ _____    ______ ____
ROOT
ATOM      1  C   UNL     1       1.500   5.545  20.748  0.00  0.00    +0.000 C 
ENDROOT
BRANCH   1   2
ATOM      2  C   UNL     1       1.557   4.319  19.825  0.00  0.00    +0.000 C 
BRANCH   2   3
ATOM      3  C   UNL     1       2.931   3.580  19.931  0.00  0.00    +0.000 C 
ATOM      4  C   UNL     1       2.921   2.203  19.243  0.00  0.00    +0.000 C 
ATOM      5  C   UNL     1       2.894   2.318  17.722  0.00  0.00    +0.000 C 
ATOM      6  C   UNL     1       3.994   3.244  17.214  0.00  0.00    +0.000 C 
ATOM      7  C   UNL     1       4.098   4.545  18.008  0.00  0.00    +0.000 C 
ATOM      8  N   UNL     1       4.111   4.322  19.450  0.00  0.00    +0.000 NA
ATOM      9  H   UNL     1       4.226   5.203  19.945  0.00  0.00    +0.000 HD
ENDBRANCH   2   3
BRANCH   2  10
ATOM     10  O   UNL     1       0.508   3.415  20.200  0.00  0.00    +0.000 OA
ATOM     11  H   UNL     1       0.797   2.527  19.913  0.00  0.00    +0.000 HD
ENDBRANCH   2  10
ENDBRANCH   1   2
BRANCH   1  12
ATOM     12  O   UNL     1       2.507   6.504  20.373  0.00  0.00    +0.000 OA
BRANCH  12  13
ATOM     13  C   UNL     1       2.051   7.617  19.688  0.00  0.00    +0.000 A 
ATOM     14  C   UNL     1       2.271   7.818  18.317  0.00  0.00    +0.000 A 
ATOM     15  C   UNL     1       1.772   8.946  17.673  0.00  0.00    +0.000 A 
ATOM     16  C   UNL     1       1.050   9.895  18.387  0.00  0.00    +0.000 A 
ATOM     17  C   UNL     1       0.820   9.733  19.758  0.00  0.00    +0.000 A 
ATOM     18  C   UNL     1       0.093  10.705  20.461  0.00  0.00    +0.000 A 
ATOM     19  C   UNL     1      -0.139  10.575  21.829  0.00  0.00    +0.000 A 
ATOM     20  C   UNL     1       0.356   9.469  22.509  0.00  0.00    +0.000 A 
ATOM     21  C   UNL     1       1.077   8.486  21.819  0.00  0.00    +0.000 A 
ATOM     22  C   UNL     1       1.328   8.589  20.432  0.00  0.00    +0.000 A 
ENDBRANCH  12  13
ENDBRANCH   1  12
TORSDOF 5
ENDMDL
MODEL 9
REMARK VINA RESULT:      -6.5      1.930      2.273
REMARK  Name = 
REMARK  5 active torsions:
REMARK  status: ('A' for Active; 'I' for Inactive)
REMARK    1  A    between atoms: O_1  and  C_2
REMARK    2  A    between atoms: C_2  and  C_3
REMARK    3  A    between atoms: C_2  and  C_15
REMARK    4  A    between atoms: C_3  and  O_4
REMARK    5  A    between atoms: O_4  and  C_5
REMARK                            x       y       z     vdW  Elec       q    Type
REMARK                         _______ _______ _______ _____ _____    ______ ____
ROOT
ATOM      1  C   UNL     1       5.129   6.573  17.778  0.00  0.00    +0.000 C 
ENDROOT
BRANCH   1   2
ATOM      2  C   UNL     1       5.971   6.691  16.499  0.00  0.00    +0.000 C 
BRANCH   2   3
ATOM      3  C   UNL     1       6.977   5.502  16.359  0.00  0.00    +0.000 C 
ATOM      4  C   UNL     1       6.318   4.133  16.607  0.00  0.00    +0.000 C 
ATOM      5  C   UNL     1       5.393   3.723  15.465  0.00  0.00    +0.000 C 
ATOM      6  C   UNL     1       6.094   3.825  14.115  0.00  0.00    +0.000 C 
ATOM      7  C   UNL     1       6.878   5.125  13.942  0.00  0.00    +0.000 C 
ATOM      8  N   UNL     1       7.726   5.425  15.091  0.00  0.00    +0.000 NA
ATOM      9  H   UNL     1       8.265   6.271  14.924  0.00  0.00    +0.000 HD
ENDBRANCH   2   3
BRANCH   2  10
ATOM     10  O   UNL     1       5.089   6.695  15.369  0.00  0.00    +0.000 OA
ATOM     11  H   UNL     1       5.394   7.417  14.786  0.00  0.00    +0.000 HD
ENDBRANCH   2  10
ENDBRANCH   1   2
BRANCH   1  12
ATOM     12  O   UNL     1       3.752   6.310  17.451  0.00  0.00    +0.000 OA
BRANCH  12  13
ATOM     13  C   UNL     1       2.927   6.005  18.520  0.00  0.00    +0.000 A 
ATOM     14  C   UNL     1       2.566   6.939  19.502  0.00  0.00    +0.000 A 
ATOM     15  C   UNL     1       1.715   6.585  20.544  0.00  0.00    +0.000 A 
ATOM     16  C   UNL     1       1.214   5.291  20.627  0.00  0.00    +0.000 A 
ATOM     17  C   UNL     1       1.561   4.329  19.671  0.00  0.00    +0.000 A 
ATOM     18  C   UNL     1       1.049   3.028  19.776  0.00  0.00    +0.000 A 
ATOM     19  C   UNL     1       1.389   2.048  18.845  0.00  0.00    +0.000 A 
ATOM     20  C   UNL     1       2.247   2.361  17.798  0.00  0.00    +0.000 A 
ATOM     21  C   UNL     1       2.760   3.659  17.676  0.00  0.00    +0.000 A 
ATOM     22  C   UNL     1       2.434   4.674  18.603  0.00  0.00    +0.000 A 
ENDBRANCH  12  13
ENDBRANCH   1  12
TORSDOF 5
ENDMDL
