MODEL 1
REMARK VINA RESULT:      -7.4      0.000      0.000
REMARK  Name = 
REMARK  11 active torsions:
REMARK  status: ('A' for Active; 'I' for Inactive)
REMARK    1  A    between atoms: C_1  and  C_2
REMARK    2  A    between atoms: C_2  and  C_3
REMARK    3  A    between atoms: C_2  and  O_4
REMARK    4  A    between atoms: O_4  and  C_5
REMARK    5  A    between atoms: C_8  and  C_9
REMARK    6  A    between atoms: C_15  and  C_16
REMARK    7  A    between atoms: C_19  and  O_20
REMARK    8  A    between atoms: O_20  and  C_21
REMARK    9  A    between atoms: C_21  and  C_22
REMARK   10  A    between atoms: C_21  and  C_23
REMARK   11  A    between atoms: C_21  and  C_24
REMARK                            x       y       z     vdW  Elec       q    Type
REMARK                         _______ _______ _______ _____ _____    ______ ____
ROOT
ATOM      1  C   UNL     1       0.974   8.786  20.812  0.00  0.00    +0.000 A 
ATOM      2  C   UNL     1       0.282   8.186  21.950  0.00  0.00    +0.000 A 
ATOM      3  C   UNL     1      -0.452   8.926  22.799  0.00  0.00    +0.000 A 
ATOM      4  C   UNL     1      -0.555  10.332  22.607  0.00  0.00    +0.000 A 
ATOM      5  N   UNL     1      -1.230  11.228  23.286  0.00  0.00    +0.000 NA
ATOM      6  C   UNL     1      -0.963  12.412  22.661  0.00  0.00    +0.000 A 
ATOM      7  C   UNL     1      -0.097  12.268  21.585  0.00  0.00    +0.000 A 
ATOM      8  N   UNL     1       0.135  10.895  21.530  0.00  0.00    +0.000 N 
ATOM      9  C   UNL     1       0.870  10.117  20.630  0.00  0.00    +0.000 A 
ENDROOT
BRANCH   1  13
ATOM     10  C   UNL     1       3.289   6.468  18.061  0.00  0.00    +0.000 A 
ATOM     11  C   UNL     1       2.961   5.954  19.314  0.00  0.00    +0.000 A 
ATOM     12  C   UNL     1       2.206   6.716  20.212  0.00  0.00    +0.000 A 
ATOM     13  C   UNL     1       1.788   8.005  19.870  0.00  0.00    +0.000 A 
ATOM     14  C   UNL     1       2.136   8.530  18.628  0.00  0.00    +0.000 A 
ATOM     15  C   UNL     1       2.887   7.766  17.731  0.00  0.00    +0.000 A 
BRANCH  10  16
ATOM     16  O   UNL     1       3.993   5.817  17.086  0.00  0.00    +0.000 OA
BRANCH  16  18
ATOM     17  C   UNL     1       6.268   6.341  17.574  0.00  0.00    +0.000 C 
ATOM     18  C   UNL     1       5.153   6.449  16.536  0.00  0.00    +0.000 C 
ATOM     19  C   UNL     1       5.561   5.742  15.246  0.00  0.00    +0.000 C 
ENDBRANCH  16  18
ENDBRANCH  10  16
ENDBRANCH   1  13
BRANCH   7  20
ATOM     20  C   UNL     1       0.397  13.308  20.670  0.00  0.00    +0.000 A 
ATOM     21  C   UNL     1       0.051  13.371  19.316  0.00  0.00    +0.000 A 
ATOM     22  C   UNL     1       0.480  14.440  18.517  0.00  0.00    +0.000 A 
ATOM     23  C   UNL     1       1.300  15.438  19.042  0.00  0.00    +0.000 A 
ATOM     24  C   UNL     1       1.771  15.296  20.338  0.00  0.00    +0.000 A 
ATOM     25  C   UNL     1       1.291  14.269  21.156  0.00  0.00    +0.000 A 
BRANCH  23  26
ATOM     26  O   UNL     1       1.583  16.470  18.201  0.00  0.00    +0.000 OA
BRANCH  26  27
ATOM     27  C   UNL     1       0.749  17.646  18.133  0.00  0.00    +0.000 C 
ATOM     28  C   UNL     1       1.162  18.631  19.235  0.00  0.00    +0.000 C 
ATOM     29  C   UNL     1       1.092  18.285  16.771  0.00  0.00    +0.000 C 
ATOM     30  C   UNL     1      -0.770  17.392  18.115  0.00  0.00    +0.000 C 
ENDBRANCH  26  27
ENDBRANCH  23  26
ENDBRANCH   7  20
TORSDOF 6
ENDMDL
MODEL 2
REMARK VINA RESULT:      -7.3      4.225      8.702
REMARK  Name = 
REMARK  11 active torsions:
REMARK  status: ('A' for Active; 'I' for Inactive)
REMARK    1  A    between atoms: C_1  and  C_2
REMARK    2  A    between atoms: C_2  and  C_3
REMARK    3  A    between atoms: C_2  and  O_4
REMARK    4  A    between atoms: O_4  and  C_5
REMARK    5  A    between atoms: C_8  and  C_9
REMARK    6  A    between atoms: C_15  and  C_16
REMARK    7  A    between atoms: C_19  and  O_20
REMARK    8  A    between atoms: O_20  and  C_21
REMARK    9  A    between atoms: C_21  and  C_22
REMARK   10  A    between atoms: C_21  and  C_23
REMARK   11  A    between atoms: C_21  and  C_24
REMARK                            x       y       z     vdW  Elec       q    Type
REMARK                         _______ _______ _______ _____ _____    ______ ____
ROOT
ATOM      1  C   UNL     1      -1.625  10.746  19.104  0.00  0.00    +0.000 A 
ATOM      2  C   UNL     1      -1.971  11.725  20.131  0.00  0.00    +0.000 A 
ATOM      3  C   UNL     1      -1.384  11.717  21.340  0.00  0.00    +0.000 A 
ATOM      4  C   UNL     1      -0.409  10.727  21.648  0.00  0.00    +0.000 A 
ATOM      5  N   UNL     1       0.301  10.553  22.737  0.00  0.00    +0.000 NA
ATOM      6  C   UNL     1       1.069   9.454  22.479  0.00  0.00    +0.000 A 
ATOM      7  C   UNL     1       0.833   8.916  21.221  0.00  0.00    +0.000 A 
ATOM      8  N   UNL     1      -0.108   9.781  20.665  0.00  0.00    +0.000 N 
ATOM      9  C   UNL     1      -0.698   9.813  19.397  0.00  0.00    +0.000 A 
ENDROOT
BRANCH   1  13
ATOM     10  C   UNL     1      -3.477  10.622  15.250  0.00  0.00    +0.000 A 
ATOM     11  C   UNL     1      -2.374   9.817  15.529  0.00  0.00    +0.000 A 
ATOM     12  C   UNL     1      -1.769   9.861  16.789  0.00  0.00    +0.000 A 
ATOM     13  C   UNL     1      -2.253  10.726  17.775  0.00  0.00    +0.000 A 
ATOM     14  C   UNL     1      -3.338  11.551  17.491  0.00  0.00    +0.000 A 
ATOM     15  C   UNL     1      -3.943  11.501  16.232  0.00  0.00    +0.000 A 
BRANCH  10  16
ATOM     16  O   UNL     1      -4.172  10.651  14.073  0.00  0.00    +0.000 OA
BRANCH  16  18
ATOM     17  C   UNL     1      -5.122   9.712  12.097  0.00  0.00    +0.000 C 
ATOM     18  C   UNL     1      -4.064   9.536  13.183  0.00  0.00    +0.000 C 
ATOM     19  C   UNL     1      -2.669   9.507  12.562  0.00  0.00    +0.000 C 
ENDBRANCH  16  18
ENDBRANCH  10  16
ENDBRANCH   1  13
BRANCH   7  20
ATOM     20  C   UNL     1       1.481   7.756  20.591  0.00  0.00    +0.000 A 
ATOM     21  C   UNL     1       2.250   7.841  19.427  0.00  0.00    +0.000 A 
ATOM     22  C   UNL     1       2.919   6.714  18.928  0.00  0.00    +0.000 A 
ATOM     23  C   UNL     1       2.794   5.476  19.555  0.00  0.00    +0.000 A 
ATOM     24  C   UNL     1       1.911   5.355  20.616  0.00  0.00    +0.000 A 
ATOM     25  C   UNL     1       1.296   6.489  21.156  0.00  0.00    +0.000 A 
BRANCH  23  26
ATOM     26  O   UNL     1       3.555   4.474  19.035  0.00  0.00    +0.000 OA
BRANCH  26  27
ATOM     27  C   UNL     1       3.117   3.696  17.900  0.00  0.00    +0.000 C 
ATOM     28  C   UNL     1       4.125   3.852  16.754  0.00  0.00    +0.000 C 
ATOM     29  C   UNL     1       3.176   2.234  18.389  0.00  0.00    +0.000 C 
ATOM     30  C   UNL     1       1.667   3.936  17.442  0.00  0.00    +0.000 C 
ENDBRANCH  26  27
ENDBRANCH  23  26
ENDBRANCH   7  20
TORSDOF 6
ENDMDL
MODEL 3
REMARK VINA RESULT:      -7.3      3.483      8.465
REMARK  Name = 
REMARK  11 active torsions:
REMARK  status: ('A' for Active; 'I' for Inactive)
REMARK    1  A    between atoms: C_1  and  C_2
REMARK    2  A    between atoms: C_2  and  C_3
REMARK    3  A    between atoms: C_2  and  O_4
REMARK    4  A    between atoms: O_4  and  C_5
REMARK    5  A    between atoms: C_8  and  C_9
REMARK    6  A    between atoms: C_15  and  C_16
REMARK    7  A    between atoms: C_19  and  O_20
REMARK    8  A    between atoms: O_20  and  C_21
REMARK    9  A    between atoms: C_21  and  C_22
REMARK   10  A    between atoms: C_21  and  C_23
REMARK   11  A    between atoms: C_21  and  C_24
REMARK                            x       y       z     vdW  Elec       q    Type
REMARK                         _______ _______ _______ _____ _____    ______ ____
ROOT
ATOM      1  C   UNL     1       2.281  13.985  19.015  0.00  0.00    +0.000 A 
ATOM      2  C   UNL     1       1.154  14.892  18.808  0.00  0.00    +0.000 A 
ATOM      3  C   UNL     1      -0.104  14.437  18.683  0.00  0.00    +0.000 A 
ATOM      4  C   UNL     1      -0.361  13.038  18.736  0.00  0.00    +0.000 A 
ATOM      5  N   UNL     1      -1.497  12.386  18.667  0.00  0.00    +0.000 NA
ATOM      6  C   UNL     1      -1.149  11.070  18.770  0.00  0.00    +0.000 A 
ATOM      7  C   UNL     1       0.222  10.884  18.888  0.00  0.00    +0.000 A 
ATOM      8  N   UNL     1       0.730  12.182  18.906  0.00  0.00    +0.000 N 
ATOM      9  C   UNL     1       2.034  12.662  19.069  0.00  0.00    +0.000 A 
ENDROOT
BRANCH   1  13
ATOM     10  C   UNL     1       6.334  15.284  19.441  0.00  0.00    +0.000 A 
ATOM     11  C   UNL     1       5.502  15.192  20.555  0.00  0.00    +0.000 A 
ATOM     12  C   UNL     1       4.177  14.770  20.412  0.00  0.00    +0.000 A 
ATOM     13  C   UNL     1       3.668  14.452  19.149  0.00  0.00    +0.000 A 
ATOM     14  C   UNL     1       4.489  14.567  18.031  0.00  0.00    +0.000 A 
ATOM     15  C   UNL     1       5.815  14.985  18.178  0.00  0.00    +0.000 A 
BRANCH  10  16
ATOM     16  O   UNL     1       7.651  15.654  19.451  0.00  0.00    +0.000 OA
BRANCH  16  18
ATOM     17  C   UNL     1       9.784  15.757  18.390  0.00  0.00    +0.000 C 
ATOM     18  C   UNL     1       8.594  14.861  18.723  0.00  0.00    +0.000 C 
ATOM     19  C   UNL     1       9.044  13.680  19.580  0.00  0.00    +0.000 C 
ENDBRANCH  16  18
ENDBRANCH  10  16
ENDBRANCH   1  13
BRANCH   7  20
ATOM     20  C   UNL     1       0.959   9.620  19.039  0.00  0.00    +0.000 A 
ATOM     21  C   UNL     1       1.618   8.982  17.983  0.00  0.00    +0.000 A 
ATOM     22  C   UNL     1       2.382   7.829  18.210  0.00  0.00    +0.000 A 
ATOM     23  C   UNL     1       2.462   7.266  19.483  0.00  0.00    +0.000 A 
ATOM     24  C   UNL     1       1.686   7.805  20.497  0.00  0.00    +0.000 A 
ATOM     25  C   UNL     1       0.979   8.993  20.290  0.00  0.00    +0.000 A 
BRANCH  23  26
ATOM     26  O   UNL     1       3.299   6.200  19.603  0.00  0.00    +0.000 OA
BRANCH  26  27
ATOM     27  C   UNL     1       2.805   4.844  19.638  0.00  0.00    +0.000 C 
ATOM     28  C   UNL     1       1.813   4.631  18.487  0.00  0.00    +0.000 C 
ATOM     29  C   UNL     1       4.047   3.972  19.361  0.00  0.00    +0.000 C 
ATOM     30  C   UNL     1       2.243   4.370  20.991  0.00  0.00    +0.000 C 
ENDBRANCH  26  27
ENDBRANCH  23  26
ENDBRANCH   7  20
TORSDOF 6
ENDMDL
MODEL 4
REMARK VINA RESULT:      -7.3      3.282      8.694
REMARK  Name = 
REMARK  11 active torsions:
REMARK  status: ('A' for Active; 'I' for Inactive)
REMARK    1  A    between atoms: C_1  and  C_2
REMARK    2  A    between atoms: C_2  and  C_3
REMARK    3  A    between atoms: C_2  and  O_4
REMARK    4  A    between atoms: O_4  and  C_5
REMARK    5  A    between atoms: C_8  and  C_9
REMARK    6  A    between atoms: C_15  and  C_16
REMARK    7  A    between atoms: C_19  and  O_20
REMARK    8  A    between atoms: O_20  and  C_21
REMARK    9  A    between atoms: C_21  and  C_22
REMARK   10  A    between atoms: C_21  and  C_23
REMARK   11  A    between atoms: C_21  and  C_24
REMARK                            x       y       z     vdW  Elec       q    Type
REMARK                         _______ _______ _______ _____ _____    ______ ____
ROOT
ATOM      1  C   UNL     1       2.017  13.675  18.965  0.00  0.00    +0.000 A 
ATOM      2  C   UNL     1       0.777  14.439  18.853  0.00  0.00    +0.000 A 
ATOM      3  C   UNL     1      -0.422  13.834  18.789  0.00  0.00    +0.000 A 
ATOM      4  C   UNL     1      -0.501  12.414  18.815  0.00  0.00    +0.000 A 
ATOM      5  N   UNL     1      -1.550  11.627  18.795  0.00  0.00    +0.000 NA
ATOM      6  C   UNL     1      -1.038  10.362  18.837  0.00  0.00    +0.000 A 
ATOM      7  C   UNL     1       0.350  10.346  18.869  0.00  0.00    +0.000 A 
ATOM      8  N   UNL     1       0.695  11.696  18.895  0.00  0.00    +0.000 N 
ATOM      9  C   UNL     1       1.938  12.330  18.995  0.00  0.00    +0.000 A 
ENDROOT
BRANCH   1  13
ATOM     10  C   UNL     1       5.845  15.576  19.135  0.00  0.00    +0.000 A 
ATOM     11  C   UNL     1       5.241  15.314  17.906  0.00  0.00    +0.000 A 
ATOM     12  C   UNL     1       3.991  14.690  17.854  0.00  0.00    +0.000 A 
ATOM     13  C   UNL     1       3.342  14.307  19.031  0.00  0.00    +0.000 A 
ATOM     14  C   UNL     1       3.954  14.545  20.259  0.00  0.00    +0.000 A 
ATOM     15  C   UNL     1       5.202  15.171  20.308  0.00  0.00    +0.000 A 
BRANCH  10  16
ATOM     16  O   UNL     1       7.046  16.203  19.321  0.00  0.00    +0.000 OA
BRANCH  16  18
ATOM     17  C   UNL     1       9.161  16.985  18.545  0.00  0.00    +0.000 C 
ATOM     18  C   UNL     1       8.146  15.847  18.478  0.00  0.00    +0.000 C 
ATOM     19  C   UNL     1       8.775  14.547  18.974  0.00  0.00    +0.000 C 
ENDBRANCH  16  18
ENDBRANCH  10  16
ENDBRANCH   1  13
BRANCH   7  20
ATOM     20  C   UNL     1       1.244   9.180  18.937  0.00  0.00    +0.000 A 
ATOM     21  C   UNL     1       1.385   8.383  20.078  0.00  0.00    +0.000 A 
ATOM     22  C   UNL     1       2.182   7.231  20.052  0.00  0.00    +0.000 A 
ATOM     23  C   UNL     1       2.890   6.880  18.903  0.00  0.00    +0.000 A 
ATOM     24  C   UNL     1       2.876   7.750  17.823  0.00  0.00    +0.000 A 
ATOM     25  C   UNL     1       2.029   8.862  17.823  0.00  0.00    +0.000 A 
BRANCH  23  26
ATOM     26  O   UNL     1       3.561   5.698  18.963  0.00  0.00    +0.000 OA
BRANCH  26  27
ATOM     27  C   UNL     1       3.144   4.546  18.197  0.00  0.00    +0.000 C 
ATOM     28  C   UNL     1       4.103   4.343  17.017  0.00  0.00    +0.000 C 
ATOM     29  C   UNL     1       3.319   3.356  19.163  0.00  0.00    +0.000 C 
ATOM     30  C   UNL     1       1.667   4.530  17.762  0.00  0.00    +0.000 C 
ENDBRANCH  26  27
ENDBRANCH  23  26
ENDBRANCH   7  20
TORSDOF 6
ENDMDL
MODEL 5
REMARK VINA RESULT:      -7.1      3.279      8.624
REMARK  Name = 
REMARK  11 active torsions:
REMARK  status: ('A' for Active; 'I' for Inactive)
REMARK    1  A    between atoms: C_1  and  C_2
REMARK    2  A    between atoms: C_2  and  C_3
REMARK    3  A    between atoms: C_2  and  O_4
REMARK    4  A    between atoms: O_4  and  C_5
REMARK    5  A    between atoms: C_8  and  C_9
REMARK    6  A    between atoms: C_15  and  C_16
REMARK    7  A    between atoms: C_19  and  O_20
REMARK    8  A    between atoms: O_20  and  C_21
REMARK    9  A    between atoms: C_21  and  C_22
REMARK   10  A    between atoms: C_21  and  C_23
REMARK   11  A    between atoms: C_21  and  C_24
REMARK                            x       y       z     vdW  Elec       q    Type
REMARK                         _______ _______ _______ _____ _____    ______ ____
ROOT
ATOM      1  C   UNL     1       2.025  13.759  18.988  0.00  0.00    +0.000 A 
ATOM      2  C   UNL     1       0.808  14.546  18.802  0.00  0.00    +0.000 A 
ATOM      3  C   UNL     1      -0.396  13.963  18.674  0.00  0.00    +0.000 A 
ATOM      4  C   UNL     1      -0.504  12.545  18.703  0.00  0.00    +0.000 A 
ATOM      5  N   UNL     1      -1.566  11.778  18.627  0.00  0.00    +0.000 NA
ATOM      6  C   UNL     1      -1.081  10.504  18.705  0.00  0.00    +0.000 A 
ATOM      7  C   UNL     1       0.303  10.461  18.815  0.00  0.00    +0.000 A 
ATOM      8  N   UNL     1       0.671  11.805  18.854  0.00  0.00    +0.000 N 
ATOM      9  C   UNL     1       1.919  12.416  19.020  0.00  0.00    +0.000 A 
ENDROOT
BRANCH   1  13
ATOM     10  C   UNL     1       5.924  15.466  19.414  0.00  0.00    +0.000 A 
ATOM     11  C   UNL     1       5.165  15.152  20.540  0.00  0.00    +0.000 A 
ATOM     12  C   UNL     1       3.889  14.596  20.397  0.00  0.00    +0.000 A 
ATOM     13  C   UNL     1       3.356  14.366  19.125  0.00  0.00    +0.000 A 
ATOM     14  C   UNL     1       4.102  14.703  17.999  0.00  0.00    +0.000 A 
ATOM     15  C   UNL     1       5.378  15.255  18.145  0.00  0.00    +0.000 A 
BRANCH  10  16
ATOM     16  O   UNL     1       7.189  15.984  19.419  0.00  0.00    +0.000 OA
BRANCH  16  18
ATOM     17  C   UNL     1       8.764  14.226  19.073  0.00  0.00    +0.000 C 
ATOM     18  C   UNL     1       8.230  15.250  20.072  0.00  0.00    +0.000 C 
ATOM     19  C   UNL     1       9.344  16.205  20.496  0.00  0.00    +0.000 C 
ENDBRANCH  16  18
ENDBRANCH  10  16
ENDBRANCH   1  13
BRANCH   7  20
ATOM     20  C   UNL     1       1.169   9.279  18.940  0.00  0.00    +0.000 A 
ATOM     21  C   UNL     1       1.298   8.540  20.120  0.00  0.00    +0.000 A 
ATOM     22  C   UNL     1       2.067   7.369  20.150  0.00  0.00    +0.000 A 
ATOM     23  C   UNL     1       2.758   6.941  19.017  0.00  0.00    +0.000 A 
ATOM     24  C   UNL     1       2.758   7.753  17.893  0.00  0.00    +0.000 A 
ATOM     25  C   UNL     1       1.939   8.884  17.840  0.00  0.00    +0.000 A 
BRANCH  23  26
ATOM     26  O   UNL     1       3.401   5.747  19.136  0.00  0.00    +0.000 OA
BRANCH  26  27
ATOM     27  C   UNL     1       3.155   4.657  18.223  0.00  0.00    +0.000 C 
ATOM     28  C   UNL     1       4.081   4.789  17.007  0.00  0.00    +0.000 C 
ATOM     29  C   UNL     1       3.576   3.395  19.005  0.00  0.00    +0.000 C 
ATOM     30  C   UNL     1       1.685   4.438  17.819  0.00  0.00    +0.000 C 
ENDBRANCH  26  27
ENDBRANCH  23  26
ENDBRANCH   7  20
TORSDOF 6
ENDMDL
MODEL 6
REMARK VINA RESULT:      -7.1      3.374      8.661
REMARK  Name = 
REMARK  11 active torsions:
REMARK  status: ('A' for Active; 'I' for Inactive)
REMARK    1  A    between atoms: C_1  and  C_2
REMARK    2  A    between atoms: C_2  and  C_3
REMARK    3  A    between atoms: C_2  and  O_4
REMARK    4  A    between atoms: O_4  and  C_5
REMARK    5  A    between atoms: C_8  and  C_9
REMARK    6  A    between atoms: C_15  and  C_16
REMARK    7  A    between atoms: C_19  and  O_20
REMARK    8  A    between atoms: O_20  and  C_21
REMARK    9  A    between atoms: C_21  and  C_22
REMARK   10  A    between atoms: C_21  and  C_23
REMARK   11  A    between atoms: C_21  and  C_24
REMARK                            x       y       z     vdW  Elec       q    Type
REMARK                         _______ _______ _______ _____ _____    ______ ____
ROOT
ATOM      1  C   UNL     1       2.133  13.860  18.991  0.00  0.00    +0.000 A 
ATOM      2  C   UNL     1       0.961  14.696  18.743  0.00  0.00    +0.000 A 
ATOM      3  C   UNL     1      -0.265  14.165  18.588  0.00  0.00    +0.000 A 
ATOM      4  C   UNL     1      -0.439  12.754  18.650  0.00  0.00    +0.000 A 
ATOM      5  N   UNL     1      -1.532  12.035  18.558  0.00  0.00    +0.000 NA
ATOM      6  C   UNL     1      -1.109  10.743  18.686  0.00  0.00    +0.000 A 
ATOM      7  C   UNL     1       0.266  10.640  18.845  0.00  0.00    +0.000 A 
ATOM      8  N   UNL     1       0.695  11.966  18.861  0.00  0.00    +0.000 N 
ATOM      9  C   UNL     1       1.963  12.525  19.055  0.00  0.00    +0.000 A 
ENDROOT
BRANCH   1  13
ATOM     10  C   UNL     1       6.091  15.399  19.505  0.00  0.00    +0.000 A 
ATOM     11  C   UNL     1       5.295  15.113  20.614  0.00  0.00    +0.000 A 
ATOM     12  C   UNL     1       4.001  14.613  20.442  0.00  0.00    +0.000 A 
ATOM     13  C   UNL     1       3.485  14.410  19.159  0.00  0.00    +0.000 A 
ATOM     14  C   UNL     1       4.268  14.718  18.050  0.00  0.00    +0.000 A 
ATOM     15  C   UNL     1       5.563  15.214  18.224  0.00  0.00    +0.000 A 
BRANCH  10  16
ATOM     16  O   UNL     1       7.377  15.862  19.539  0.00  0.00    +0.000 OA
BRANCH  16  18
ATOM     17  C   UNL     1       8.517  17.593  18.358  0.00  0.00    +0.000 C 
ATOM     18  C   UNL     1       8.039  16.144  18.302  0.00  0.00    +0.000 C 
ATOM     19  C   UNL     1       9.228  15.201  18.129  0.00  0.00    +0.000 C 
ENDBRANCH  16  18
ENDBRANCH  10  16
ENDBRANCH   1  13
BRANCH   7  20
ATOM     20  C   UNL     1       1.072   9.424  19.031  0.00  0.00    +0.000 A 
ATOM     21  C   UNL     1       1.210   8.772  20.260  0.00  0.00    +0.000 A 
ATOM     22  C   UNL     1       1.916   7.565  20.354  0.00  0.00    +0.000 A 
ATOM     23  C   UNL     1       2.535   7.013  19.234  0.00  0.00    +0.000 A 
ATOM     24  C   UNL     1       2.532   7.734  18.050  0.00  0.00    +0.000 A 
ATOM     25  C   UNL     1       1.773   8.902  17.937  0.00  0.00    +0.000 A 
BRANCH  23  26
ATOM     26  O   UNL     1       3.117   5.797  19.423  0.00  0.00    +0.000 OA
BRANCH  26  27
ATOM     27  C   UNL     1       2.371   4.567  19.291  0.00  0.00    +0.000 C 
ATOM     28  C   UNL     1       1.218   4.558  20.303  0.00  0.00    +0.000 C 
ATOM     29  C   UNL     1       1.761   4.636  17.875  0.00  0.00    +0.000 C 
ATOM     30  C   UNL     1       3.202   3.271  19.336  0.00  0.00    +0.000 C 
ENDBRANCH  26  27
ENDBRANCH  23  26
ENDBRANCH   7  20
TORSDOF 6
ENDMDL
MODEL 7
REMARK VINA RESULT:      -7.1      1.212      2.063
REMARK  Name = 
REMARK  11 active torsions:
REMARK  status: ('A' for Active; 'I' for Inactive)
REMARK    1  A    between atoms: C_1  and  C_2
REMARK    2  A    between atoms: C_2  and  C_3
REMARK    3  A    between atoms: C_2  and  O_4
REMARK    4  A    between atoms: O_4  and  C_5
REMARK    5  A    between atoms: C_8  and  C_9
REMARK    6  A    between atoms: C_15  and  C_16
REMARK    7  A    between atoms: C_19  and  O_20
REMARK    8  A    between atoms: O_20  and  C_21
REMARK    9  A    between atoms: C_21  and  C_22
REMARK   10  A    between atoms: C_21  and  C_23
REMARK   11  A    between atoms: C_21  and  C_24
REMARK                            x       y       z     vdW  Elec       q    Type
REMARK                         _______ _______ _______ _____ _____    ______ ____
ROOT
ATOM      1  C   UNL     1       0.710   9.217  20.813  0.00  0.00    +0.000 A 
ATOM      2  C   UNL     1      -0.057   8.520  21.842  0.00  0.00    +0.000 A 
ATOM      3  C   UNL     1      -0.799   9.187  22.743  0.00  0.00    +0.000 A 
ATOM      4  C   UNL     1      -0.838  10.609  22.716  0.00  0.00    +0.000 A 
ATOM      5  N   UNL     1      -1.507  11.449  23.468  0.00  0.00    +0.000 NA
ATOM      6  C   UNL     1      -1.165  12.685  22.999  0.00  0.00    +0.000 A 
ATOM      7  C   UNL     1      -0.257  12.629  21.950  0.00  0.00    +0.000 A 
ATOM      8  N   UNL     1      -0.078  11.263  21.742  0.00  0.00    +0.000 N 
ATOM      9  C   UNL     1       0.667  10.563  20.786  0.00  0.00    +0.000 A 
ENDROOT
BRANCH   1  13
ATOM     10  C   UNL     1       3.160   7.227  17.926  0.00  0.00    +0.000 A 
ATOM     11  C   UNL     1       2.589   8.464  17.634  0.00  0.00    +0.000 A 
ATOM     12  C   UNL     1       1.786   9.111  18.578  0.00  0.00    +0.000 A 
ATOM     13  C   UNL     1       1.534   8.517  19.818  0.00  0.00    +0.000 A 
ATOM     14  C   UNL     1       2.083   7.269  20.104  0.00  0.00    +0.000 A 
ATOM     15  C   UNL     1       2.887   6.626  19.159  0.00  0.00    +0.000 A 
BRANCH  10  16
ATOM     16  O   UNL     1       3.983   6.508  17.104  0.00  0.00    +0.000 OA
BRANCH  16  18
ATOM     17  C   UNL     1       5.285   4.511  17.043  0.00  0.00    +0.000 C 
ATOM     18  C   UNL     1       5.152   5.900  17.661  0.00  0.00    +0.000 C 
ATOM     19  C   UNL     1       6.380   6.746  17.329  0.00  0.00    +0.000 C 
ENDBRANCH  16  18
ENDBRANCH  10  16
ENDBRANCH   1  13
BRANCH   7  20
ATOM     20  C   UNL     1       0.319  13.746  21.186  0.00  0.00    +0.000 A 
ATOM     21  C   UNL     1       1.385  14.526  21.647  0.00  0.00    +0.000 A 
ATOM     22  C   UNL     1       1.950  15.516  20.832  0.00  0.00    +0.000 A 
ATOM     23  C   UNL     1       1.433  15.777  19.564  0.00  0.00    +0.000 A 
ATOM     24  C   UNL     1       0.283  15.114  19.167  0.00  0.00    +0.000 A 
ATOM     25  C   UNL     1      -0.242  14.080  19.949  0.00  0.00    +0.000 A 
BRANCH  23  26
ATOM     26  O   UNL     1       2.115  16.698  18.829  0.00  0.00    +0.000 OA
BRANCH  26  27
ATOM     27  C   UNL     1       3.155  16.314  17.904  0.00  0.00    +0.000 C 
ATOM     28  C   UNL     1       2.958  17.056  16.576  0.00  0.00    +0.000 C 
ATOM     29  C   UNL     1       4.457  16.834  18.550  0.00  0.00    +0.000 C 
ATOM     30  C   UNL     1       3.351  14.800  17.705  0.00  0.00    +0.000 C 
ENDBRANCH  26  27
ENDBRANCH  23  26
ENDBRANCH   7  20
TORSDOF 6
ENDMDL
MODEL 8
REMARK VINA RESULT:      -7.0      3.237      4.367
REMARK  Name = 
REMARK  11 active torsions:
REMARK  status: ('A' for Active; 'I' for Inactive)
REMARK    1  A    between atoms: C_1  and  C_2
REMARK    2  A    between atoms: C_2  and  C_3
REMARK    3  A    between atoms: C_2  and  O_4
REMARK    4  A    between atoms: O_4  and  C_5
REMARK    5  A    between atoms: C_8  and  C_9
REMARK    6  A    between atoms: C_15  and  C_16
REMARK    7  A    between atoms: C_19  and  O_20
REMARK    8  A    between atoms: O_20  and  C_21
REMARK    9  A    between atoms: C_21  and  C_22
REMARK   10  A    between atoms: C_21  and  C_23
REMARK   11  A    between atoms: C_21  and  C_24
REMARK                            x       y       z     vdW  Elec       q    Type
REMARK                         _______ _______ _______ _____ _____    ______ ____
ROOT
ATOM      1  C   UNL     1       0.717  10.419  19.303  0.00  0.00    +0.000 A 
ATOM      2  C   UNL     1      -0.708  10.496  19.612  0.00  0.00    +0.000 A 
ATOM      3  C   UNL     1      -1.331  11.674  19.786  0.00  0.00    +0.000 A 
ATOM      4  C   UNL     1      -0.594  12.887  19.686  0.00  0.00    +0.000 A 
ATOM      5  N   UNL     1      -0.997  14.131  19.788  0.00  0.00    +0.000 NA
ATOM      6  C   UNL     1       0.131  14.879  19.608  0.00  0.00    +0.000 A 
ATOM      7  C   UNL     1       1.264  14.102  19.406  0.00  0.00    +0.000 A 
ATOM      8  N   UNL     1       0.775  12.797  19.417  0.00  0.00    +0.000 N 
ATOM      9  C   UNL     1       1.412  11.570  19.204  0.00  0.00    +0.000 A 
ENDROOT
BRANCH   1  13
ATOM     10  C   UNL     1       2.843   6.750  18.747  0.00  0.00    +0.000 A 
ATOM     11  C   UNL     1       2.767   7.684  17.716  0.00  0.00    +0.000 A 
ATOM     12  C   UNL     1       2.069   8.881  17.900  0.00  0.00    +0.000 A 
ATOM     13  C   UNL     1       1.426   9.147  19.113  0.00  0.00    +0.000 A 
ATOM     14  C   UNL     1       1.479   8.204  20.136  0.00  0.00    +0.000 A 
ATOM     15  C   UNL     1       2.181   7.010  19.950  0.00  0.00    +0.000 A 
BRANCH  10  16
ATOM     16  O   UNL     1       3.515   5.560  18.704  0.00  0.00    +0.000 OA
BRANCH  16  18
ATOM     17  C   UNL     1       2.017   3.987  17.718  0.00  0.00    +0.000 C 
ATOM     18  C   UNL     1       2.797   4.353  18.979  0.00  0.00    +0.000 C 
ATOM     19  C   UNL     1       3.780   3.239  19.334  0.00  0.00    +0.000 C 
ENDBRANCH  16  18
ENDBRANCH  10  16
ENDBRANCH   1  13
BRANCH   7  20
ATOM     20  C   UNL     1       2.642  14.552  19.159  0.00  0.00    +0.000 A 
ATOM     21  C   UNL     1       3.134  14.867  17.888  0.00  0.00    +0.000 A 
ATOM     22  C   UNL     1       4.428  15.379  17.729  0.00  0.00    +0.000 A 
ATOM     23  C   UNL     1       5.271  15.541  18.828  0.00  0.00    +0.000 A 
ATOM     24  C   UNL     1       4.843  15.086  20.065  0.00  0.00    +0.000 A 
ATOM     25  C   UNL     1       3.530  14.638  20.237  0.00  0.00    +0.000 A 
BRANCH  23  26
ATOM     26  O   UNL     1       6.471  16.127  18.567  0.00  0.00    +0.000 OA
BRANCH  26  27
ATOM     27  C   UNL     1       7.707  15.381  18.614  0.00  0.00    +0.000 C 
ATOM     28  C   UNL     1       7.545  14.072  17.832  0.00  0.00    +0.000 C 
ATOM     29  C   UNL     1       8.720  16.265  17.856  0.00  0.00    +0.000 C 
ATOM     30  C   UNL     1       8.302  15.157  20.017  0.00  0.00    +0.000 C 
ENDBRANCH  26  27
ENDBRANCH  23  26
ENDBRANCH   7  20
TORSDOF 6
ENDMDL
MODEL 9
REMARK VINA RESULT:      -7.0      3.476      4.678
REMARK  Name = 
REMARK  11 active torsions:
REMARK  status: ('A' for Active; 'I' for Inactive)
REMARK    1  A    between atoms: C_1  and  C_2
REMARK    2  A    between atoms: C_2  and  C_3
REMARK    3  A    between atoms: C_2  and  O_4
REMARK    4  A    between atoms: O_4  and  C_5
REMARK    5  A    between atoms: C_8  and  C_9
REMARK    6  A    between atoms: C_15  and  C_16
REMARK    7  A    between atoms: C_19  and  O_20
REMARK    8  A    between atoms: O_20  and  C_21
REMARK    9  A    between atoms: C_21  and  C_22
REMARK   10  A    between atoms: C_21  and  C_23
REMARK   11  A    between atoms: C_21  and  C_24
REMARK                            x       y       z     vdW  Elec       q    Type
REMARK                         _______ _______ _______ _____ _____    ______ ____
ROOT
ATOM      1  C   UNL     1       0.813  10.700  18.852  0.00  0.00    +0.000 A 
ATOM      2  C   UNL     1      -0.634  10.864  18.745  0.00  0.00    +0.000 A 
ATOM      3  C   UNL     1      -1.207  12.080  18.716  0.00  0.00    +0.000 A 
ATOM      4  C   UNL     1      -0.397  13.247  18.805  0.00  0.00    +0.000 A 
ATOM      5  N   UNL     1      -0.736  14.513  18.767  0.00  0.00    +0.000 NA
ATOM      6  C   UNL     1       0.441  15.193  18.898  0.00  0.00    +0.000 A 
ATOM      7  C   UNL     1       1.535  14.349  19.037  0.00  0.00    +0.000 A 
ATOM      8  N   UNL     1       0.983  13.074  18.934  0.00  0.00    +0.000 N 
ATOM      9  C   UNL     1       1.577  11.807  18.931  0.00  0.00    +0.000 A 
ENDROOT
BRANCH   1  13
ATOM     10  C   UNL     1       2.654   6.841  18.970  0.00  0.00    +0.000 A 
ATOM     11  C   UNL     1       1.973   7.332  20.083  0.00  0.00    +0.000 A 
ATOM     12  C   UNL     1       1.374   8.595  20.042  0.00  0.00    +0.000 A 
ATOM     13  C   UNL     1       1.468   9.385  18.892  0.00  0.00    +0.000 A 
ATOM     14  C   UNL     1       2.170   8.908  17.789  0.00  0.00    +0.000 A 
ATOM     15  C   UNL     1       2.764   7.644  17.831  0.00  0.00    +0.000 A 
BRANCH  10  16
ATOM     16  O   UNL     1       3.255   5.617  18.874  0.00  0.00    +0.000 OA
BRANCH  16  18
ATOM     17  C   UNL     1       4.028   3.718  17.655  0.00  0.00    +0.000 C 
ATOM     18  C   UNL     1       2.936   4.780  17.757  0.00  0.00    +0.000 C 
ATOM     19  C   UNL     1       1.577   4.121  17.980  0.00  0.00    +0.000 C 
ENDBRANCH  16  18
ENDBRANCH  10  16
ENDBRANCH   1  13
BRANCH   7  20
ATOM     20  C   UNL     1       2.953  14.715  19.180  0.00  0.00    +0.000 A 
ATOM     21  C   UNL     1       3.676  14.548  20.365  0.00  0.00    +0.000 A 
ATOM     22  C   UNL     1       5.048  14.828  20.412  0.00  0.00    +0.000 A 
ATOM     23  C   UNL     1       5.712  15.324  19.291  0.00  0.00    +0.000 A 
ATOM     24  C   UNL     1       4.969  15.638  18.163  0.00  0.00    +0.000 A 
ATOM     25  C   UNL     1       3.615  15.296  18.093  0.00  0.00    +0.000 A 
BRANCH  23  26
ATOM     26  O   UNL     1       7.058  15.478  19.424  0.00  0.00    +0.000 OA
BRANCH  26  27
ATOM     27  C   UNL     1       7.990  14.820  18.539  0.00  0.00    +0.000 C 
ATOM     28  C   UNL     1       8.772  15.874  17.744  0.00  0.00    +0.000 C 
ATOM     29  C   UNL     1       8.980  14.106  19.483  0.00  0.00    +0.000 C 
ATOM     30  C   UNL     1       7.396  13.724  17.634  0.00  0.00    +0.000 C 
ENDBRANCH  26  27
ENDBRANCH  23  26
ENDBRANCH   7  20
TORSDOF 6
ENDMDL
