MODEL 1
REMARK VINA RESULT:      -6.5      0.000      0.000
REMARK  Name = 
REMARK  4 active torsions:
REMARK  status: ('A' for Active; 'I' for Inactive)
REMARK    1  A    between atoms: C_1  and  C_2
REMARK    2  A    between atoms: N_4  and  C_5
REMARK    3  A    between atoms: C_11  and  C_12
REMARK    4  A    between atoms: C_12  and  O_14
REMARK                            x       y       z     vdW  Elec       q    Type
REMARK                         _______ _______ _______ _____ _____    ______ ____
ROOT
ATOM      1  C   UNL     1       5.416   6.263  17.142  0.00  0.00    +0.000 A 
ATOM      2  C   UNL     1       4.116   6.415  17.641  0.00  0.00    +0.000 A 
ATOM      3  C   UNL     1       3.230   5.337  17.702  0.00  0.00    +0.000 A 
ATOM      4  C   UNL     1       3.639   4.083  17.266  0.00  0.00    +0.000 A 
ATOM      5 CL   UNL     1       2.565   2.745  17.383  0.00  0.00    +0.000 Cl
ATOM      6  C   UNL     1       4.910   3.905  16.731  0.00  0.00    +0.000 A 
ATOM      7  C   UNL     1       5.790   4.999  16.630  0.00  0.00    +0.000 A 
ENDROOT
BRANCH   1  11
ATOM      8  C   UNL     1       8.240   8.723  17.705  0.00  0.00    +0.000 C 
ATOM      9  C   UNL     1       7.479   7.443  17.931  0.00  0.00    +0.000 C 
ATOM     10  O   UNL     1       7.886   6.613  18.738  0.00  0.00    +0.000 OA
ATOM     11  N   UNL     1       6.342   7.341  17.147  0.00  0.00    +0.000 N 
ATOM     12  H   UNL     1       6.271   7.993  16.362  0.00  0.00    +0.000 HD
ENDBRANCH   1  11
BRANCH   7  13
ATOM     13  C   UNL     1       7.132   4.795  16.028  0.00  0.00    +0.000 C 
ATOM     14  O   UNL     1       7.404   5.157  14.893  0.00  0.00    +0.000 OA
BRANCH  13  15
ATOM     15  O   UNL     1       7.996   4.107  16.800  0.00  0.00    +0.000 OA
ATOM     16  H   UNL     1       8.407   4.600  17.536  0.00  0.00    +0.000 HD
ENDBRANCH  13  15
ENDBRANCH   7  13
TORSDOF 3
ENDMDL
MODEL 2
REMARK VINA RESULT:      -6.1      2.363      3.436
REMARK  Name = 
REMARK  4 active torsions:
REMARK  status: ('A' for Active; 'I' for Inactive)
REMARK    1  A    between atoms: C_1  and  C_2
REMARK    2  A    between atoms: N_4  and  C_5
REMARK    3  A    between atoms: C_11  and  C_12
REMARK    4  A    between atoms: C_12  and  O_14
REMARK                            x       y       z     vdW  Elec       q    Type
REMARK                         _______ _______ _______ _____ _____    ______ ____
ROOT
ATOM      1  C   UNL     1       4.657   4.455  17.413  0.00  0.00    +0.000 A 
ATOM      2  C   UNL     1       3.351   3.977  17.250  0.00  0.00    +0.000 A 
ATOM      3  C   UNL     1       2.377   4.170  18.232  0.00  0.00    +0.000 A 
ATOM      4  C   UNL     1       2.700   4.855  19.397  0.00  0.00    +0.000 A 
ATOM      5 CL   UNL     1       1.490   5.133  20.588  0.00  0.00    +0.000 Cl
ATOM      6  C   UNL     1       3.996   5.312  19.608  0.00  0.00    +0.000 A 
ATOM      7  C   UNL     1       4.989   5.081  18.637  0.00  0.00    +0.000 A 
ENDROOT
BRANCH   1  11
ATOM      8  C   UNL     1       6.976   4.792  14.438  0.00  0.00    +0.000 C 
ATOM      9  C   UNL     1       5.892   5.242  15.381  0.00  0.00    +0.000 C 
ATOM     10  O   UNL     1       5.344   6.328  15.224  0.00  0.00    +0.000 OA
ATOM     11  N   UNL     1       5.629   4.324  16.384  0.00  0.00    +0.000 N 
ATOM     12  H   UNL     1       6.326   3.588  16.521  0.00  0.00    +0.000 HD
ENDBRANCH   1  11
BRANCH   7  13
ATOM     13  C   UNL     1       6.375   5.549  18.894  0.00  0.00    +0.000 C 
ATOM     14  O   UNL     1       7.033   5.163  19.849  0.00  0.00    +0.000 OA
BRANCH  13  15
ATOM     15  O   UNL     1       6.816   6.495  18.040  0.00  0.00    +0.000 OA
ATOM     16  H   UNL     1       7.119   6.182  17.166  0.00  0.00    +0.000 HD
ENDBRANCH  13  15
ENDBRANCH   7  13
TORSDOF 3
ENDMDL
MODEL 3
REMARK VINA RESULT:      -6.1      2.297      3.311
REMARK  Name = 
REMARK  4 active torsions:
REMARK  status: ('A' for Active; 'I' for Inactive)
REMARK    1  A    between atoms: C_1  and  C_2
REMARK    2  A    between atoms: N_4  and  C_5
REMARK    3  A    between atoms: C_11  and  C_12
REMARK    4  A    between atoms: C_12  and  O_14
REMARK                            x       y       z     vdW  Elec       q    Type
REMARK                         _______ _______ _______ _____ _____    ______ ____
ROOT
ATOM      1  C   UNL     1       4.927   4.090  17.049  0.00  0.00    +0.000 A 
ATOM      2  C   UNL     1       3.588   3.690  17.138  0.00  0.00    +0.000 A 
ATOM      3  C   UNL     1       2.840   3.904  18.298  0.00  0.00    +0.000 A 
ATOM      4  C   UNL     1       3.426   4.531  19.390  0.00  0.00    +0.000 A 
ATOM      5 CL   UNL     1       2.493   4.836  20.803  0.00  0.00    +0.000 Cl
ATOM      6  C   UNL     1       4.764   4.908  19.350  0.00  0.00    +0.000 A 
ATOM      7  C   UNL     1       5.531   4.655  18.197  0.00  0.00    +0.000 A 
ENDROOT
BRANCH   1  11
ATOM      8  C   UNL     1       6.733   4.437  13.739  0.00  0.00    +0.000 C 
ATOM      9  C   UNL     1       5.930   4.930  14.914  0.00  0.00    +0.000 C 
ATOM     10  O   UNL     1       5.584   6.104  14.981  0.00  0.00    +0.000 OA
ATOM     11  N   UNL     1       5.668   3.939  15.846  0.00  0.00    +0.000 N 
ATOM     12  H   UNL     1       6.222   3.084  15.768  0.00  0.00    +0.000 HD
ENDBRANCH   1  11
BRANCH   7  13
ATOM     13  C   UNL     1       6.965   5.037  18.184  0.00  0.00    +0.000 C 
ATOM     14  O   UNL     1       7.340   6.188  18.355  0.00  0.00    +0.000 OA
BRANCH  13  15
ATOM     15  O   UNL     1       7.812   4.032  17.885  0.00  0.00    +0.000 OA
ATOM     16  H   UNL     1       7.477   3.126  18.029  0.00  0.00    +0.000 HD
ENDBRANCH  13  15
ENDBRANCH   7  13
TORSDOF 3
ENDMDL
MODEL 4
REMARK VINA RESULT:      -6.1      4.134      5.323
REMARK  Name = 
REMARK  4 active torsions:
REMARK  status: ('A' for Active; 'I' for Inactive)
REMARK    1  A    between atoms: C_1  and  C_2
REMARK    2  A    between atoms: N_4  and  C_5
REMARK    3  A    between atoms: C_11  and  C_12
REMARK    4  A    between atoms: C_12  and  O_14
REMARK                            x       y       z     vdW  Elec       q    Type
REMARK                         _______ _______ _______ _____ _____    ______ ____
ROOT
ATOM      1  C   UNL     1       3.741   4.141  19.204  0.00  0.00    +0.000 A 
ATOM      2  C   UNL     1       4.305   5.420  19.294  0.00  0.00    +0.000 A 
ATOM      3  C   UNL     1       4.795   6.080  18.166  0.00  0.00    +0.000 A 
ATOM      4  C   UNL     1       4.722   5.466  16.922  0.00  0.00    +0.000 A 
ATOM      5 CL   UNL     1       5.283   6.297  15.524  0.00  0.00    +0.000 Cl
ATOM      6  C   UNL     1       4.202   4.183  16.801  0.00  0.00    +0.000 A 
ATOM      7  C   UNL     1       3.746   3.499  17.943  0.00  0.00    +0.000 A 
ENDROOT
BRANCH   1  11
ATOM      8  C   UNL     1       1.571   2.729  21.967  0.00  0.00    +0.000 C 
ATOM      9  C   UNL     1       1.838   3.493  20.697  0.00  0.00    +0.000 C 
ATOM     10  O   UNL     1       0.918   4.026  20.088  0.00  0.00    +0.000 OA
ATOM     11  N   UNL     1       3.176   3.498  20.338  0.00  0.00    +0.000 N 
ATOM     12  H   UNL     1       3.775   2.816  20.809  0.00  0.00    +0.000 HD
ENDBRANCH   1  11
BRANCH   7  13
ATOM     13  C   UNL     1       3.222   2.117  17.799  0.00  0.00    +0.000 C 
ATOM     14  O   UNL     1       2.115   1.879  17.340  0.00  0.00    +0.000 OA
BRANCH  13  15
ATOM     15  O   UNL     1       4.029   1.156  18.291  0.00  0.00    +0.000 OA
ATOM     16  H   UNL     1       4.170   0.375  17.721  0.00  0.00    +0.000 HD
ENDBRANCH  13  15
ENDBRANCH   7  13
TORSDOF 3
ENDMDL
MODEL 5
REMARK VINA RESULT:      -6.0      2.551      3.659
REMARK  Name = 
REMARK  4 active torsions:
REMARK  status: ('A' for Active; 'I' for Inactive)
REMARK    1  A    between atoms: C_1  and  C_2
REMARK    2  A    between atoms: N_4  and  C_5
REMARK    3  A    between atoms: C_11  and  C_12
REMARK    4  A    between atoms: C_12  and  O_14
REMARK                            x       y       z     vdW  Elec       q    Type
REMARK                         _______ _______ _______ _____ _____    ______ ____
ROOT
ATOM      1  C   UNL     1       4.209   4.702  18.033  0.00  0.00    +0.000 A 
ATOM      2  C   UNL     1       4.249   3.314  17.854  0.00  0.00    +0.000 A 
ATOM      3  C   UNL     1       3.119   2.520  18.061  0.00  0.00    +0.000 A 
ATOM      4  C   UNL     1       1.922   3.113  18.445  0.00  0.00    +0.000 A 
ATOM      5 CL   UNL     1       0.518   2.142  18.655  0.00  0.00    +0.000 Cl
ATOM      6  C   UNL     1       1.855   4.483  18.667  0.00  0.00    +0.000 A 
ATOM      7  C   UNL     1       3.004   5.279  18.500  0.00  0.00    +0.000 A 
ENDROOT
BRANCH   1  11
ATOM      8  C   UNL     1       7.452   6.656  17.989  0.00  0.00    +0.000 C 
ATOM      9  C   UNL     1       6.433   5.716  18.577  0.00  0.00    +0.000 C 
ATOM     10  O   UNL     1       6.620   5.205  19.676  0.00  0.00    +0.000 OA
ATOM     11  N   UNL     1       5.337   5.519  17.753  0.00  0.00    +0.000 N 
ATOM     12  H   UNL     1       5.440   5.819  16.781  0.00  0.00    +0.000 HD
ENDBRANCH   1  11
BRANCH   7  13
ATOM     13  C   UNL     1       2.921   6.736  18.770  0.00  0.00    +0.000 C 
ATOM     14  O   UNL     1       3.219   7.578  17.936  0.00  0.00    +0.000 OA
BRANCH  13  15
ATOM     15  O   UNL     1       2.572   7.055  20.033  0.00  0.00    +0.000 OA
ATOM     16  H   UNL     1       1.628   6.950  20.261  0.00  0.00    +0.000 HD
ENDBRANCH  13  15
ENDBRANCH   7  13
TORSDOF 3
ENDMDL
MODEL 6
REMARK VINA RESULT:      -6.0      3.977      5.132
REMARK  Name = 
REMARK  4 active torsions:
REMARK  status: ('A' for Active; 'I' for Inactive)
REMARK    1  A    between atoms: C_1  and  C_2
REMARK    2  A    between atoms: N_4  and  C_5
REMARK    3  A    between atoms: C_11  and  C_12
REMARK    4  A    between atoms: C_12  and  O_14
REMARK                            x       y       z     vdW  Elec       q    Type
REMARK                         _______ _______ _______ _____ _____    ______ ____
ROOT
ATOM      1  C   UNL     1       4.177   4.257  18.871  0.00  0.00    +0.000 A 
ATOM      2  C   UNL     1       5.453   4.807  19.047  0.00  0.00    +0.000 A 
ATOM      3  C   UNL     1       6.336   4.954  17.975  0.00  0.00    +0.000 A 
ATOM      4  C   UNL     1       5.948   4.553  16.702  0.00  0.00    +0.000 A 
ATOM      5 CL   UNL     1       7.017   4.775  15.374  0.00  0.00    +0.000 Cl
ATOM      6  C   UNL     1       4.703   3.970  16.498  0.00  0.00    +0.000 A 
ATOM      7  C   UNL     1       3.827   3.784  17.585  0.00  0.00    +0.000 A 
ENDROOT
BRANCH   1  11
ATOM      8  C   UNL     1       2.024   3.341  21.849  0.00  0.00    +0.000 C 
ATOM      9  C   UNL     1       3.113   3.120  20.832  0.00  0.00    +0.000 C 
ATOM     10  O   UNL     1       3.779   2.090  20.849  0.00  0.00    +0.000 OA
ATOM     11  N   UNL     1       3.251   4.175  19.946  0.00  0.00    +0.000 N 
ATOM     12  H   UNL     1       2.793   5.051  20.208  0.00  0.00    +0.000 HD
ENDBRANCH   1  11
BRANCH   7  13
ATOM     13  C   UNL     1       2.514   3.131  17.353  0.00  0.00    +0.000 C 
ATOM     14  O   UNL     1       1.489   3.768  17.157  0.00  0.00    +0.000 OA
BRANCH  13  15
ATOM     15  O   UNL     1       2.527   1.787  17.459  0.00  0.00    +0.000 OA
ATOM     16  H   UNL     1       2.452   1.286  16.624  0.00  0.00    +0.000 HD
ENDBRANCH  13  15
ENDBRANCH   7  13
TORSDOF 3
ENDMDL
MODEL 7
REMARK VINA RESULT:      -5.9      1.714      1.962
REMARK  Name = 
REMARK  4 active torsions:
REMARK  status: ('A' for Active; 'I' for Inactive)
REMARK    1  A    between atoms: C_1  and  C_2
REMARK    2  A    between atoms: N_4  and  C_5
REMARK    3  A    between atoms: C_11  and  C_12
REMARK    4  A    between atoms: C_12  and  O_14
REMARK                            x       y       z     vdW  Elec       q    Type
REMARK                         _______ _______ _______ _____ _____    ______ ____
ROOT
ATOM      1  C   UNL     1       4.637   5.307  18.192  0.00  0.00    +0.000 A 
ATOM      2  C   UNL     1       3.747   5.471  19.261  0.00  0.00    +0.000 A 
ATOM      3  C   UNL     1       2.599   4.684  19.378  0.00  0.00    +0.000 A 
ATOM      4  C   UNL     1       2.329   3.711  18.423  0.00  0.00    +0.000 A 
ATOM      5 CL   UNL     1       0.940   2.711  18.591  0.00  0.00    +0.000 Cl
ATOM      6  C   UNL     1       3.172   3.547  17.330  0.00  0.00    +0.000 A 
ATOM      7  C   UNL     1       4.307   4.367  17.188  0.00  0.00    +0.000 A 
ENDROOT
BRANCH   1  11
ATOM      8  C   UNL     1       8.057   6.884  18.590  0.00  0.00    +0.000 C 
ATOM      9  C   UNL     1       6.947   5.928  18.937  0.00  0.00    +0.000 C 
ATOM     10  O   UNL     1       7.075   5.136  19.864  0.00  0.00    +0.000 OA
ATOM     11  N   UNL     1       5.842   6.056  18.110  0.00  0.00    +0.000 N 
ATOM     12  H   UNL     1       5.981   6.584  17.246  0.00  0.00    +0.000 HD
ENDBRANCH   1  11
BRANCH   7  13
ATOM     13  C   UNL     1       5.179   4.197  15.998  0.00  0.00    +0.000 C 
ATOM     14  O   UNL     1       5.243   5.029  15.106  0.00  0.00    +0.000 OA
BRANCH  13  15
ATOM     15  O   UNL     1       5.827   3.016  15.941  0.00  0.00    +0.000 OA
ATOM     16  H   UNL     1       5.543   2.334  16.580  0.00  0.00    +0.000 HD
ENDBRANCH  13  15
ENDBRANCH   7  13
TORSDOF 3
ENDMDL
MODEL 8
REMARK VINA RESULT:      -5.9      4.051      5.340
REMARK  Name = 
REMARK  4 active torsions:
REMARK  status: ('A' for Active; 'I' for Inactive)
REMARK    1  A    between atoms: C_1  and  C_2
REMARK    2  A    between atoms: N_4  and  C_5
REMARK    3  A    between atoms: C_11  and  C_12
REMARK    4  A    between atoms: C_12  and  O_14
REMARK                            x       y       z     vdW  Elec       q    Type
REMARK                         _______ _______ _______ _____ _____    ______ ____
ROOT
ATOM      1  C   UNL     1       3.357   4.474  19.404  0.00  0.00    +0.000 A 
ATOM      2  C   UNL     1       3.284   5.853  19.175  0.00  0.00    +0.000 A 
ATOM      3  C   UNL     1       3.828   6.430  18.025  0.00  0.00    +0.000 A 
ATOM      4  C   UNL     1       4.453   5.626  17.080  0.00  0.00    +0.000 A 
ATOM      5 CL   UNL     1       5.083   6.329  15.643  0.00  0.00    +0.000 Cl
ATOM      6  C   UNL     1       4.576   4.258  17.293  0.00  0.00    +0.000 A 
ATOM      7  C   UNL     1       4.065   3.680  18.470  0.00  0.00    +0.000 A 
ENDROOT
BRANCH   1  11
ATOM      8  C   UNL     1       1.153   2.698  21.920  0.00  0.00    +0.000 C 
ATOM      9  C   UNL     1       1.532   3.199  20.551  0.00  0.00    +0.000 C 
ATOM     10  O   UNL     1       0.803   2.988  19.589  0.00  0.00    +0.000 OA
ATOM     11  N   UNL     1       2.741   3.876  20.536  0.00  0.00    +0.000 N 
ATOM     12  H   UNL     1       3.337   3.759  21.359  0.00  0.00    +0.000 HD
ENDBRANCH   1  11
BRANCH   7  13
ATOM     13  C   UNL     1       4.234   2.222  18.694  0.00  0.00    +0.000 C 
ATOM     14  O   UNL     1       3.599   1.384  18.070  0.00  0.00    +0.000 OA
BRANCH  13  15
ATOM     15  O   UNL     1       5.077   1.900  19.695  0.00  0.00    +0.000 OA
ATOM     16  H   UNL     1       4.791   2.142  20.597  0.00  0.00    +0.000 HD
ENDBRANCH  13  15
ENDBRANCH   7  13
TORSDOF 3
ENDMDL
MODEL 9
REMARK VINA RESULT:      -5.9      4.246      5.431
REMARK  Name = 
REMARK  4 active torsions:
REMARK  status: ('A' for Active; 'I' for Inactive)
REMARK    1  A    between atoms: C_1  and  C_2
REMARK    2  A    between atoms: N_4  and  C_5
REMARK    3  A    between atoms: C_11  and  C_12
REMARK    4  A    between atoms: C_12  and  O_14
REMARK                            x       y       z     vdW  Elec       q    Type
REMARK                         _______ _______ _______ _____ _____    ______ ____
ROOT
ATOM      1  C   UNL     1       4.013   3.653  19.142  0.00  0.00    +0.000 A 
ATOM      2  C   UNL     1       5.294   4.146  19.420  0.00  0.00    +0.000 A 
ATOM      3  C   UNL     1       6.039   4.824  18.452  0.00  0.00    +0.000 A 
ATOM      4  C   UNL     1       5.504   5.023  17.185  0.00  0.00    +0.000 A 
ATOM      5 CL   UNL     1       6.402   5.897  16.006  0.00  0.00    +0.000 Cl
ATOM      6  C   UNL     1       4.251   4.515  16.864  0.00  0.00    +0.000 A 
ATOM      7  C   UNL     1       3.516   3.796  17.825  0.00  0.00    +0.000 A 
ENDROOT
BRANCH   1  11
ATOM      8  C   UNL     1       1.649   2.705  21.945  0.00  0.00    +0.000 C 
ATOM      9  C   UNL     1       2.308   3.652  20.976  0.00  0.00    +0.000 C 
ATOM     10  O   UNL     1       2.011   4.842  20.972  0.00  0.00    +0.000 OA
ATOM     11  N   UNL     1       3.225   3.029  20.146  0.00  0.00    +0.000 N 
ATOM     12  H   UNL     1       3.183   2.008  20.109  0.00  0.00    +0.000 HD
ENDBRANCH   1  11
BRANCH   7  13
ATOM     13  C   UNL     1       2.192   3.235  17.453  0.00  0.00    +0.000 C 
ATOM     14  O   UNL     1       1.208   3.937  17.274  0.00  0.00    +0.000 OA
BRANCH  13  15
ATOM     15  O   UNL     1       2.143   1.888  17.414  0.00  0.00    +0.000 OA
ATOM     16  H   UNL     1       2.203   1.479  16.529  0.00  0.00    +0.000 HD
ENDBRANCH  13  15
ENDBRANCH   7  13
TORSDOF 3
ENDMDL
