MODEL 1
REMARK VINA RESULT:      -8.1      0.000      0.000
REMARK  Name = 
REMARK  5 active torsions:
REMARK  status: ('A' for Active; 'I' for Inactive)
REMARK    1  A    between atoms: C_8  and  C_9
REMARK    2  A    between atoms: C_9  and  S_10
REMARK    3  A    between atoms: S_10  and  C_11
REMARK    4  A    between atoms: C_14  and  C_15
REMARK    5  A    between atoms: N_25  and  C_26
REMARK                            x       y       z     vdW  Elec       q    Type
REMARK                         _______ _______ _______ _____ _____    ______ ____
ROOT
ATOM      1  C   UNL     1       3.040   4.063  17.406  0.00  0.00    +0.000 A 
ATOM      2  N   UNL     1       1.750   4.085  17.183  0.00  0.00    +0.000 NA
ATOM      3  N   UNL     1       1.286   5.334  17.532  0.00  0.00    +0.000 NA
ATOM      4  C   UNL     1       2.293   6.060  17.994  0.00  0.00    +0.000 A 
ATOM      5  N   UNL     1       3.480   5.314  17.840  0.00  0.00    +0.000 N 
ENDROOT
BRANCH   4   6
ATOM      6  C   UNL     1       2.146   7.409  18.601  0.00  0.00    +0.000 A 
ATOM      7  C   UNL     1       1.734   7.554  19.935  0.00  0.00    +0.000 A 
ATOM      8  C   UNL     1       1.484   8.823  20.481  0.00  0.00    +0.000 A 
ATOM      9  C   UNL     1       1.616   9.966  19.696  0.00  0.00    +0.000 A 
ATOM     10  C   UNL     1       2.073   9.842  18.386  0.00  0.00    +0.000 A 
ATOM     11  C   UNL     1       2.381   8.583  17.864  0.00  0.00    +0.000 A 
ATOM     12  O   UNL     1       2.200  10.903  17.526  0.00  0.00    +0.000 OA
ATOM     13  C   UNL     1       2.201  12.152  18.223  0.00  0.00    +0.000 C 
ATOM     14  C   UNL     1       1.113  12.200  19.281  0.00  0.00    +0.000 C 
ATOM     15  O   UNL     1       1.286  11.169  20.264  0.00  0.00    +0.000 OA
ENDBRANCH   4   6
BRANCH   5  16
ATOM     16  C   UNL     1       4.823   5.766  18.084  0.00  0.00    +0.000 A 
ATOM     17  C   UNL     1       5.486   6.606  17.180  0.00  0.00    +0.000 A 
ATOM     18  C   UNL     1       6.822   6.958  17.374  0.00  0.00    +0.000 A 
ATOM     19  C   UNL     1       7.533   6.430  18.445  0.00  0.00    +0.000 A 
ATOM     20  C   UNL     1       6.890   5.601  19.359  0.00  0.00    +0.000 A 
ATOM     21  C   UNL     1       5.531   5.312  19.209  0.00  0.00    +0.000 A 
ENDBRANCH   5  16
BRANCH   1  22
ATOM     22  S   UNL     1       4.099   2.705  17.137  0.00  0.00    +0.000 S 
BRANCH  22  23
ATOM     23  C   UNL     1       3.576   1.360  18.220  0.00  0.00    +0.000 C 
BRANCH  23  31
ATOM     24  F   UNL     1       4.894   2.380  20.544  0.00  0.00    +0.000 F 
ATOM     25  C   UNL     1       3.555   2.453  20.515  0.00  0.00    +0.000 A 
ATOM     26  C   UNL     1       2.902   3.060  21.591  0.00  0.00    +0.000 A 
ATOM     27  C   UNL     1       1.513   3.175  21.588  0.00  0.00    +0.000 A 
ATOM     28  C   UNL     1       0.795   2.682  20.501  0.00  0.00    +0.000 A 
ATOM     29  C   UNL     1       1.465   2.080  19.433  0.00  0.00    +0.000 A 
ATOM     30  F   UNL     1       0.740   1.639  18.395  0.00  0.00    +0.000 F 
ATOM     31  C   UNL     1       2.856   1.943  19.418  0.00  0.00    +0.000 A 
ENDBRANCH  23  31
ENDBRANCH  22  23
ENDBRANCH   1  22
TORSDOF 5
ENDMDL
MODEL 2
REMARK VINA RESULT:      -8.0      4.330      6.709
REMARK  Name = 
REMARK  5 active torsions:
REMARK  status: ('A' for Active; 'I' for Inactive)
REMARK    1  A    between atoms: C_8  and  C_9
REMARK    2  A    between atoms: C_9  and  S_10
REMARK    3  A    between atoms: S_10  and  C_11
REMARK    4  A    between atoms: C_14  and  C_15
REMARK    5  A    between atoms: N_25  and  C_26
REMARK                            x       y       z     vdW  Elec       q    Type
REMARK                         _______ _______ _______ _____ _____    ______ ____
ROOT
ATOM      1  C   UNL     1       1.223   8.957  20.277  0.00  0.00    +0.000 A 
ATOM      2  N   UNL     1       1.608   8.717  21.505  0.00  0.00    +0.000 NA
ATOM      3  N   UNL     1       0.929   9.585  22.332  0.00  0.00    +0.000 NA
ATOM      4  C   UNL     1       0.153  10.369  21.599  0.00  0.00    +0.000 A 
ATOM      5  N   UNL     1       0.229   9.935  20.259  0.00  0.00    +0.000 N 
ENDROOT
BRANCH   4   6
ATOM      6  C   UNL     1      -0.617  11.524  22.132  0.00  0.00    +0.000 A 
ATOM      7  C   UNL     1      -0.089  12.824  22.078  0.00  0.00    +0.000 A 
ATOM      8  C   UNL     1      -0.758  13.902  22.680  0.00  0.00    +0.000 A 
ATOM      9  C   UNL     1      -1.951  13.695  23.368  0.00  0.00    +0.000 A 
ATOM     10  C   UNL     1      -2.514  12.421  23.385  0.00  0.00    +0.000 A 
ATOM     11  C   UNL     1      -1.878  11.361  22.732  0.00  0.00    +0.000 A 
ATOM     12  O   UNL     1      -3.664  12.111  24.066  0.00  0.00    +0.000 OA
ATOM     13  C   UNL     1      -4.412  13.283  24.400  0.00  0.00    +0.000 C 
ATOM     14  C   UNL     1      -3.516  14.378  24.951  0.00  0.00    +0.000 C 
ATOM     15  O   UNL     1      -2.518  14.772  23.997  0.00  0.00    +0.000 OA
ENDBRANCH   4   6
BRANCH   5  16
ATOM     16  C   UNL     1      -0.551  10.413  19.150  0.00  0.00    +0.000 A 
ATOM     17  C   UNL     1      -0.391  11.713  18.652  0.00  0.00    +0.000 A 
ATOM     18  C   UNL     1      -1.220  12.202  17.643  0.00  0.00    +0.000 A 
ATOM     19  C   UNL     1      -2.260  11.420  17.155  0.00  0.00    +0.000 A 
ATOM     20  C   UNL     1      -2.429  10.124  17.630  0.00  0.00    +0.000 A 
ATOM     21  C   UNL     1      -1.549   9.605  18.583  0.00  0.00    +0.000 A 
ENDBRANCH   5  16
BRANCH   1  22
ATOM     22  S   UNL     1       1.794   8.134  18.850  0.00  0.00    +0.000 S 
BRANCH  22  23
ATOM     23  C   UNL     1       3.018   6.909  19.359  0.00  0.00    +0.000 C 
BRANCH  23  31
ATOM     24  F   UNL     1       1.183   5.492  21.035  0.00  0.00    +0.000 F 
ATOM     25  C   UNL     1       1.567   4.892  19.899  0.00  0.00    +0.000 A 
ATOM     26  C   UNL     1       1.013   3.647  19.589  0.00  0.00    +0.000 A 
ATOM     27  C   UNL     1       1.370   3.001  18.406  0.00  0.00    +0.000 A 
ATOM     28  C   UNL     1       2.277   3.615  17.545  0.00  0.00    +0.000 A 
ATOM     29  C   UNL     1       2.819   4.862  17.871  0.00  0.00    +0.000 A 
ATOM     30  F   UNL     1       3.670   5.431  17.005  0.00  0.00    +0.000 F 
ATOM     31  C   UNL     1       2.485   5.524  19.055  0.00  0.00    +0.000 A 
ENDBRANCH  23  31
ENDBRANCH  22  23
ENDBRANCH   1  22
TORSDOF 5
ENDMDL
MODEL 3
REMARK VINA RESULT:      -8.0      2.114      4.810
REMARK  Name = 
REMARK  5 active torsions:
REMARK  status: ('A' for Active; 'I' for Inactive)
REMARK    1  A    between atoms: C_8  and  C_9
REMARK    2  A    between atoms: C_9  and  S_10
REMARK    3  A    between atoms: S_10  and  C_11
REMARK    4  A    between atoms: C_14  and  C_15
REMARK    5  A    between atoms: N_25  and  C_26
REMARK                            x       y       z     vdW  Elec       q    Type
REMARK                         _______ _______ _______ _____ _____    ______ ____
ROOT
ATOM      1  C   UNL     1       3.817   5.434  17.238  0.00  0.00    +0.000 A 
ATOM      2  N   UNL     1       4.292   6.515  16.671  0.00  0.00    +0.000 NA
ATOM      3  N   UNL     1       3.682   7.600  17.262  0.00  0.00    +0.000 NA
ATOM      4  C   UNL     1       2.817   7.173  18.169  0.00  0.00    +0.000 A 
ATOM      5  N   UNL     1       2.937   5.771  18.267  0.00  0.00    +0.000 N 
ENDROOT
BRANCH   4   6
ATOM      6  C   UNL     1       1.870   8.051  18.905  0.00  0.00    +0.000 A 
ATOM      7  C   UNL     1       1.141   9.044  18.230  0.00  0.00    +0.000 A 
ATOM      8  C   UNL     1       0.331   9.951  18.933  0.00  0.00    +0.000 A 
ATOM      9  C   UNL     1       0.258   9.898  20.323  0.00  0.00    +0.000 A 
ATOM     10  C   UNL     1       0.934   8.887  21.002  0.00  0.00    +0.000 A 
ATOM     11  C   UNL     1       1.690   7.947  20.295  0.00  0.00    +0.000 A 
ATOM     12  O   UNL     1       0.952   8.776  22.369  0.00  0.00    +0.000 OA
ATOM     13  C   UNL     1      -0.095   9.538  22.976  0.00  0.00    +0.000 C 
ATOM     14  C   UNL     1      -0.203  10.923  22.362  0.00  0.00    +0.000 C 
ATOM     15  O   UNL     1      -0.490  10.856  20.957  0.00  0.00    +0.000 OA
ENDBRANCH   4   6
BRANCH   5  16
ATOM     16  C   UNL     1       2.286   4.911  19.218  0.00  0.00    +0.000 A 
ATOM     17  C   UNL     1       2.732   4.819  20.543  0.00  0.00    +0.000 A 
ATOM     18  C   UNL     1       2.159   3.909  21.431  0.00  0.00    +0.000 A 
ATOM     19  C   UNL     1       1.169   3.037  20.994  0.00  0.00    +0.000 A 
ATOM     20  C   UNL     1       0.707   3.119  19.685  0.00  0.00    +0.000 A 
ATOM     21  C   UNL     1       1.224   4.084  18.817  0.00  0.00    +0.000 A 
ENDBRANCH   5  16
BRANCH   1  22
ATOM     22  S   UNL     1       4.260   3.796  16.842  0.00  0.00    +0.000 S 
BRANCH  22  23
ATOM     23  C   UNL     1       6.015   3.771  16.425  0.00  0.00    +0.000 C 
BRANCH  23  31
ATOM     24  F   UNL     1       7.312   6.059  15.301  0.00  0.00    +0.000 F 
ATOM     25  C   UNL     1       7.323   5.941  16.636  0.00  0.00    +0.000 A 
ATOM     26  C   UNL     1       7.919   6.959  17.386  0.00  0.00    +0.000 A 
ATOM     27  C   UNL     1       7.930   6.884  18.778  0.00  0.00    +0.000 A 
ATOM     28  C   UNL     1       7.338   5.789  19.403  0.00  0.00    +0.000 A 
ATOM     29  C   UNL     1       6.744   4.782  18.637  0.00  0.00    +0.000 A 
ATOM     30  F   UNL     1       6.164   3.755  19.275  0.00  0.00    +0.000 F 
ATOM     31  C   UNL     1       6.730   4.829  17.240  0.00  0.00    +0.000 A 
ENDBRANCH  23  31
ENDBRANCH  22  23
ENDBRANCH   1  22
TORSDOF 5
ENDMDL
MODEL 4
REMARK VINA RESULT:      -8.0      0.068      1.480
REMARK  Name = 
REMARK  5 active torsions:
REMARK  status: ('A' for Active; 'I' for Inactive)
REMARK    1  A    between atoms: C_8  and  C_9
REMARK    2  A    between atoms: C_9  and  S_10
REMARK    3  A    between atoms: S_10  and  C_11
REMARK    4  A    between atoms: C_14  and  C_15
REMARK    5  A    between atoms: N_25  and  C_26
REMARK                            x       y       z     vdW  Elec       q    Type
REMARK                         _______ _______ _______ _____ _____    ______ ____
ROOT
ATOM      1  C   UNL     1       3.054   4.052  17.365  0.00  0.00    +0.000 A 
ATOM      2  N   UNL     1       1.767   4.078  17.128  0.00  0.00    +0.000 NA
ATOM      3  N   UNL     1       1.301   5.325  17.485  0.00  0.00    +0.000 NA
ATOM      4  C   UNL     1       2.305   6.043  17.965  0.00  0.00    +0.000 A 
ATOM      5  N   UNL     1       3.492   5.297  17.816  0.00  0.00    +0.000 N 
ENDROOT
BRANCH   4   6
ATOM      6  C   UNL     1       2.155   7.387  18.584  0.00  0.00    +0.000 A 
ATOM      7  C   UNL     1       1.745   7.518  19.920  0.00  0.00    +0.000 A 
ATOM      8  C   UNL     1       1.491   8.782  20.478  0.00  0.00    +0.000 A 
ATOM      9  C   UNL     1       1.617   9.932  19.703  0.00  0.00    +0.000 A 
ATOM     10  C   UNL     1       2.072   9.821  18.391  0.00  0.00    +0.000 A 
ATOM     11  C   UNL     1       2.383   8.568  17.857  0.00  0.00    +0.000 A 
ATOM     12  O   UNL     1       2.192  10.891  17.540  0.00  0.00    +0.000 OA
ATOM     13  C   UNL     1       2.190  12.133  18.248  0.00  0.00    +0.000 C 
ATOM     14  C   UNL     1       1.104  12.168  19.308  0.00  0.00    +0.000 C 
ATOM     15  O   UNL     1       1.283  11.129  20.282  0.00  0.00    +0.000 OA
ENDBRANCH   4   6
BRANCH   5  16
ATOM     16  C   UNL     1       4.833   5.744  18.079  0.00  0.00    +0.000 A 
ATOM     17  C   UNL     1       5.507   6.592  17.192  0.00  0.00    +0.000 A 
ATOM     18  C   UNL     1       6.842   6.939  17.403  0.00  0.00    +0.000 A 
ATOM     19  C   UNL     1       7.540   6.398  18.476  0.00  0.00    +0.000 A 
ATOM     20  C   UNL     1       6.887   5.560  19.373  0.00  0.00    +0.000 A 
ATOM     21  C   UNL     1       5.529   5.276  19.206  0.00  0.00    +0.000 A 
ENDBRANCH   5  16
BRANCH   1  22
ATOM     22  S   UNL     1       4.114   2.694  17.094  0.00  0.00    +0.000 S 
BRANCH  22  23
ATOM     23  C   UNL     1       3.667   1.390  18.258  0.00  0.00    +0.000 C 
BRANCH  23  31
ATOM     24  F   UNL     1       0.821   1.652  18.353  0.00  0.00    +0.000 F 
ATOM     25  C   UNL     1       1.513   2.078  19.419  0.00  0.00    +0.000 A 
ATOM     26  C   UNL     1       0.801   2.574  20.515  0.00  0.00    +0.000 A 
ATOM     27  C   UNL     1       1.484   3.006  21.651  0.00  0.00    +0.000 A 
ATOM     28  C   UNL     1       2.874   2.933  21.676  0.00  0.00    +0.000 A 
ATOM     29  C   UNL     1       3.569   2.433  20.571  0.00  0.00    +0.000 A 
ATOM     30  F   UNL     1       4.906   2.356  20.642  0.00  0.00    +0.000 F 
ATOM     31  C   UNL     1       2.909   2.003  19.417  0.00  0.00    +0.000 A 
ENDBRANCH  23  31
ENDBRANCH  22  23
ENDBRANCH   1  22
TORSDOF 5
ENDMDL
MODEL 5
REMARK VINA RESULT:      -7.9      2.147      4.816
REMARK  Name = 
REMARK  5 active torsions:
REMARK  status: ('A' for Active; 'I' for Inactive)
REMARK    1  A    between atoms: C_8  and  C_9
REMARK    2  A    between atoms: C_9  and  S_10
REMARK    3  A    between atoms: S_10  and  C_11
REMARK    4  A    between atoms: C_14  and  C_15
REMARK    5  A    between atoms: N_25  and  C_26
REMARK                            x       y       z     vdW  Elec       q    Type
REMARK                         _______ _______ _______ _____ _____    ______ ____
ROOT
ATOM      1  C   UNL     1       3.788   5.504  17.268  0.00  0.00    +0.000 A 
ATOM      2  N   UNL     1       4.251   6.597  16.715  0.00  0.00    +0.000 NA
ATOM      3  N   UNL     1       3.630   7.667  17.321  0.00  0.00    +0.000 NA
ATOM      4  C   UNL     1       2.770   7.218  18.223  0.00  0.00    +0.000 A 
ATOM      5  N   UNL     1       2.905   5.817  18.301  0.00  0.00    +0.000 N 
ENDROOT
BRANCH   4   6
ATOM      6  C   UNL     1       1.814   8.077  18.971  0.00  0.00    +0.000 A 
ATOM      7  C   UNL     1       1.032   9.031  18.301  0.00  0.00    +0.000 A 
ATOM      8  C   UNL     1       0.212   9.922  19.012  0.00  0.00    +0.000 A 
ATOM      9  C   UNL     1       0.180   9.892  20.404  0.00  0.00    +0.000 A 
ATOM     10  C   UNL     1       0.910   8.917  21.080  0.00  0.00    +0.000 A 
ATOM     11  C   UNL     1       1.678   7.991  20.368  0.00  0.00    +0.000 A 
ATOM     12  O   UNL     1       0.972   8.831  22.448  0.00  0.00    +0.000 OA
ATOM     13  C   UNL     1      -0.084   9.567  23.072  0.00  0.00    +0.000 C 
ATOM     14  C   UNL     1      -0.258  10.936  22.438  0.00  0.00    +0.000 C 
ATOM     15  O   UNL     1      -0.582  10.835  21.044  0.00  0.00    +0.000 OA
ENDBRANCH   4   6
BRANCH   5  16
ATOM     16  C   UNL     1       2.263   4.937  19.241  0.00  0.00    +0.000 A 
ATOM     17  C   UNL     1       2.711   4.832  20.564  0.00  0.00    +0.000 A 
ATOM     18  C   UNL     1       2.148   3.904  21.440  0.00  0.00    +0.000 A 
ATOM     19  C   UNL     1       1.167   3.027  20.991  0.00  0.00    +0.000 A 
ATOM     20  C   UNL     1       0.704   3.122  19.683  0.00  0.00    +0.000 A 
ATOM     21  C   UNL     1       1.211   4.104  18.828  0.00  0.00    +0.000 A 
ENDBRANCH   5  16
BRANCH   1  22
ATOM     22  S   UNL     1       4.247   3.875  16.848  0.00  0.00    +0.000 S 
BRANCH  22  23
ATOM     23  C   UNL     1       6.026   3.852  16.544  0.00  0.00    +0.000 C 
BRANCH  23  31
ATOM     24  F   UNL     1       6.226   3.854  19.397  0.00  0.00    +0.000 F 
ATOM     25  C   UNL     1       6.770   4.889  18.743  0.00  0.00    +0.000 A 
ATOM     26  C   UNL     1       7.435   5.867  19.488  0.00  0.00    +0.000 A 
ATOM     27  C   UNL     1       8.034   6.948  18.842  0.00  0.00    +0.000 A 
ATOM     28  C   UNL     1       7.962   7.033  17.454  0.00  0.00    +0.000 A 
ATOM     29  C   UNL     1       7.294   6.044  16.725  0.00  0.00    +0.000 A 
ATOM     30  F   UNL     1       7.267   6.148  15.388  0.00  0.00    +0.000 F 
ATOM     31  C   UNL     1       6.677   4.957  17.350  0.00  0.00    +0.000 A 
ENDBRANCH  23  31
ENDBRANCH  22  23
ENDBRANCH   1  22
TORSDOF 5
ENDMDL
MODEL 6
REMARK VINA RESULT:      -7.7      4.576      7.035
REMARK  Name = 
REMARK  5 active torsions:
REMARK  status: ('A' for Active; 'I' for Inactive)
REMARK    1  A    between atoms: C_8  and  C_9
REMARK    2  A    between atoms: C_9  and  S_10
REMARK    3  A    between atoms: S_10  and  C_11
REMARK    4  A    between atoms: C_14  and  C_15
REMARK    5  A    between atoms: N_25  and  C_26
REMARK                            x       y       z     vdW  Elec       q    Type
REMARK                         _______ _______ _______ _____ _____    ______ ____
ROOT
ATOM      1  C   UNL     1       0.924   9.259  21.054  0.00  0.00    +0.000 A 
ATOM      2  N   UNL     1       1.151   9.121  22.336  0.00  0.00    +0.000 NA
ATOM      3  N   UNL     1       0.439  10.100  22.994  0.00  0.00    +0.000 NA
ATOM      4  C   UNL     1      -0.198  10.848  22.106  0.00  0.00    +0.000 A 
ATOM      5  N   UNL     1       0.002  10.282  20.830  0.00  0.00    +0.000 N 
ENDROOT
BRANCH   4   6
ATOM      6  C   UNL     1      -0.949  12.088  22.436  0.00  0.00    +0.000 A 
ATOM      7  C   UNL     1      -0.301  13.333  22.459  0.00  0.00    +0.000 A 
ATOM      8  C   UNL     1      -0.974  14.492  22.879  0.00  0.00    +0.000 A 
ATOM      9  C   UNL     1      -2.298  14.420  23.309  0.00  0.00    +0.000 A 
ATOM     10  C   UNL     1      -2.969  13.201  23.243  0.00  0.00    +0.000 A 
ATOM     11  C   UNL     1      -2.315  12.062  22.765  0.00  0.00    +0.000 A 
ATOM     12  O   UNL     1      -4.258  13.023  23.677  0.00  0.00    +0.000 OA
ATOM     13  C   UNL     1      -4.945  14.270  23.817  0.00  0.00    +0.000 C 
ATOM     14  C   UNL     1      -4.082  15.307  24.513  0.00  0.00    +0.000 C 
ATOM     15  O   UNL     1      -2.878  15.570  23.777  0.00  0.00    +0.000 OA
ENDBRANCH   4   6
BRANCH   5  16
ATOM     16  C   UNL     1      -0.615  10.689  19.596  0.00  0.00    +0.000 A 
ATOM     17  C   UNL     1      -0.353  11.943  19.029  0.00  0.00    +0.000 A 
ATOM     18  C   UNL     1      -1.031  12.370  17.888  0.00  0.00    +0.000 A 
ATOM     19  C   UNL     1      -2.024  11.574  17.328  0.00  0.00    +0.000 A 
ATOM     20  C   UNL     1      -2.293  10.323  17.872  0.00  0.00    +0.000 A 
ATOM     21  C   UNL     1      -1.558   9.860  18.967  0.00  0.00    +0.000 A 
ENDBRANCH   5  16
BRANCH   1  22
ATOM     22  S   UNL     1       1.600   8.272  19.787  0.00  0.00    +0.000 S 
BRANCH  22  23
ATOM     23  C   UNL     1       2.187   6.732  20.525  0.00  0.00    +0.000 C 
BRANCH  23  31
ATOM     24  F   UNL     1       4.052   6.780  18.357  0.00  0.00    +0.000 F 
ATOM     25  C   UNL     1       3.219   5.732  18.428  0.00  0.00    +0.000 A 
ATOM     26  C   UNL     1       3.348   4.718  17.474  0.00  0.00    +0.000 A 
ATOM     27  C   UNL     1       2.515   3.602  17.528  0.00  0.00    +0.000 A 
ATOM     28  C   UNL     1       1.564   3.513  18.541  0.00  0.00    +0.000 A 
ATOM     29  C   UNL     1       1.450   4.535  19.487  0.00  0.00    +0.000 A 
ATOM     30  F   UNL     1       0.538   4.403  20.461  0.00  0.00    +0.000 F 
ATOM     31  C   UNL     1       2.266   5.670  19.449  0.00  0.00    +0.000 A 
ENDBRANCH  23  31
ENDBRANCH  22  23
ENDBRANCH   1  22
TORSDOF 5
ENDMDL
MODEL 7
REMARK VINA RESULT:      -7.7      1.974      4.485
REMARK  Name = 
REMARK  5 active torsions:
REMARK  status: ('A' for Active; 'I' for Inactive)
REMARK    1  A    between atoms: C_8  and  C_9
REMARK    2  A    between atoms: C_9  and  S_10
REMARK    3  A    between atoms: S_10  and  C_11
REMARK    4  A    between atoms: C_14  and  C_15
REMARK    5  A    between atoms: N_25  and  C_26
REMARK                            x       y       z     vdW  Elec       q    Type
REMARK                         _______ _______ _______ _____ _____    ______ ____
ROOT
ATOM      1  C   UNL     1       3.525   5.462  17.345  0.00  0.00    +0.000 A 
ATOM      2  N   UNL     1       3.987   6.550  16.782  0.00  0.00    +0.000 NA
ATOM      3  N   UNL     1       3.531   7.625  17.514  0.00  0.00    +0.000 NA
ATOM      4  C   UNL     1       2.769   7.187  18.505  0.00  0.00    +0.000 A 
ATOM      5  N   UNL     1       2.813   5.777  18.503  0.00  0.00    +0.000 N 
ENDROOT
BRANCH   4   6
ATOM      6  C   UNL     1       1.987   8.065  19.414  0.00  0.00    +0.000 A 
ATOM      7  C   UNL     1       1.702   7.663  20.729  0.00  0.00    +0.000 A 
ATOM      8  C   UNL     1       0.869   8.434  21.556  0.00  0.00    +0.000 A 
ATOM      9  C   UNL     1       0.286   9.604  21.075  0.00  0.00    +0.000 A 
ATOM     10  C   UNL     1       0.600  10.042  19.791  0.00  0.00    +0.000 A 
ATOM     11  C   UNL     1       1.479   9.306  18.990  0.00  0.00    +0.000 A 
ATOM     12  O   UNL     1       0.048  11.159  19.216  0.00  0.00    +0.000 OA
ATOM     13  C   UNL     1      -0.546  12.017  20.194  0.00  0.00    +0.000 C 
ATOM     14  C   UNL     1      -1.375  11.230  21.194  0.00  0.00    +0.000 C 
ATOM     15  O   UNL     1      -0.576  10.273  21.905  0.00  0.00    +0.000 OA
ENDBRANCH   4   6
BRANCH   5  16
ATOM     16  C   UNL     1       2.243   4.893  19.483  0.00  0.00    +0.000 A 
ATOM     17  C   UNL     1       2.851   4.695  20.729  0.00  0.00    +0.000 A 
ATOM     18  C   UNL     1       2.347   3.761  21.634  0.00  0.00    +0.000 A 
ATOM     19  C   UNL     1       1.260   2.969  21.285  0.00  0.00    +0.000 A 
ATOM     20  C   UNL     1       0.636   3.157  20.056  0.00  0.00    +0.000 A 
ATOM     21  C   UNL     1       1.091   4.147  19.181  0.00  0.00    +0.000 A 
ENDBRANCH   5  16
BRANCH   1  22
ATOM     22  S   UNL     1       3.806   3.832  16.797  0.00  0.00    +0.000 S 
BRANCH  22  23
ATOM     23  C   UNL     1       5.579   3.624  16.534  0.00  0.00    +0.000 C 
BRANCH  23  31
ATOM     24  F   UNL     1       5.721   3.729  19.389  0.00  0.00    +0.000 F 
ATOM     25  C   UNL     1       6.378   4.677  18.706  0.00  0.00    +0.000 A 
ATOM     26  C   UNL     1       7.122   5.616  19.426  0.00  0.00    +0.000 A 
ATOM     27  C   UNL     1       7.837   6.603  18.751  0.00  0.00    +0.000 A 
ATOM     28  C   UNL     1       7.802   6.635  17.359  0.00  0.00    +0.000 A 
ATOM     29  C   UNL     1       7.055   5.686  16.655  0.00  0.00    +0.000 A 
ATOM     30  F   UNL     1       7.064   5.735  15.315  0.00  0.00    +0.000 F 
ATOM     31  C   UNL     1       6.321   4.693  17.309  0.00  0.00    +0.000 A 
ENDBRANCH  23  31
ENDBRANCH  22  23
ENDBRANCH   1  22
TORSDOF 5
ENDMDL
MODEL 8
REMARK VINA RESULT:      -7.7      4.151      6.530
REMARK  Name = 
REMARK  5 active torsions:
REMARK  status: ('A' for Active; 'I' for Inactive)
REMARK    1  A    between atoms: C_8  and  C_9
REMARK    2  A    between atoms: C_9  and  S_10
REMARK    3  A    between atoms: S_10  and  C_11
REMARK    4  A    between atoms: C_14  and  C_15
REMARK    5  A    between atoms: N_25  and  C_26
REMARK                            x       y       z     vdW  Elec       q    Type
REMARK                         _______ _______ _______ _____ _____    ______ ____
ROOT
ATOM      1  C   UNL     1       1.141   8.960  20.449  0.00  0.00    +0.000 A 
ATOM      2  N   UNL     1       1.491   8.676  21.679  0.00  0.00    +0.000 NA
ATOM      3  N   UNL     1       0.821   9.542  22.515  0.00  0.00    +0.000 NA
ATOM      4  C   UNL     1       0.085  10.368  21.787  0.00  0.00    +0.000 A 
ATOM      5  N   UNL     1       0.177   9.968  20.438  0.00  0.00    +0.000 N 
ENDROOT
BRANCH   4   6
ATOM      6  C   UNL     1      -0.662  11.531  22.336  0.00  0.00    +0.000 A 
ATOM      7  C   UNL     1      -1.845  11.342  23.068  0.00  0.00    +0.000 A 
ATOM      8  C   UNL     1      -2.616  12.437  23.492  0.00  0.00    +0.000 A 
ATOM      9  C   UNL     1      -2.232  13.736  23.168  0.00  0.00    +0.000 A 
ATOM     10  C   UNL     1      -1.035  13.942  22.487  0.00  0.00    +0.000 A 
ATOM     11  C   UNL     1      -0.237  12.854  22.120  0.00  0.00    +0.000 A 
ATOM     12  O   UNL     1      -0.592  15.179  22.091  0.00  0.00    +0.000 OA
ATOM     13  C   UNL     1      -1.266  16.229  22.790  0.00  0.00    +0.000 C 
ATOM     14  C   UNL     1      -2.762  15.982  22.858  0.00  0.00    +0.000 C 
ATOM     15  O   UNL     1      -3.064  14.758  23.545  0.00  0.00    +0.000 OA
ENDBRANCH   4   6
BRANCH   5  16
ATOM     16  C   UNL     1      -0.564  10.500  19.326  0.00  0.00    +0.000 A 
ATOM     17  C   UNL     1      -0.299  11.778  18.817  0.00  0.00    +0.000 A 
ATOM     18  C   UNL     1      -1.088  12.325  17.806  0.00  0.00    +0.000 A 
ATOM     19  C   UNL     1      -2.190  11.627  17.326  0.00  0.00    +0.000 A 
ATOM     20  C   UNL     1      -2.464  10.353  17.813  0.00  0.00    +0.000 A 
ATOM     21  C   UNL     1      -1.627   9.771  18.769  0.00  0.00    +0.000 A 
ENDBRANCH   5  16
BRANCH   1  22
ATOM     22  S   UNL     1       1.718   8.159  19.013  0.00  0.00    +0.000 S 
BRANCH  22  23
ATOM     23  C   UNL     1       2.954   6.940  19.507  0.00  0.00    +0.000 C 
BRANCH  23  31
ATOM     24  F   UNL     1       1.179   5.401  21.139  0.00  0.00    +0.000 F 
ATOM     25  C   UNL     1       1.562   4.863  19.972  0.00  0.00    +0.000 A 
ATOM     26  C   UNL     1       1.037   3.619  19.612  0.00  0.00    +0.000 A 
ATOM     27  C   UNL     1       1.394   3.038  18.397  0.00  0.00    +0.000 A 
ATOM     28  C   UNL     1       2.272   3.713  17.554  0.00  0.00    +0.000 A 
ATOM     29  C   UNL     1       2.787   4.957  17.929  0.00  0.00    +0.000 A 
ATOM     30  F   UNL     1       3.611   5.588  17.080  0.00  0.00    +0.000 F 
ATOM     31  C   UNL     1       2.452   5.557  19.147  0.00  0.00    +0.000 A 
ENDBRANCH  23  31
ENDBRANCH  22  23
ENDBRANCH   1  22
TORSDOF 5
ENDMDL
MODEL 9
REMARK VINA RESULT:      -7.7      4.363      6.811
REMARK  Name = 
REMARK  5 active torsions:
REMARK  status: ('A' for Active; 'I' for Inactive)
REMARK    1  A    between atoms: C_8  and  C_9
REMARK    2  A    between atoms: C_9  and  S_10
REMARK    3  A    between atoms: S_10  and  C_11
REMARK    4  A    between atoms: C_14  and  C_15
REMARK    5  A    between atoms: N_25  and  C_26
REMARK                            x       y       z     vdW  Elec       q    Type
REMARK                         _______ _______ _______ _____ _____    ______ ____
ROOT
ATOM      1  C   UNL     1       0.911   9.172  21.084  0.00  0.00    +0.000 A 
ATOM      2  N   UNL     1       1.134   8.968  22.358  0.00  0.00    +0.000 NA
ATOM      3  N   UNL     1       0.409   9.903  23.064  0.00  0.00    +0.000 NA
ATOM      4  C   UNL     1      -0.231  10.691  22.213  0.00  0.00    +0.000 A 
ATOM      5  N   UNL     1      -0.020  10.196  20.910  0.00  0.00    +0.000 N 
ENDROOT
BRANCH   4   6
ATOM      6  C   UNL     1      -0.996  11.905  22.606  0.00  0.00    +0.000 A 
ATOM      7  C   UNL     1      -2.294  11.795  23.131  0.00  0.00    +0.000 A 
ATOM      8  C   UNL     1      -3.065  12.938  23.398  0.00  0.00    +0.000 A 
ATOM      9  C   UNL     1      -2.562  14.207  23.120  0.00  0.00    +0.000 A 
ATOM     10  C   UNL     1      -1.258  14.334  22.647  0.00  0.00    +0.000 A 
ATOM     11  C   UNL     1      -0.470  13.198  22.441  0.00  0.00    +0.000 A 
ATOM     12  O   UNL     1      -0.689  15.536  22.310  0.00  0.00    +0.000 OA
ATOM     13  C   UNL     1      -1.414  16.637  22.865  0.00  0.00    +0.000 C 
ATOM     14  C   UNL     1      -2.912  16.467  22.683  0.00  0.00    +0.000 C 
ATOM     15  O   UNL     1      -3.390  15.279  23.332  0.00  0.00    +0.000 OA
ENDBRANCH   4   6
BRANCH   5  16
ATOM     16  C   UNL     1      -0.636  10.663  19.697  0.00  0.00    +0.000 A 
ATOM     17  C   UNL     1      -0.342  11.927  19.170  0.00  0.00    +0.000 A 
ATOM     18  C   UNL     1      -1.018  12.413  18.050  0.00  0.00    +0.000 A 
ATOM     19  C   UNL     1      -2.039  11.666  17.474  0.00  0.00    +0.000 A 
ATOM     20  C   UNL     1      -2.340  10.405  17.978  0.00  0.00    +0.000 A 
ATOM     21  C   UNL     1      -1.609   9.884  19.050  0.00  0.00    +0.000 A 
ENDBRANCH   5  16
BRANCH   1  22
ATOM     22  S   UNL     1       1.602   8.261  19.769  0.00  0.00    +0.000 S 
BRANCH  22  23
ATOM     23  C   UNL     1       2.309   6.744  20.445  0.00  0.00    +0.000 C 
BRANCH  23  31
ATOM     24  F   UNL     1       4.088   6.767  18.205  0.00  0.00    +0.000 F 
ATOM     25  C   UNL     1       3.239   5.734  18.305  0.00  0.00    +0.000 A 
ATOM     26  C   UNL     1       3.312   4.722  17.344  0.00  0.00    +0.000 A 
ATOM     27  C   UNL     1       2.463   3.620  17.427  0.00  0.00    +0.000 A 
ATOM     28  C   UNL     1       1.551   3.544  18.477  0.00  0.00    +0.000 A 
ATOM     29  C   UNL     1       1.493   4.565  19.430  0.00  0.00    +0.000 A 
ATOM     30  F   UNL     1       0.618   4.445  20.439  0.00  0.00    +0.000 F 
ATOM     31  C   UNL     1       2.327   5.685  19.363  0.00  0.00    +0.000 A 
ENDBRANCH  23  31
ENDBRANCH  22  23
ENDBRANCH   1  22
TORSDOF 5
ENDMDL
