MODEL 1
REMARK VINA RESULT:      -7.6      0.000      0.000
REMARK  Name = 
REMARK  10 active torsions:
REMARK  status: ('A' for Active; 'I' for Inactive)
REMARK    1  A    between atoms: C_1  and  O_2
REMARK    2  A    between atoms: O_2  and  C_3
REMARK    3  A    between atoms: C_7  and  C_8
REMARK    4  A    between atoms: C_8  and  C_9
REMARK    5  A    between atoms: C_9  and  O_11
REMARK    6  A    between atoms: O_11  and  C_12
REMARK    7  A    between atoms: C_12  and  C_13
REMARK    8  A    between atoms: C_16  and  C_18
REMARK    9  A    between atoms: C_21  and  O_22
REMARK   10  A    between atoms: O_22  and  C_23
REMARK                            x       y       z     vdW  Elec       q    Type
REMARK                         _______ _______ _______ _____ _____    ______ ____
ROOT
ATOM      1  C   UNL     1       3.760   4.242  18.884  0.00  0.00    +0.000 C 
ATOM      2  O   UNL     1       3.426   3.464  19.772  0.00  0.00    +0.000 OA
ATOM      3  N   UNL     1       3.354   5.562  18.765  0.00  0.00    +0.000 N 
ATOM      4  C   UNL     1       2.408   6.149  19.590  0.00  0.00    +0.000 C 
ATOM      5  O   UNL     1       1.844   5.585  20.520  0.00  0.00    +0.000 OA
ATOM      6  H   UNL     1       3.754   6.111  18.021  0.00  0.00    +0.000 HD
ENDROOT
BRANCH   4   7
ATOM      7  C   UNL     1       2.001   7.550  19.284  0.00  0.00    +0.000 A 
ATOM      8  C   UNL     1       1.425   8.282  20.332  0.00  0.00    +0.000 A 
ATOM      9  C   UNL     1       0.990   9.592  20.130  0.00  0.00    +0.000 A 
ATOM     10  C   UNL     1       1.148  10.202  18.887  0.00  0.00    +0.000 A 
ATOM     11  C   UNL     1       1.733   9.487  17.838  0.00  0.00    +0.000 A 
ATOM     12  C   UNL     1       2.168   8.164  18.036  0.00  0.00    +0.000 A 
BRANCH  10  13
ATOM     13  O   UNL     1       0.654  11.472  18.817  0.00  0.00    +0.000 OA
BRANCH  13  14
ATOM     14  C   UNL     1      -0.752  11.602  18.910  0.00  0.00    +0.000 C 
ATOM     15  F   UNL     1      -1.069  12.921  18.888  0.00  0.00    +0.000 F 
ATOM     16  F   UNL     1      -1.281  11.053  17.788  0.00  0.00    +0.000 F 
ENDBRANCH  13  14
ENDBRANCH  10  13
ENDBRANCH   4   7
BRANCH   1  17
ATOM     17  C   UNL     1       4.745   3.787  17.806  0.00  0.00    +0.000 C 
BRANCH  17  18
ATOM     18  O   UNL     1       6.092   4.132  18.138  0.00  0.00    +0.000 OA
BRANCH  18  19
ATOM     19  C   UNL     1       6.837   4.540  17.078  0.00  0.00    +0.000 C 
ATOM     20  O   UNL     1       8.059   4.444  17.025  0.00  0.00    +0.000 OA
BRANCH  19  21
ATOM     21  C   UNL     1       5.972   5.144  15.999  0.00  0.00    +0.000 C 
BRANCH  21  26
ATOM     22  C   UNL     1       6.045   3.473  12.578  0.00  0.00    +0.000 A 
ATOM     23  C   UNL     1       7.139   4.095  11.977  0.00  0.00    +0.000 A 
ATOM     24  C   UNL     1       7.857   5.073  12.664  0.00  0.00    +0.000 A 
ATOM     25  C   UNL     1       7.487   5.438  13.962  0.00  0.00    +0.000 A 
ATOM     26  C   UNL     1       6.379   4.842  14.575  0.00  0.00    +0.000 A 
ATOM     27  C   UNL     1       5.675   3.846  13.871  0.00  0.00    +0.000 A 
BRANCH  22  29
ATOM     28  C   UNL     1       6.278   1.512  11.256  0.00  0.00    +0.000 C 
ATOM     29  O   UNL     1       5.434   2.508  11.819  0.00  0.00    +0.000 OA
ENDBRANCH  22  29
ENDBRANCH  21  26
ENDBRANCH  19  21
ENDBRANCH  18  19
ENDBRANCH  17  18
ENDBRANCH   1  17
TORSDOF 9
ENDMDL
MODEL 2
REMARK VINA RESULT:      -7.6      4.215      7.606
REMARK  Name = 
REMARK  10 active torsions:
REMARK  status: ('A' for Active; 'I' for Inactive)
REMARK    1  A    between atoms: C_1  and  O_2
REMARK    2  A    between atoms: O_2  and  C_3
REMARK    3  A    between atoms: C_7  and  C_8
REMARK    4  A    between atoms: C_8  and  C_9
REMARK    5  A    between atoms: C_9  and  O_11
REMARK    6  A    between atoms: O_11  and  C_12
REMARK    7  A    between atoms: C_12  and  C_13
REMARK    8  A    between atoms: C_16  and  C_18
REMARK    9  A    between atoms: C_21  and  O_22
REMARK   10  A    between atoms: O_22  and  C_23
REMARK                            x       y       z     vdW  Elec       q    Type
REMARK                         _______ _______ _______ _____ _____    ______ ____
ROOT
ATOM      1  C   UNL     1       4.344   2.682  18.514  0.00  0.00    +0.000 C 
ATOM      2  O   UNL     1       3.844   2.235  17.487  0.00  0.00    +0.000 OA
ATOM      3  N   UNL     1       5.119   3.828  18.609  0.00  0.00    +0.000 N 
ATOM      4  C   UNL     1       5.529   4.567  17.510  0.00  0.00    +0.000 C 
ATOM      5  O   UNL     1       5.242   4.310  16.347  0.00  0.00    +0.000 OA
ATOM      6  H   UNL     1       5.417   4.119  19.526  0.00  0.00    +0.000 HD
ENDROOT
BRANCH   4   7
ATOM      7  C   UNL     1       6.438   5.722  17.758  0.00  0.00    +0.000 A 
ATOM      8  C   UNL     1       7.362   5.583  18.803  0.00  0.00    +0.000 A 
ATOM      9  C   UNL     1       8.234   6.624  19.125  0.00  0.00    +0.000 A 
ATOM     10  C   UNL     1       8.217   7.809  18.392  0.00  0.00    +0.000 A 
ATOM     11  C   UNL     1       7.310   7.954  17.338  0.00  0.00    +0.000 A 
ATOM     12  C   UNL     1       6.424   6.910  17.015  0.00  0.00    +0.000 A 
BRANCH  10  13
ATOM     13  O   UNL     1       9.099   8.753  18.829  0.00  0.00    +0.000 OA
BRANCH  13  14
ATOM     14  C   UNL     1       8.749  10.101  18.576  0.00  0.00    +0.000 C 
ATOM     15  F   UNL     1       8.959  10.823  19.705  0.00  0.00    +0.000 F 
ATOM     16  F   UNL     1       9.613  10.572  17.642  0.00  0.00    +0.000 F 
ENDBRANCH  13  14
ENDBRANCH  10  13
ENDBRANCH   4   7
BRANCH   1  17
ATOM     17  C   UNL     1       4.092   1.982  19.850  0.00  0.00    +0.000 C 
BRANCH  17  18
ATOM     18  O   UNL     1       3.220   2.741  20.691  0.00  0.00    +0.000 OA
BRANCH  18  19
ATOM     19  C   UNL     1       1.920   2.728  20.296  0.00  0.00    +0.000 C 
ATOM     20  O   UNL     1       1.413   1.818  19.647  0.00  0.00    +0.000 OA
BRANCH  19  21
ATOM     21  C   UNL     1       1.201   3.980  20.733  0.00  0.00    +0.000 C 
BRANCH  21  26
ATOM     22  C   UNL     1       1.781   7.704  20.183  0.00  0.00    +0.000 A 
ATOM     23  C   UNL     1       2.307   7.726  18.892  0.00  0.00    +0.000 A 
ATOM     24  C   UNL     1       2.496   6.536  18.189  0.00  0.00    +0.000 A 
ATOM     25  C   UNL     1       2.158   5.311  18.773  0.00  0.00    +0.000 A 
ATOM     26  C   UNL     1       1.649   5.266  20.075  0.00  0.00    +0.000 A 
ATOM     27  C   UNL     1       1.451   6.478  20.763  0.00  0.00    +0.000 A 
BRANCH  22  29
ATOM     28  C   UNL     1       1.269   8.944  22.144  0.00  0.00    +0.000 C 
ATOM     29  O   UNL     1       1.613   8.934  20.764  0.00  0.00    +0.000 OA
ENDBRANCH  22  29
ENDBRANCH  21  26
ENDBRANCH  19  21
ENDBRANCH  18  19
ENDBRANCH  17  18
ENDBRANCH   1  17
TORSDOF 9
ENDMDL
MODEL 3
REMARK VINA RESULT:      -7.6      0.844      1.308
REMARK  Name = 
REMARK  10 active torsions:
REMARK  status: ('A' for Active; 'I' for Inactive)
REMARK    1  A    between atoms: C_1  and  O_2
REMARK    2  A    between atoms: O_2  and  C_3
REMARK    3  A    between atoms: C_7  and  C_8
REMARK    4  A    between atoms: C_8  and  C_9
REMARK    5  A    between atoms: C_9  and  O_11
REMARK    6  A    between atoms: O_11  and  C_12
REMARK    7  A    between atoms: C_12  and  C_13
REMARK    8  A    between atoms: C_16  and  C_18
REMARK    9  A    between atoms: C_21  and  O_22
REMARK   10  A    between atoms: O_22  and  C_23
REMARK                            x       y       z     vdW  Elec       q    Type
REMARK                         _______ _______ _______ _____ _____    ______ ____
ROOT
ATOM      1  C   UNL     1       4.820   4.934  19.329  0.00  0.00    +0.000 C 
ATOM      2  O   UNL     1       4.371   3.793  19.374  0.00  0.00    +0.000 OA
ATOM      3  N   UNL     1       4.087   6.102  19.467  0.00  0.00    +0.000 N 
ATOM      4  C   UNL     1       2.704   6.131  19.563  0.00  0.00    +0.000 C 
ATOM      5  O   UNL     1       1.982   5.142  19.558  0.00  0.00    +0.000 OA
ATOM      6  H   UNL     1       4.590   6.975  19.472  0.00  0.00    +0.000 HD
ENDROOT
BRANCH   4   7
ATOM      7  C   UNL     1       2.046   7.467  19.612  0.00  0.00    +0.000 A 
ATOM      8  C   UNL     1       1.957   8.170  18.402  0.00  0.00    +0.000 A 
ATOM      9  C   UNL     1       1.381   9.440  18.358  0.00  0.00    +0.000 A 
ATOM     10  C   UNL     1       0.859  10.017  19.514  0.00  0.00    +0.000 A 
ATOM     11  C   UNL     1       0.928   9.320  20.724  0.00  0.00    +0.000 A 
ATOM     12  C   UNL     1       1.514   8.042  20.774  0.00  0.00    +0.000 A 
BRANCH  10  13
ATOM     13  O   UNL     1       0.352  11.271  19.337  0.00  0.00    +0.000 OA
BRANCH  13  14
ATOM     14  C   UNL     1      -0.991  11.347  18.897  0.00  0.00    +0.000 C 
ATOM     15  F   UNL     1      -0.999  11.436  17.543  0.00  0.00    +0.000 F 
ATOM     16  F   UNL     1      -1.585  10.170  19.216  0.00  0.00    +0.000 F 
ENDBRANCH  13  14
ENDBRANCH  10  13
ENDBRANCH   4   7
BRANCH   1  17
ATOM     17  C   UNL     1       6.323   5.152  19.150  0.00  0.00    +0.000 C 
BRANCH  17  18
ATOM     18  O   UNL     1       6.621   5.803  17.912  0.00  0.00    +0.000 OA
BRANCH  18  19
ATOM     19  C   UNL     1       6.929   4.951  16.899  0.00  0.00    +0.000 C 
ATOM     20  O   UNL     1       7.978   4.317  16.837  0.00  0.00    +0.000 OA
BRANCH  19  21
ATOM     21  C   UNL     1       5.835   4.913  15.861  0.00  0.00    +0.000 C 
BRANCH  21  26
ATOM     22  C   UNL     1       6.025   3.306  12.413  0.00  0.00    +0.000 A 
ATOM     23  C   UNL     1       7.111   3.971  11.844  0.00  0.00    +0.000 A 
ATOM     24  C   UNL     1       7.786   4.958  12.563  0.00  0.00    +0.000 A 
ATOM     25  C   UNL     1       7.380   5.289  13.859  0.00  0.00    +0.000 A 
ATOM     26  C   UNL     1       6.279   4.649  14.440  0.00  0.00    +0.000 A 
ATOM     27  C   UNL     1       5.619   3.644  13.705  0.00  0.00    +0.000 A 
BRANCH  22  29
ATOM     28  C   UNL     1       6.339   1.358  11.091  0.00  0.00    +0.000 C 
ATOM     29  O   UNL     1       5.458   2.337  11.626  0.00  0.00    +0.000 OA
ENDBRANCH  22  29
ENDBRANCH  21  26
ENDBRANCH  19  21
ENDBRANCH  18  19
ENDBRANCH  17  18
ENDBRANCH   1  17
TORSDOF 9
ENDMDL
MODEL 4
REMARK VINA RESULT:      -7.5      4.765      6.258
REMARK  Name = 
REMARK  10 active torsions:
REMARK  status: ('A' for Active; 'I' for Inactive)
REMARK    1  A    between atoms: C_1  and  O_2
REMARK    2  A    between atoms: O_2  and  C_3
REMARK    3  A    between atoms: C_7  and  C_8
REMARK    4  A    between atoms: C_8  and  C_9
REMARK    5  A    between atoms: C_9  and  O_11
REMARK    6  A    between atoms: O_11  and  C_12
REMARK    7  A    between atoms: C_12  and  C_13
REMARK    8  A    between atoms: C_16  and  C_18
REMARK    9  A    between atoms: C_21  and  O_22
REMARK   10  A    between atoms: O_22  and  C_23
REMARK                            x       y       z     vdW  Elec       q    Type
REMARK                         _______ _______ _______ _____ _____    ______ ____
ROOT
ATOM      1  C   UNL     1       5.899   5.659  17.562  0.00  0.00    +0.000 C 
ATOM      2  O   UNL     1       5.747   4.445  17.651  0.00  0.00    +0.000 OA
ATOM      3  N   UNL     1       4.968   6.623  17.915  0.00  0.00    +0.000 N 
ATOM      4  C   UNL     1       3.674   6.327  18.317  0.00  0.00    +0.000 C 
ATOM      5  O   UNL     1       3.217   5.195  18.425  0.00  0.00    +0.000 OA
ATOM      6  H   UNL     1       5.244   7.589  17.850  0.00  0.00    +0.000 HD
ENDROOT
BRANCH   4   7
ATOM      7  C   UNL     1       2.754   7.471  18.575  0.00  0.00    +0.000 A 
ATOM      8  C   UNL     1       2.166   7.531  19.846  0.00  0.00    +0.000 A 
ATOM      9  C   UNL     1       1.271   8.551  20.168  0.00  0.00    +0.000 A 
ATOM     10  C   UNL     1       0.970   9.544  19.237  0.00  0.00    +0.000 A 
ATOM     11  C   UNL     1       1.561   9.503  17.971  0.00  0.00    +0.000 A 
ATOM     12  C   UNL     1       2.459   8.472  17.640  0.00  0.00    +0.000 A 
BRANCH  10  13
ATOM     13  O   UNL     1       0.060  10.464  19.670  0.00  0.00    +0.000 OA
BRANCH  13  14
ATOM     14  C   UNL     1      -0.935  10.844  18.739  0.00  0.00    +0.000 C 
ATOM     15  F   UNL     1      -1.636   9.740  18.378  0.00  0.00    +0.000 F 
ATOM     16  F   UNL     1      -1.800  11.663  19.388  0.00  0.00    +0.000 F 
ENDBRANCH  13  14
ENDBRANCH  10  13
ENDBRANCH   4   7
BRANCH   1  17
ATOM     17  C   UNL     1       7.230   6.223  17.063  0.00  0.00    +0.000 C 
BRANCH  17  18
ATOM     18  O   UNL     1       7.210   7.651  16.998  0.00  0.00    +0.000 OA
BRANCH  18  19
ATOM     19  C   UNL     1       7.972   8.260  17.943  0.00  0.00    +0.000 C 
ATOM     20  O   UNL     1       8.586   7.655  18.817  0.00  0.00    +0.000 OA
BRANCH  19  21
ATOM     21  C   UNL     1       7.939   9.761  17.793  0.00  0.00    +0.000 C 
BRANCH  21  26
ATOM     22  C   UNL     1      11.134  11.786  18.236  0.00  0.00    +0.000 A 
ATOM     23  C   UNL     1      11.256  11.832  19.624  0.00  0.00    +0.000 A 
ATOM     24  C   UNL     1      10.299  11.221  20.435  0.00  0.00    +0.000 A 
ATOM     25  C   UNL     1       9.209  10.558  19.862  0.00  0.00    +0.000 A 
ATOM     26  C   UNL     1       9.057  10.519  18.472  0.00  0.00    +0.000 A 
ATOM     27  C   UNL     1      10.041  11.128  17.669  0.00  0.00    +0.000 A 
BRANCH  22  29
ATOM     28  C   UNL     1      11.831  13.621  16.897  0.00  0.00    +0.000 C 
ATOM     29  O   UNL     1      12.148  12.394  17.542  0.00  0.00    +0.000 OA
ENDBRANCH  22  29
ENDBRANCH  21  26
ENDBRANCH  19  21
ENDBRANCH  18  19
ENDBRANCH  17  18
ENDBRANCH   1  17
TORSDOF 9
ENDMDL
MODEL 5
REMARK VINA RESULT:      -7.5      3.814      8.919
REMARK  Name = 
REMARK  10 active torsions:
REMARK  status: ('A' for Active; 'I' for Inactive)
REMARK    1  A    between atoms: C_1  and  O_2
REMARK    2  A    between atoms: O_2  and  C_3
REMARK    3  A    between atoms: C_7  and  C_8
REMARK    4  A    between atoms: C_8  and  C_9
REMARK    5  A    between atoms: C_9  and  O_11
REMARK    6  A    between atoms: O_11  and  C_12
REMARK    7  A    between atoms: C_12  and  C_13
REMARK    8  A    between atoms: C_16  and  C_18
REMARK    9  A    between atoms: C_21  and  O_22
REMARK   10  A    between atoms: O_22  and  C_23
REMARK                            x       y       z     vdW  Elec       q    Type
REMARK                         _______ _______ _______ _____ _____    ______ ____
ROOT
ATOM      1  C   UNL     1       2.272   5.229  20.539  0.00  0.00    +0.000 C 
ATOM      2  O   UNL     1       2.149   4.352  21.389  0.00  0.00    +0.000 OA
ATOM      3  N   UNL     1       3.087   5.166  19.420  0.00  0.00    +0.000 N 
ATOM      4  C   UNL     1       3.973   4.128  19.175  0.00  0.00    +0.000 C 
ATOM      5  O   UNL     1       4.120   3.150  19.897  0.00  0.00    +0.000 OA
ATOM      6  H   UNL     1       3.048   5.932  18.767  0.00  0.00    +0.000 HD
ENDROOT
BRANCH   4   7
ATOM      7  C   UNL     1       4.854   4.243  17.978  0.00  0.00    +0.000 A 
ATOM      8  C   UNL     1       6.198   4.564  18.215  0.00  0.00    +0.000 A 
ATOM      9  C   UNL     1       7.090   4.719  17.153  0.00  0.00    +0.000 A 
ATOM     10  C   UNL     1       6.662   4.528  15.841  0.00  0.00    +0.000 A 
ATOM     11  C   UNL     1       5.328   4.195  15.593  0.00  0.00    +0.000 A 
ATOM     12  C   UNL     1       4.423   4.045  16.660  0.00  0.00    +0.000 A 
BRANCH  10  13
ATOM     13  O   UNL     1       7.627   4.739  14.899  0.00  0.00    +0.000 OA
BRANCH  13  14
ATOM     14  C   UNL     1       7.171   5.072  13.601  0.00  0.00    +0.000 C 
ATOM     15  F   UNL     1       8.202   5.613  12.905  0.00  0.00    +0.000 F 
ATOM     16  F   UNL     1       6.845   3.911  12.980  0.00  0.00    +0.000 F 
ENDBRANCH  13  14
ENDBRANCH  10  13
ENDBRANCH   4   7
BRANCH   1  17
ATOM     17  C   UNL     1       1.446   6.511  20.645  0.00  0.00    +0.000 C 
BRANCH  17  18
ATOM     18  O   UNL     1       2.046   7.590  19.924  0.00  0.00    +0.000 OA
BRANCH  18  19
ATOM     19  C   UNL     1       1.409   8.780  20.077  0.00  0.00    +0.000 C 
ATOM     20  O   UNL     1       0.971   9.186  21.149  0.00  0.00    +0.000 OA
BRANCH  19  21
ATOM     21  C   UNL     1       1.288   9.511  18.763  0.00  0.00    +0.000 C 
BRANCH  21  26
ATOM     22  C   UNL     1      -2.079  10.210  17.126  0.00  0.00    +0.000 A 
ATOM     23  C   UNL     1      -2.486  11.368  17.787  0.00  0.00    +0.000 A 
ATOM     24  C   UNL     1      -1.684  11.930  18.780  0.00  0.00    +0.000 A 
ATOM     25  C   UNL     1      -0.465  11.336  19.122  0.00  0.00    +0.000 A 
ATOM     26  C   UNL     1      -0.049  10.161  18.486  0.00  0.00    +0.000 A 
ATOM     27  C   UNL     1      -0.865   9.617  17.475  0.00  0.00    +0.000 A 
BRANCH  22  29
ATOM     28  C   UNL     1      -3.140  10.634  15.043  0.00  0.00    +0.000 C 
ATOM     29  O   UNL     1      -2.933   9.766  16.150  0.00  0.00    +0.000 OA
ENDBRANCH  22  29
ENDBRANCH  21  26
ENDBRANCH  19  21
ENDBRANCH  18  19
ENDBRANCH  17  18
ENDBRANCH   1  17
TORSDOF 9
ENDMDL
MODEL 6
REMARK VINA RESULT:      -7.3      6.621      7.943
REMARK  Name = 
REMARK  10 active torsions:
REMARK  status: ('A' for Active; 'I' for Inactive)
REMARK    1  A    between atoms: C_1  and  O_2
REMARK    2  A    between atoms: O_2  and  C_3
REMARK    3  A    between atoms: C_7  and  C_8
REMARK    4  A    between atoms: C_8  and  C_9
REMARK    5  A    between atoms: C_9  and  O_11
REMARK    6  A    between atoms: O_11  and  C_12
REMARK    7  A    between atoms: C_12  and  C_13
REMARK    8  A    between atoms: C_16  and  C_18
REMARK    9  A    between atoms: C_21  and  O_22
REMARK   10  A    between atoms: O_22  and  C_23
REMARK                            x       y       z     vdW  Elec       q    Type
REMARK                         _______ _______ _______ _____ _____    ______ ____
ROOT
ATOM      1  C   UNL     1       8.120   8.426  18.113  0.00  0.00    +0.000 C 
ATOM      2  O   UNL     1       8.679   7.717  18.944  0.00  0.00    +0.000 OA
ATOM      3  N   UNL     1       8.342   9.780  17.918  0.00  0.00    +0.000 N 
ATOM      4  C   UNL     1       9.161  10.546  18.733  0.00  0.00    +0.000 C 
ATOM      5  O   UNL     1       9.791  10.118  19.692  0.00  0.00    +0.000 OA
ATOM      6  H   UNL     1       7.859  10.230  17.158  0.00  0.00    +0.000 HD
ENDROOT
BRANCH   4   7
ATOM      7  C   UNL     1       9.230  12.010  18.458  0.00  0.00    +0.000 A 
ATOM      8  C   UNL     1      10.354  12.690  18.948  0.00  0.00    +0.000 A 
ATOM      9  C   UNL     1      10.490  14.066  18.762  0.00  0.00    +0.000 A 
ATOM     10  C   UNL     1       9.521  14.781  18.060  0.00  0.00    +0.000 A 
ATOM     11  C   UNL     1       8.402  14.112  17.556  0.00  0.00    +0.000 A 
ATOM     12  C   UNL     1       8.258  12.725  17.747  0.00  0.00    +0.000 A 
BRANCH  10  13
ATOM     13  O   UNL     1       9.762  16.121  17.976  0.00  0.00    +0.000 OA
BRANCH  13  14
ATOM     14  C   UNL     1      10.940  16.503  17.292  0.00  0.00    +0.000 C 
ATOM     15  F   UNL     1      10.905  15.979  16.041  0.00  0.00    +0.000 F 
ATOM     16  F   UNL     1      10.905  17.851  17.154  0.00  0.00    +0.000 F 
ENDBRANCH  13  14
ENDBRANCH  10  13
ENDBRANCH   4   7
BRANCH   1  17
ATOM     17  C   UNL     1       7.107   7.809  17.148  0.00  0.00    +0.000 C 
BRANCH  17  18
ATOM     18  O   UNL     1       7.687   6.759  16.369  0.00  0.00    +0.000 OA
BRANCH  18  19
ATOM     19  C   UNL     1       7.064   5.560  16.508  0.00  0.00    +0.000 C 
ATOM     20  O   UNL     1       7.585   4.577  17.027  0.00  0.00    +0.000 OA
BRANCH  19  21
ATOM     21  C   UNL     1       5.676   5.590  15.918  0.00  0.00    +0.000 C 
BRANCH  21  26
ATOM     22  C   UNL     1       3.039   3.918  18.099  0.00  0.00    +0.000 A 
ATOM     23  C   UNL     1       2.339   5.016  18.598  0.00  0.00    +0.000 A 
ATOM     24  C   UNL     1       2.720   6.311  18.248  0.00  0.00    +0.000 A 
ATOM     25  C   UNL     1       3.807   6.519  17.394  0.00  0.00    +0.000 A 
ATOM     26  C   UNL     1       4.536   5.432  16.899  0.00  0.00    +0.000 A 
ATOM     27  C   UNL     1       4.127   4.131  17.251  0.00  0.00    +0.000 A 
BRANCH  22  29
ATOM     28  C   UNL     1       3.426   1.584  18.313  0.00  0.00    +0.000 C 
ATOM     29  O   UNL     1       2.557   2.695  18.487  0.00  0.00    +0.000 OA
ENDBRANCH  22  29
ENDBRANCH  21  26
ENDBRANCH  19  21
ENDBRANCH  18  19
ENDBRANCH  17  18
ENDBRANCH   1  17
TORSDOF 9
ENDMDL
MODEL 7
REMARK VINA RESULT:      -7.3      4.751     11.493
REMARK  Name = 
REMARK  10 active torsions:
REMARK  status: ('A' for Active; 'I' for Inactive)
REMARK    1  A    between atoms: C_1  and  O_2
REMARK    2  A    between atoms: O_2  and  C_3
REMARK    3  A    between atoms: C_7  and  C_8
REMARK    4  A    between atoms: C_8  and  C_9
REMARK    5  A    between atoms: C_9  and  O_11
REMARK    6  A    between atoms: O_11  and  C_12
REMARK    7  A    between atoms: C_12  and  C_13
REMARK    8  A    between atoms: C_16  and  C_18
REMARK    9  A    between atoms: C_21  and  O_22
REMARK   10  A    between atoms: O_22  and  C_23
REMARK                            x       y       z     vdW  Elec       q    Type
REMARK                         _______ _______ _______ _____ _____    ______ ____
ROOT
ATOM      1  C   UNL     1       0.628   9.960  19.221  0.00  0.00    +0.000 C 
ATOM      2  O   UNL     1       0.971  10.916  18.533  0.00  0.00    +0.000 OA
ATOM      3  N   UNL     1       1.237   8.715  19.243  0.00  0.00    +0.000 N 
ATOM      4  C   UNL     1       2.265   8.350  18.387  0.00  0.00    +0.000 C 
ATOM      5  O   UNL     1       2.762   9.081  17.539  0.00  0.00    +0.000 OA
ATOM      6  H   UNL     1       0.892   8.035  19.902  0.00  0.00    +0.000 HD
ENDROOT
BRANCH   4   7
ATOM      7  C   UNL     1       2.759   6.945  18.463  0.00  0.00    +0.000 A 
ATOM      8  C   UNL     1       2.320   6.182  19.554  0.00  0.00    +0.000 A 
ATOM      9  C   UNL     1       2.752   4.866  19.722  0.00  0.00    +0.000 A 
ATOM     10  C   UNL     1       3.606   4.282  18.789  0.00  0.00    +0.000 A 
ATOM     11  C   UNL     1       4.040   5.028  17.689  0.00  0.00    +0.000 A 
ATOM     12  C   UNL     1       3.612   6.358  17.520  0.00  0.00    +0.000 A 
BRANCH  10  13
ATOM     13  O   UNL     1       3.974   3.002  19.087  0.00  0.00    +0.000 OA
BRANCH  13  14
ATOM     14  C   UNL     1       3.064   1.986  18.710  0.00  0.00    +0.000 C 
ATOM     15  F   UNL     1       2.470   2.346  17.544  0.00  0.00    +0.000 F 
ATOM     16  F   UNL     1       3.792   0.871  18.452  0.00  0.00    +0.000 F 
ENDBRANCH  13  14
ENDBRANCH  10  13
ENDBRANCH   4   7
BRANCH   1  17
ATOM     17  C   UNL     1      -0.544  10.104  20.193  0.00  0.00    +0.000 C 
BRANCH  17  18
ATOM     18  O   UNL     1      -0.259   9.507  21.460  0.00  0.00    +0.000 OA
BRANCH  18  19
ATOM     19  C   UNL     1      -0.246  10.386  22.495  0.00  0.00    +0.000 C 
ATOM     20  O   UNL     1       0.051  10.080  23.646  0.00  0.00    +0.000 OA
BRANCH  19  21
ATOM     21  C   UNL     1      -0.669  11.764  22.051  0.00  0.00    +0.000 C 
BRANCH  21  26
ATOM     22  C   UNL     1      -3.754  12.607  24.119  0.00  0.00    +0.000 A 
ATOM     23  C   UNL     1      -3.434  13.872  24.612  0.00  0.00    +0.000 A 
ATOM     24  C   UNL     1      -2.211  14.462  24.294  0.00  0.00    +0.000 A 
ATOM     25  C   UNL     1      -1.295  13.790  23.478  0.00  0.00    +0.000 A 
ATOM     26  C   UNL     1      -1.588  12.511  22.992  0.00  0.00    +0.000 A 
ATOM     27  C   UNL     1      -2.834  11.938  23.311  0.00  0.00    +0.000 A 
BRANCH  22  29
ATOM     28  C   UNL     1      -6.112  12.858  23.967  0.00  0.00    +0.000 C 
ATOM     29  O   UNL     1      -4.994  12.141  24.473  0.00  0.00    +0.000 OA
ENDBRANCH  22  29
ENDBRANCH  21  26
ENDBRANCH  19  21
ENDBRANCH  18  19
ENDBRANCH  17  18
ENDBRANCH   1  17
TORSDOF 9
ENDMDL
MODEL 8
REMARK VINA RESULT:      -7.3      3.976     10.039
REMARK  Name = 
REMARK  10 active torsions:
REMARK  status: ('A' for Active; 'I' for Inactive)
REMARK    1  A    between atoms: C_1  and  O_2
REMARK    2  A    between atoms: O_2  and  C_3
REMARK    3  A    between atoms: C_7  and  C_8
REMARK    4  A    between atoms: C_8  and  C_9
REMARK    5  A    between atoms: C_9  and  O_11
REMARK    6  A    between atoms: O_11  and  C_12
REMARK    7  A    between atoms: C_12  and  C_13
REMARK    8  A    between atoms: C_16  and  C_18
REMARK    9  A    between atoms: C_21  and  O_22
REMARK   10  A    between atoms: O_22  and  C_23
REMARK                            x       y       z     vdW  Elec       q    Type
REMARK                         _______ _______ _______ _____ _____    ______ ____
ROOT
ATOM      1  C   UNL     1       1.968   8.290  18.651  0.00  0.00    +0.000 C 
ATOM      2  O   UNL     1       1.835   8.206  19.867  0.00  0.00    +0.000 OA
ATOM      3  N   UNL     1       2.698   7.424  17.852  0.00  0.00    +0.000 N 
ATOM      4  C   UNL     1       3.480   6.395  18.353  0.00  0.00    +0.000 C 
ATOM      5  O   UNL     1       3.598   6.121  19.541  0.00  0.00    +0.000 OA
ATOM      6  H   UNL     1       2.675   7.572  16.855  0.00  0.00    +0.000 HD
ENDROOT
BRANCH   4   7
ATOM      7  C   UNL     1       4.284   5.603  17.379  0.00  0.00    +0.000 A 
ATOM      8  C   UNL     1       4.972   6.327  16.395  0.00  0.00    +0.000 A 
ATOM      9  C   UNL     1       5.727   5.668  15.425  0.00  0.00    +0.000 A 
ATOM     10  C   UNL     1       5.831   4.278  15.437  0.00  0.00    +0.000 A 
ATOM     11  C   UNL     1       5.161   3.546  16.421  0.00  0.00    +0.000 A 
ATOM     12  C   UNL     1       4.393   4.206  17.398  0.00  0.00    +0.000 A 
BRANCH  10  13
ATOM     13  O   UNL     1       6.575   3.761  14.417  0.00  0.00    +0.000 OA
BRANCH  13  14
ATOM     14  C   UNL     1       6.138   4.067  13.107  0.00  0.00    +0.000 C 
ATOM     15  F   UNL     1       6.814   3.282  12.230  0.00  0.00    +0.000 F 
ATOM     16  F   UNL     1       4.832   3.712  13.026  0.00  0.00    +0.000 F 
ENDBRANCH  13  14
ENDBRANCH  10  13
ENDBRANCH   4   7
BRANCH   1  17
ATOM     17  C   UNL     1       1.256   9.404  17.883  0.00  0.00    +0.000 C 
BRANCH  17  18
ATOM     18  O   UNL     1       1.467  10.683  18.486  0.00  0.00    +0.000 OA
BRANCH  18  19
ATOM     19  C   UNL     1       0.323  11.328  18.832  0.00  0.00    +0.000 C 
ATOM     20  O   UNL     1       0.258  12.534  19.048  0.00  0.00    +0.000 OA
BRANCH  19  21
ATOM     21  C   UNL     1      -0.837  10.369  18.940  0.00  0.00    +0.000 C 
BRANCH  21  26
ATOM     22  C   UNL     1      -4.236  11.652  17.799  0.00  0.00    +0.000 A 
ATOM     23  C   UNL     1      -4.328  11.122  16.513  0.00  0.00    +0.000 A 
ATOM     24  C   UNL     1      -3.285  10.355  15.993  0.00  0.00    +0.000 A 
ATOM     25  C   UNL     1      -2.139  10.112  16.757  0.00  0.00    +0.000 A 
ATOM     26  C   UNL     1      -2.019  10.653  18.041  0.00  0.00    +0.000 A 
ATOM     27  C   UNL     1      -3.088  11.412  18.556  0.00  0.00    +0.000 A 
BRANCH  22  29
ATOM     28  C   UNL     1      -5.316  12.828  19.559  0.00  0.00    +0.000 C 
ATOM     29  O   UNL     1      -5.332  12.363  18.215  0.00  0.00    +0.000 OA
ENDBRANCH  22  29
ENDBRANCH  21  26
ENDBRANCH  19  21
ENDBRANCH  18  19
ENDBRANCH  17  18
ENDBRANCH   1  17
TORSDOF 9
ENDMDL
MODEL 9
REMARK VINA RESULT:      -7.3      0.979      1.421
REMARK  Name = 
REMARK  10 active torsions:
REMARK  status: ('A' for Active; 'I' for Inactive)
REMARK    1  A    between atoms: C_1  and  O_2
REMARK    2  A    between atoms: O_2  and  C_3
REMARK    3  A    between atoms: C_7  and  C_8
REMARK    4  A    between atoms: C_8  and  C_9
REMARK    5  A    between atoms: C_9  and  O_11
REMARK    6  A    between atoms: O_11  and  C_12
REMARK    7  A    between atoms: C_12  and  C_13
REMARK    8  A    between atoms: C_16  and  C_18
REMARK    9  A    between atoms: C_21  and  O_22
REMARK   10  A    between atoms: O_22  and  C_23
REMARK                            x       y       z     vdW  Elec       q    Type
REMARK                         _______ _______ _______ _____ _____    ______ ____
ROOT
ATOM      1  C   UNL     1       4.224   3.951  19.400  0.00  0.00    +0.000 C 
ATOM      2  O   UNL     1       3.678   3.022  19.988  0.00  0.00    +0.000 OA
ATOM      3  N   UNL     1       3.748   5.249  19.316  0.00  0.00    +0.000 N 
ATOM      4  C   UNL     1       2.510   5.644  19.800  0.00  0.00    +0.000 C 
ATOM      5  O   UNL     1       1.714   4.908  20.369  0.00  0.00    +0.000 OA
ATOM      6  H   UNL     1       4.327   5.933  18.854  0.00  0.00    +0.000 HD
ENDROOT
BRANCH   4   7
ATOM      7  C   UNL     1       2.093   7.054  19.554  0.00  0.00    +0.000 A 
ATOM      8  C   UNL     1       2.330   7.566  18.270  0.00  0.00    +0.000 A 
ATOM      9  C   UNL     1       1.997   8.884  17.957  0.00  0.00    +0.000 A 
ATOM     10  C   UNL     1       1.396   9.704  18.911  0.00  0.00    +0.000 A 
ATOM     11  C   UNL     1       1.142   9.201  20.190  0.00  0.00    +0.000 A 
ATOM     12  C   UNL     1       1.482   7.874  20.512  0.00  0.00    +0.000 A 
BRANCH  10  13
ATOM     13  O   UNL     1       1.149  10.976  18.484  0.00  0.00    +0.000 OA
BRANCH  13  14
ATOM     14  C   UNL     1       1.167  11.983  19.477  0.00  0.00    +0.000 C 
ATOM     15  F   UNL     1       1.751  13.093  18.959  0.00  0.00    +0.000 F 
ATOM     16  F   UNL     1      -0.123  12.307  19.744  0.00  0.00    +0.000 F 
ENDBRANCH  13  14
ENDBRANCH  10  13
ENDBRANCH   4   7
BRANCH   1  17
ATOM     17  C   UNL     1       5.573   3.729  18.716  0.00  0.00    +0.000 C 
BRANCH  17  18
ATOM     18  O   UNL     1       6.133   4.954  18.237  0.00  0.00    +0.000 OA
BRANCH  18  19
ATOM     19  C   UNL     1       6.763   4.844  17.039  0.00  0.00    +0.000 C 
ATOM     20  O   UNL     1       7.899   4.401  16.903  0.00  0.00    +0.000 OA
BRANCH  19  21
ATOM     21  C   UNL     1       5.899   5.360  15.914  0.00  0.00    +0.000 C 
BRANCH  21  26
ATOM     22  C   UNL     1       5.932   3.537  12.570  0.00  0.00    +0.000 A 
ATOM     23  C   UNL     1       7.090   4.041  11.979  0.00  0.00    +0.000 A 
ATOM     24  C   UNL     1       7.867   4.987  12.648  0.00  0.00    +0.000 A 
ATOM     25  C   UNL     1       7.491   5.438  13.917  0.00  0.00    +0.000 A 
ATOM     26  C   UNL     1       6.321   4.962  14.518  0.00  0.00    +0.000 A 
ATOM     27  C   UNL     1       5.557   3.996  13.834  0.00  0.00    +0.000 A 
BRANCH  22  29
ATOM     28  C   UNL     1       4.064   3.011  11.200  0.00  0.00    +0.000 C 
ATOM     29  O   UNL     1       5.265   2.592  11.833  0.00  0.00    +0.000 OA
ENDBRANCH  22  29
ENDBRANCH  21  26
ENDBRANCH  19  21
ENDBRANCH  18  19
ENDBRANCH  17  18
ENDBRANCH   1  17
TORSDOF 9
ENDMDL
