MODEL 1
REMARK VINA RESULT:      -8.8      0.000      0.000
REMARK  Name = 
REMARK  11 active torsions:
REMARK  status: ('A' for Active; 'I' for Inactive)
REMARK    1  A    between atoms: C_1  and  C_2
REMARK    2  A    between atoms: C_2  and  N_3
REMARK    3  A    between atoms: C_6  and  O_7
REMARK    4  A    between atoms: O_7  and  C_8
REMARK    5  A    between atoms: C_8  and  C_9
REMARK    6  A    between atoms: C_9  and  C_10
REMARK    7  A    between atoms: C_10  and  C_11
REMARK    8  A    between atoms: C_11  and  C_12
REMARK    9  A    between atoms: C_12  and  N_13
REMARK   10  A    between atoms: C_24  and  C_25
REMARK   11  A    between atoms: C_34  and  C_35
REMARK                            x       y       z     vdW  Elec       q    Type
REMARK                         _______ _______ _______ _____ _____    ______ ____
ROOT
ATOM      1  C   UNL     1       0.253   9.736  20.080  0.00  0.00    +0.000 C 
ENDROOT
BRANCH   1   2
ATOM      2  O   UNL     1      -0.044  10.608  18.987  0.00  0.00    +0.000 OA
BRANCH   2   6
ATOM      3  N   UNL     1      -4.149  13.085  20.258  0.00  0.00    +0.000 N 
ATOM      4  C   UNL     1      -3.317  12.240  19.544  0.00  0.00    +0.000 A 
ATOM      5  C   UNL     1      -1.959  11.935  19.733  0.00  0.00    +0.000 A 
ATOM      6  C   UNL     1      -1.354  11.002  18.889  0.00  0.00    +0.000 A 
ATOM      7  C   UNL     1      -2.092  10.405  17.871  0.00  0.00    +0.000 A 
ATOM      8  C   UNL     1      -3.446  10.728  17.676  0.00  0.00    +0.000 A 
ATOM      9  C   UNL     1      -4.067  11.665  18.528  0.00  0.00    +0.000 A 
ATOM     10  C   UNL     1      -5.380  12.222  18.613  0.00  0.00    +0.000 A 
ATOM     11  C   UNL     1      -6.541  12.027  17.850  0.00  0.00    +0.000 A 
ATOM     12  C   UNL     1      -7.655  12.752  18.216  0.00  0.00    +0.000 A 
ATOM     13  N   UNL     1      -7.690  13.624  19.241  0.00  0.00    +0.000 NA
ATOM     14  C   UNL     1      -6.580  13.842  20.004  0.00  0.00    +0.000 A 
ATOM     15  C   UNL     1      -6.741  14.848  21.102  0.00  0.00    +0.000 C 
ATOM     16  C   UNL     1      -5.410  13.122  19.690  0.00  0.00    +0.000 A 
BRANCH   3  18
ATOM     17  C   UNL     1      -3.952  12.940  22.726  0.00  0.00    +0.000 C 
ATOM     18  C   UNL     1      -3.709  13.758  21.470  0.00  0.00    +0.000 C 
ENDBRANCH   3  18
ENDBRANCH   2   6
ENDBRANCH   1   2
BRANCH   1  19
ATOM     19  C   UNL     1       1.492   8.928  19.740  0.00  0.00    +0.000 C 
BRANCH  19  20
ATOM     20  C   UNL     1       1.816   9.002  18.249  0.00  0.00    +0.000 C 
BRANCH  20  21
ATOM     21  C   UNL     1       2.140   7.609  17.726  0.00  0.00    +0.000 C 
BRANCH  21  22
ATOM     22  C   UNL     1       3.199   6.898  18.564  0.00  0.00    +0.000 C 
BRANCH  22  23
ATOM     23  N   UNL     1       3.505   5.589  17.999  0.00  0.00    +0.000 N 
ATOM     24  C   UNL     1       4.400   5.408  16.957  0.00  0.00    +0.000 A 
ATOM     25  C   UNL     1       5.106   6.329  16.161  0.00  0.00    +0.000 A 
ATOM     26  C   UNL     1       5.977   5.835  15.184  0.00  0.00    +0.000 A 
ATOM     27  C   UNL     1       6.149   4.468  15.008  0.00  0.00    +0.000 A 
ATOM     28  C   UNL     1       5.445   3.559  15.802  0.00  0.00    +0.000 A 
ATOM     29  C   UNL     1       4.553   4.034  16.788  0.00  0.00    +0.000 A 
ATOM     30  C   UNL     1       3.705   3.387  17.736  0.00  0.00    +0.000 A 
ATOM     31  C   UNL     1       3.457   2.034  18.011  0.00  0.00    +0.000 A 
ATOM     32  C   UNL     1       2.560   1.757  19.019  0.00  0.00    +0.000 A 
ATOM     33  N   UNL     1       1.920   2.694  19.742  0.00  0.00    +0.000 NA
ATOM     34  C   UNL     1       2.137   4.019  19.508  0.00  0.00    +0.000 A 
ATOM     35  C   UNL     1       1.355   4.954  20.379  0.00  0.00    +0.000 C 
ATOM     36  C   UNL     1       3.044   4.371  18.483  0.00  0.00    +0.000 A 
ENDBRANCH  22  23
ENDBRANCH  21  22
ENDBRANCH  20  21
ENDBRANCH  19  20
ENDBRANCH   1  19
TORSDOF 8
ENDMDL
MODEL 2
REMARK VINA RESULT:      -8.7      1.071      2.893
REMARK  Name = 
REMARK  11 active torsions:
REMARK  status: ('A' for Active; 'I' for Inactive)
REMARK    1  A    between atoms: C_1  and  C_2
REMARK    2  A    between atoms: C_2  and  N_3
REMARK    3  A    between atoms: C_6  and  O_7
REMARK    4  A    between atoms: O_7  and  C_8
REMARK    5  A    between atoms: C_8  and  C_9
REMARK    6  A    between atoms: C_9  and  C_10
REMARK    7  A    between atoms: C_10  and  C_11
REMARK    8  A    between atoms: C_11  and  C_12
REMARK    9  A    between atoms: C_12  and  N_13
REMARK   10  A    between atoms: C_24  and  C_25
REMARK   11  A    between atoms: C_34  and  C_35
REMARK                            x       y       z     vdW  Elec       q    Type
REMARK                         _______ _______ _______ _____ _____    ______ ____
ROOT
ATOM      1  C   UNL     1       0.715   9.587  20.095  0.00  0.00    +0.000 C 
ENDROOT
BRANCH   1   2
ATOM      2  O   UNL     1       0.440  10.472  19.007  0.00  0.00    +0.000 OA
BRANCH   2   6
ATOM      3  N   UNL     1      -3.793  12.812  20.101  0.00  0.00    +0.000 N 
ATOM      4  C   UNL     1      -2.905  11.996  19.424  0.00  0.00    +0.000 A 
ATOM      5  C   UNL     1      -1.547  11.736  19.671  0.00  0.00    +0.000 A 
ATOM      6  C   UNL     1      -0.877  10.823  18.854  0.00  0.00    +0.000 A 
ATOM      7  C   UNL     1      -1.551  10.203  17.806  0.00  0.00    +0.000 A 
ATOM      8  C   UNL     1      -2.906  10.482  17.554  0.00  0.00    +0.000 A 
ATOM      9  C   UNL     1      -3.593  11.397  18.378  0.00  0.00    +0.000 A 
ATOM     10  C   UNL     1      -4.926  11.911  18.407  0.00  0.00    +0.000 A 
ATOM     11  C   UNL     1      -6.046  11.678  17.597  0.00  0.00    +0.000 A 
ATOM     12  C   UNL     1      -7.197  12.366  17.915  0.00  0.00    +0.000 A 
ATOM     13  N   UNL     1      -7.304  13.236  18.936  0.00  0.00    +0.000 NA
ATOM     14  C   UNL     1      -6.236  13.490  19.745  0.00  0.00    +0.000 A 
ATOM     15  C   UNL     1      -6.476  14.489  20.834  0.00  0.00    +0.000 C 
ATOM     16  C   UNL     1      -5.030  12.808  19.481  0.00  0.00    +0.000 A 
BRANCH   3  18
ATOM     17  C   UNL     1      -3.691  12.671  22.576  0.00  0.00    +0.000 C 
ATOM     18  C   UNL     1      -3.428  13.500  21.331  0.00  0.00    +0.000 C 
ENDBRANCH   3  18
ENDBRANCH   2   6
ENDBRANCH   1   2
BRANCH   1  19
ATOM     19  C   UNL     1       1.696   8.526  19.629  0.00  0.00    +0.000 C 
BRANCH  19  20
ATOM     20  C   UNL     1       1.680   8.380  18.109  0.00  0.00    +0.000 C 
BRANCH  20  21
ATOM     21  C   UNL     1       3.080   8.045  17.612  0.00  0.00    +0.000 C 
BRANCH  21  22
ATOM     22  C   UNL     1       3.862   7.181  18.596  0.00  0.00    +0.000 C 
BRANCH  22  23
ATOM     23  N   UNL     1       4.116   5.861  18.030  0.00  0.00    +0.000 N 
ATOM     24  C   UNL     1       3.228   4.804  18.154  0.00  0.00    +0.000 A 
ATOM     25  C   UNL     1       2.022   4.675  18.867  0.00  0.00    +0.000 A 
ATOM     26  C   UNL     1       1.319   3.469  18.774  0.00  0.00    +0.000 A 
ATOM     27  C   UNL     1       1.794   2.426  17.989  0.00  0.00    +0.000 A 
ATOM     28  C   UNL     1       2.992   2.562  17.283  0.00  0.00    +0.000 A 
ATOM     29  C   UNL     1       3.724   3.765  17.369  0.00  0.00    +0.000 A 
ATOM     30  C   UNL     1       4.951   4.211  16.790  0.00  0.00    +0.000 A 
ATOM     31  C   UNL     1       5.868   3.590  15.930  0.00  0.00    +0.000 A 
ATOM     32  C   UNL     1       6.970   4.327  15.557  0.00  0.00    +0.000 A 
ATOM     33  N   UNL     1       7.212   5.586  15.963  0.00  0.00    +0.000 NA
ATOM     34  C   UNL     1       6.342   6.226  16.796  0.00  0.00    +0.000 A 
ATOM     35  C   UNL     1       6.736   7.621  17.175  0.00  0.00    +0.000 C 
ATOM     36  C   UNL     1       5.193   5.522  17.219  0.00  0.00    +0.000 A 
ENDBRANCH  22  23
ENDBRANCH  21  22
ENDBRANCH  20  21
ENDBRANCH  19  20
ENDBRANCH   1  19
TORSDOF 8
ENDMDL
MODEL 3
REMARK VINA RESULT:      -8.7      2.117     10.060
REMARK  Name = 
REMARK  11 active torsions:
REMARK  status: ('A' for Active; 'I' for Inactive)
REMARK    1  A    between atoms: C_1  and  C_2
REMARK    2  A    between atoms: C_2  and  N_3
REMARK    3  A    between atoms: C_6  and  O_7
REMARK    4  A    between atoms: O_7  and  C_8
REMARK    5  A    between atoms: C_8  and  C_9
REMARK    6  A    between atoms: C_9  and  C_10
REMARK    7  A    between atoms: C_10  and  C_11
REMARK    8  A    between atoms: C_11  and  C_12
REMARK    9  A    between atoms: C_12  and  N_13
REMARK   10  A    between atoms: C_24  and  C_25
REMARK   11  A    between atoms: C_34  and  C_35
REMARK                            x       y       z     vdW  Elec       q    Type
REMARK                         _______ _______ _______ _____ _____    ______ ____
ROOT
ATOM      1  C   UNL     1      -0.382   9.468  21.536  0.00  0.00    +0.000 C 
ENDROOT
BRANCH   1   2
ATOM      2  O   UNL     1       0.312   9.991  20.402  0.00  0.00    +0.000 OA
BRANCH   2   6
ATOM      3  N   UNL     1       2.745   5.725  19.715  0.00  0.00    +0.000 N 
ATOM      4  C   UNL     1       2.289   7.007  19.467  0.00  0.00    +0.000 A 
ATOM      5  C   UNL     1       1.406   7.812  20.207  0.00  0.00    +0.000 A 
ATOM      6  C   UNL     1       1.138   9.106  19.758  0.00  0.00    +0.000 A 
ATOM      7  C   UNL     1       1.729   9.572  18.586  0.00  0.00    +0.000 A 
ATOM      8  C   UNL     1       2.598   8.755  17.842  0.00  0.00    +0.000 A 
ATOM      9  C   UNL     1       2.879   7.448  18.292  0.00  0.00    +0.000 A 
ATOM     10  C   UNL     1       3.681   6.372  17.799  0.00  0.00    +0.000 A 
ATOM     11  C   UNL     1       4.486   6.239  16.658  0.00  0.00    +0.000 A 
ATOM     12  C   UNL     1       5.125   5.030  16.487  0.00  0.00    +0.000 A 
ATOM     13  N   UNL     1       5.020   3.989  17.333  0.00  0.00    +0.000 NA
ATOM     14  C   UNL     1       4.244   4.079  18.452  0.00  0.00    +0.000 A 
ATOM     15  C   UNL     1       4.194   2.848  19.302  0.00  0.00    +0.000 C 
ATOM     16  C   UNL     1       3.573   5.295  18.693  0.00  0.00    +0.000 A 
BRANCH   3  18
ATOM     17  C   UNL     1       1.233   4.069  20.776  0.00  0.00    +0.000 C 
ATOM     18  C   UNL     1       2.414   5.009  20.939  0.00  0.00    +0.000 C 
ENDBRANCH   3  18
ENDBRANCH   2   6
ENDBRANCH   1   2
BRANCH   1  19
ATOM     19  C   UNL     1      -0.278  10.463  22.677  0.00  0.00    +0.000 C 
BRANCH  19  20
ATOM     20  C   UNL     1      -1.582  11.237  22.864  0.00  0.00    +0.000 C 
BRANCH  20  21
ATOM     21  C   UNL     1      -1.273  12.696  23.171  0.00  0.00    +0.000 C 
BRANCH  21  22
ATOM     22  C   UNL     1      -1.880  13.654  22.151  0.00  0.00    +0.000 C 
BRANCH  22  23
ATOM     23  N   UNL     1      -1.390  13.352  20.811  0.00  0.00    +0.000 N 
ATOM     24  C   UNL     1      -0.077  13.563  20.423  0.00  0.00    +0.000 A 
ATOM     25  C   UNL     1       1.010  14.160  21.089  0.00  0.00    +0.000 A 
ATOM     26  C   UNL     1       2.247  14.204  20.438  0.00  0.00    +0.000 A 
ATOM     27  C   UNL     1       2.404  13.663  19.168  0.00  0.00    +0.000 A 
ATOM     28  C   UNL     1       1.321  13.072  18.513  0.00  0.00    +0.000 A 
ATOM     29  C   UNL     1       0.060  13.025  19.146  0.00  0.00    +0.000 A 
ATOM     30  C   UNL     1      -1.213  12.508  18.758  0.00  0.00    +0.000 A 
ATOM     31  C   UNL     1      -1.655  11.866  17.592  0.00  0.00    +0.000 A 
ATOM     32  C   UNL     1      -2.979  11.488  17.552  0.00  0.00    +0.000 A 
ATOM     33  N   UNL     1      -3.855  11.694  18.551  0.00  0.00    +0.000 NA
ATOM     34  C   UNL     1      -3.464  12.310  19.703  0.00  0.00    +0.000 A 
ATOM     35  C   UNL     1      -4.541  12.482  20.729  0.00  0.00    +0.000 C 
ATOM     36  C   UNL     1      -2.118  12.727  19.805  0.00  0.00    +0.000 A 
ENDBRANCH  22  23
ENDBRANCH  21  22
ENDBRANCH  20  21
ENDBRANCH  19  20
ENDBRANCH   1  19
TORSDOF 8
ENDMDL
MODEL 4
REMARK VINA RESULT:      -8.6      1.497     10.881
REMARK  Name = 
REMARK  11 active torsions:
REMARK  status: ('A' for Active; 'I' for Inactive)
REMARK    1  A    between atoms: C_1  and  C_2
REMARK    2  A    between atoms: C_2  and  N_3
REMARK    3  A    between atoms: C_6  and  O_7
REMARK    4  A    between atoms: O_7  and  C_8
REMARK    5  A    between atoms: C_8  and  C_9
REMARK    6  A    between atoms: C_9  and  C_10
REMARK    7  A    between atoms: C_10  and  C_11
REMARK    8  A    between atoms: C_11  and  C_12
REMARK    9  A    between atoms: C_12  and  N_13
REMARK   10  A    between atoms: C_24  and  C_25
REMARK   11  A    between atoms: C_34  and  C_35
REMARK                            x       y       z     vdW  Elec       q    Type
REMARK                         _______ _______ _______ _____ _____    ______ ____
ROOT
ATOM      1  C   UNL     1      -0.446   9.524  20.598  0.00  0.00    +0.000 C 
ENDROOT
BRANCH   1   2
ATOM      2  O   UNL     1       0.880   9.869  20.193  0.00  0.00    +0.000 OA
BRANCH   2   6
ATOM      3  N   UNL     1       2.815   5.337  19.639  0.00  0.00    +0.000 N 
ATOM      4  C   UNL     1       2.490   6.649  19.343  0.00  0.00    +0.000 A 
ATOM      5  C   UNL     1       1.726   7.577  20.070  0.00  0.00    +0.000 A 
ATOM      6  C   UNL     1       1.583   8.871  19.567  0.00  0.00    +0.000 A 
ATOM      7  C   UNL     1       2.178   9.217  18.357  0.00  0.00    +0.000 A 
ATOM      8  C   UNL     1       2.927   8.278  17.627  0.00  0.00    +0.000 A 
ATOM      9  C   UNL     1       3.082   6.969  18.130  0.00  0.00    +0.000 A 
ATOM     10  C   UNL     1       3.745   5.792  17.666  0.00  0.00    +0.000 A 
ATOM     11  C   UNL     1       4.490   5.521  16.508  0.00  0.00    +0.000 A 
ATOM     12  C   UNL     1       4.990   4.243  16.376  0.00  0.00    +0.000 A 
ATOM     13  N   UNL     1       4.803   3.258  17.274  0.00  0.00    +0.000 NA
ATOM     14  C   UNL     1       4.083   3.483  18.411  0.00  0.00    +0.000 A 
ATOM     15  C   UNL     1       3.931   2.304  19.321  0.00  0.00    +0.000 C 
ATOM     16  C   UNL     1       3.554   4.774  18.613  0.00  0.00    +0.000 A 
BRANCH   3  18
ATOM     17  C   UNL     1       1.190   3.879  20.817  0.00  0.00    +0.000 C 
ATOM     18  C   UNL     1       2.453   4.717  20.905  0.00  0.00    +0.000 C 
ENDBRANCH   3  18
ENDBRANCH   2   6
ENDBRANCH   1   2
BRANCH   1  19
ATOM     19  C   UNL     1      -0.571   9.734  22.096  0.00  0.00    +0.000 C 
BRANCH  19  20
ATOM     20  C   UNL     1      -0.528  11.217  22.458  0.00  0.00    +0.000 C 
BRANCH  20  21
ATOM     21  C   UNL     1      -1.926  11.695  22.829  0.00  0.00    +0.000 C 
BRANCH  21  22
ATOM     22  C   UNL     1      -2.319  12.980  22.107  0.00  0.00    +0.000 C 
BRANCH  22  23
ATOM     23  N   UNL     1      -3.338  12.709  21.100  0.00  0.00    +0.000 N 
ATOM     24  C   UNL     1      -3.033  12.326  19.803  0.00  0.00    +0.000 A 
ATOM     25  C   UNL     1      -1.804  12.208  19.128  0.00  0.00    +0.000 A 
ATOM     26  C   UNL     1      -1.813  11.761  17.802  0.00  0.00    +0.000 A 
ATOM     27  C   UNL     1      -3.004  11.433  17.168  0.00  0.00    +0.000 A 
ATOM     28  C   UNL     1      -4.221  11.553  17.845  0.00  0.00    +0.000 A 
ATOM     29  C   UNL     1      -4.238  12.011  19.180  0.00  0.00    +0.000 A 
ATOM     30  C   UNL     1      -5.284  12.241  20.124  0.00  0.00    +0.000 A 
ATOM     31  C   UNL     1      -6.677  12.096  20.043  0.00  0.00    +0.000 A 
ATOM     32  C   UNL     1      -7.403  12.412  21.170  0.00  0.00    +0.000 A 
ATOM     33  N   UNL     1      -6.861  12.842  22.324  0.00  0.00    +0.000 NA
ATOM     34  C   UNL     1      -5.512  12.992  22.444  0.00  0.00    +0.000 A 
ATOM     35  C   UNL     1      -5.043  13.485  23.779  0.00  0.00    +0.000 C 
ATOM     36  C   UNL     1      -4.710  12.689  21.321  0.00  0.00    +0.000 A 
ENDBRANCH  22  23
ENDBRANCH  21  22
ENDBRANCH  20  21
ENDBRANCH  19  20
ENDBRANCH   1  19
TORSDOF 8
ENDMDL
MODEL 5
REMARK VINA RESULT:      -8.6      1.192      2.358
REMARK  Name = 
REMARK  11 active torsions:
REMARK  status: ('A' for Active; 'I' for Inactive)
REMARK    1  A    between atoms: C_1  and  C_2
REMARK    2  A    between atoms: C_2  and  N_3
REMARK    3  A    between atoms: C_6  and  O_7
REMARK    4  A    between atoms: O_7  and  C_8
REMARK    5  A    between atoms: C_8  and  C_9
REMARK    6  A    between atoms: C_9  and  C_10
REMARK    7  A    between atoms: C_10  and  C_11
REMARK    8  A    between atoms: C_11  and  C_12
REMARK    9  A    between atoms: C_12  and  N_13
REMARK   10  A    between atoms: C_24  and  C_25
REMARK   11  A    between atoms: C_34  and  C_35
REMARK                            x       y       z     vdW  Elec       q    Type
REMARK                         _______ _______ _______ _____ _____    ______ ____
ROOT
ATOM      1  C   UNL     1       1.257  11.079  18.956  0.00  0.00    +0.000 C 
ENDROOT
BRANCH   1   2
ATOM      2  O   UNL     1       0.396  12.102  18.450  0.00  0.00    +0.000 OA
BRANCH   2   6
ATOM      3  N   UNL     1      -4.461  11.879  19.431  0.00  0.00    +0.000 N 
ATOM      4  C   UNL     1      -3.119  12.167  19.605  0.00  0.00    +0.000 A 
ATOM      5  C   UNL     1      -2.016  11.866  18.788  0.00  0.00    +0.000 A 
ATOM      6  C   UNL     1      -0.751  12.314  19.172  0.00  0.00    +0.000 A 
ATOM      7  C   UNL     1      -0.597  13.032  20.355  0.00  0.00    +0.000 A 
ATOM      8  C   UNL     1      -1.703  13.314  21.176  0.00  0.00    +0.000 A 
ATOM      9  C   UNL     1      -2.986  12.870  20.793  0.00  0.00    +0.000 A 
ATOM     10  C   UNL     1      -4.290  12.965  21.370  0.00  0.00    +0.000 A 
ATOM     11  C   UNL     1      -4.758  13.547  22.557  0.00  0.00    +0.000 A 
ATOM     12  C   UNL     1      -6.109  13.442  22.809  0.00  0.00    +0.000 A 
ATOM     13  N   UNL     1      -6.987  12.821  21.999  0.00  0.00    +0.000 NA
ATOM     14  C   UNL     1      -6.569  12.242  20.837  0.00  0.00    +0.000 A 
ATOM     15  C   UNL     1      -7.636  11.568  20.032  0.00  0.00    +0.000 C 
ATOM     16  C   UNL     1      -5.199  12.325  20.513  0.00  0.00    +0.000 A 
BRANCH   3  18
ATOM     17  C   UNL     1      -5.390  12.255  17.162  0.00  0.00    +0.000 C 
ATOM     18  C   UNL     1      -4.966  11.251  18.219  0.00  0.00    +0.000 C 
ENDBRANCH   3  18
ENDBRANCH   2   6
ENDBRANCH   1   2
BRANCH   1  19
ATOM     19  C   UNL     1       0.946   9.778  18.240  0.00  0.00    +0.000 C 
BRANCH  19  20
ATOM     20  C   UNL     1       2.223   9.030  17.860  0.00  0.00    +0.000 C 
BRANCH  20  21
ATOM     21  C   UNL     1       1.996   7.530  17.990  0.00  0.00    +0.000 C 
BRANCH  21  22
ATOM     22  C   UNL     1       3.122   6.827  18.741  0.00  0.00    +0.000 C 
BRANCH  22  23
ATOM     23  N   UNL     1       3.435   5.548  18.116  0.00  0.00    +0.000 N 
ATOM     24  C   UNL     1       4.337   5.419  17.072  0.00  0.00    +0.000 A 
ATOM     25  C   UNL     1       5.047   6.379  16.326  0.00  0.00    +0.000 A 
ATOM     26  C   UNL     1       5.925   5.935  15.332  0.00  0.00    +0.000 A 
ATOM     27  C   UNL     1       6.102   4.578  15.092  0.00  0.00    +0.000 A 
ATOM     28  C   UNL     1       5.395   3.630  15.837  0.00  0.00    +0.000 A 
ATOM     29  C   UNL     1       4.495   4.055  16.838  0.00  0.00    +0.000 A 
ATOM     30  C   UNL     1       3.642   3.361  17.749  0.00  0.00    +0.000 A 
ATOM     31  C   UNL     1       3.396   1.996  17.957  0.00  0.00    +0.000 A 
ATOM     32  C   UNL     1       2.493   1.669  18.944  0.00  0.00    +0.000 A 
ATOM     33  N   UNL     1       1.846   2.568  19.707  0.00  0.00    +0.000 NA
ATOM     34  C   UNL     1       2.061   3.904  19.539  0.00  0.00    +0.000 A 
ATOM     35  C   UNL     1       1.272   4.794  20.449  0.00  0.00    +0.000 C 
ATOM     36  C   UNL     1       2.974   4.306  18.538  0.00  0.00    +0.000 A 
ENDBRANCH  22  23
ENDBRANCH  21  22
ENDBRANCH  20  21
ENDBRANCH  19  20
ENDBRANCH   1  19
TORSDOF 8
ENDMDL
MODEL 6
REMARK VINA RESULT:      -8.5      1.460     10.538
REMARK  Name = 
REMARK  11 active torsions:
REMARK  status: ('A' for Active; 'I' for Inactive)
REMARK    1  A    between atoms: C_1  and  C_2
REMARK    2  A    between atoms: C_2  and  N_3
REMARK    3  A    between atoms: C_6  and  O_7
REMARK    4  A    between atoms: O_7  and  C_8
REMARK    5  A    between atoms: C_8  and  C_9
REMARK    6  A    between atoms: C_9  and  C_10
REMARK    7  A    between atoms: C_10  and  C_11
REMARK    8  A    between atoms: C_11  and  C_12
REMARK    9  A    between atoms: C_12  and  N_13
REMARK   10  A    between atoms: C_24  and  C_25
REMARK   11  A    between atoms: C_34  and  C_35
REMARK                            x       y       z     vdW  Elec       q    Type
REMARK                         _______ _______ _______ _____ _____    ______ ____
ROOT
ATOM      1  C   UNL     1       0.468  11.151  20.783  0.00  0.00    +0.000 C 
ENDROOT
BRANCH   1   2
ATOM      2  O   UNL     1      -0.018   9.876  20.356  0.00  0.00    +0.000 OA
BRANCH   2   6
ATOM      3  N   UNL     1       2.777   5.837  19.666  0.00  0.00    +0.000 N 
ATOM      4  C   UNL     1       2.229   7.086  19.432  0.00  0.00    +0.000 A 
ATOM      5  C   UNL     1       1.255   7.797  20.152  0.00  0.00    +0.000 A 
ATOM      6  C   UNL     1       0.902   9.077  19.725  0.00  0.00    +0.000 A 
ATOM      7  C   UNL     1       1.500   9.622  18.592  0.00  0.00    +0.000 A 
ATOM      8  C   UNL     1       2.461   8.898  17.865  0.00  0.00    +0.000 A 
ATOM      9  C   UNL     1       2.829   7.605  18.294  0.00  0.00    +0.000 A 
ATOM     10  C   UNL     1       3.733   6.611  17.808  0.00  0.00    +0.000 A 
ATOM     11  C   UNL     1       4.592   6.575  16.700  0.00  0.00    +0.000 A 
ATOM     12  C   UNL     1       5.333   5.426  16.526  0.00  0.00    +0.000 A 
ATOM     13  N   UNL     1       5.278   4.356  17.340  0.00  0.00    +0.000 NA
ATOM     14  C   UNL     1       4.453   4.353  18.427  0.00  0.00    +0.000 A 
ATOM     15  C   UNL     1       4.468   3.098  19.243  0.00  0.00    +0.000 C 
ATOM     16  C   UNL     1       3.677   5.504  18.669  0.00  0.00    +0.000 A 
BRANCH   3  18
ATOM     17  C   UNL     1       1.251   4.158  20.670  0.00  0.00    +0.000 C 
ATOM     18  C   UNL     1       2.456   5.064  20.857  0.00  0.00    +0.000 C 
ENDBRANCH   3  18
ENDBRANCH   2   6
ENDBRANCH   1   2
BRANCH   1  19
ATOM     19  C   UNL     1      -0.019  11.412  22.197  0.00  0.00    +0.000 C 
BRANCH  19  20
ATOM     20  C   UNL     1      -0.879  12.673  22.268  0.00  0.00    +0.000 C 
BRANCH  20  21
ATOM     21  C   UNL     1      -2.282  12.365  21.762  0.00  0.00    +0.000 C 
BRANCH  21  22
ATOM     22  C   UNL     1      -2.692  13.253  20.591  0.00  0.00    +0.000 C 
BRANCH  22  23
ATOM     23  N   UNL     1      -3.598  12.538  19.699  0.00  0.00    +0.000 N 
ATOM     24  C   UNL     1      -3.156  11.747  18.651  0.00  0.00    +0.000 A 
ATOM     25  C   UNL     1      -1.868  11.516  18.132  0.00  0.00    +0.000 A 
ATOM     26  C   UNL     1      -1.730  10.625  17.063  0.00  0.00    +0.000 A 
ATOM     27  C   UNL     1      -2.836   9.973  16.531  0.00  0.00    +0.000 A 
ATOM     28  C   UNL     1      -4.112  10.207  17.052  0.00  0.00    +0.000 A 
ATOM     29  C   UNL     1      -4.277  11.110  18.124  0.00  0.00    +0.000 A 
ATOM     30  C   UNL     1      -5.414  11.559  18.862  0.00  0.00    +0.000 A 
ATOM     31  C   UNL     1      -6.780  11.256  18.766  0.00  0.00    +0.000 A 
ATOM     32  C   UNL     1      -7.621  11.882  19.659  0.00  0.00    +0.000 A 
ATOM     33  N   UNL     1      -7.214  12.750  20.602  0.00  0.00    +0.000 NA
ATOM     34  C   UNL     1      -5.894  13.067  20.730  0.00  0.00    +0.000 A 
ATOM     35  C   UNL     1      -5.579  14.051  21.815  0.00  0.00    +0.000 C 
ATOM     36  C   UNL     1      -4.979  12.462  19.840  0.00  0.00    +0.000 A 
ENDBRANCH  22  23
ENDBRANCH  21  22
ENDBRANCH  20  21
ENDBRANCH  19  20
ENDBRANCH   1  19
TORSDOF 8
ENDMDL
MODEL 7
REMARK VINA RESULT:      -8.5      1.763     11.662
REMARK  Name = 
REMARK  11 active torsions:
REMARK  status: ('A' for Active; 'I' for Inactive)
REMARK    1  A    between atoms: C_1  and  C_2
REMARK    2  A    between atoms: C_2  and  N_3
REMARK    3  A    between atoms: C_6  and  O_7
REMARK    4  A    between atoms: O_7  and  C_8
REMARK    5  A    between atoms: C_8  and  C_9
REMARK    6  A    between atoms: C_9  and  C_10
REMARK    7  A    between atoms: C_10  and  C_11
REMARK    8  A    between atoms: C_11  and  C_12
REMARK    9  A    between atoms: C_12  and  N_13
REMARK   10  A    between atoms: C_24  and  C_25
REMARK   11  A    between atoms: C_34  and  C_35
REMARK                            x       y       z     vdW  Elec       q    Type
REMARK                         _______ _______ _______ _____ _____    ______ ____
ROOT
ATOM      1  C   UNL     1       0.050  10.824  19.549  0.00  0.00    +0.000 C 
ENDROOT
BRANCH   1   2
ATOM      2  O   UNL     1       0.550   9.765  20.369  0.00  0.00    +0.000 OA
BRANCH   2   6
ATOM      3  N   UNL     1       2.778   5.387  19.689  0.00  0.00    +0.000 N 
ATOM      4  C   UNL     1       2.379   6.687  19.437  0.00  0.00    +0.000 A 
ATOM      5  C   UNL     1       1.541   7.537  20.179  0.00  0.00    +0.000 A 
ATOM      6  C   UNL     1       1.328   8.838  19.723  0.00  0.00    +0.000 A 
ATOM      7  C   UNL     1       1.929   9.270  18.543  0.00  0.00    +0.000 A 
ATOM      8  C   UNL     1       2.751   8.408  17.797  0.00  0.00    +0.000 A 
ATOM      9  C   UNL     1       2.977   7.093  18.253  0.00  0.00    +0.000 A 
ATOM     10  C   UNL     1       3.724   5.978  17.760  0.00  0.00    +0.000 A 
ATOM     11  C   UNL     1       4.511   5.801  16.613  0.00  0.00    +0.000 A 
ATOM     12  C   UNL     1       5.093   4.563  16.444  0.00  0.00    +0.000 A 
ATOM     13  N   UNL     1       4.948   3.533  17.298  0.00  0.00    +0.000 NA
ATOM     14  C   UNL     1       4.188   3.666  18.423  0.00  0.00    +0.000 A 
ATOM     15  C   UNL     1       4.090   2.445  19.283  0.00  0.00    +0.000 C 
ATOM     16  C   UNL     1       3.575   4.913  18.662  0.00  0.00    +0.000 A 
BRANCH   3  18
ATOM     17  C   UNL     1       1.169   3.855  20.792  0.00  0.00    +0.000 C 
ATOM     18  C   UNL     1       2.427   4.696  20.921  0.00  0.00    +0.000 C 
ENDBRANCH   3  18
ENDBRANCH   2   6
ENDBRANCH   1   2
BRANCH   1  19
ATOM     19  C   UNL     1      -1.294  11.272  20.093  0.00  0.00    +0.000 C 
BRANCH  19  20
ATOM     20  C   UNL     1      -1.156  12.515  20.970  0.00  0.00    +0.000 C 
BRANCH  20  21
ATOM     21  C   UNL     1      -2.432  12.719  21.776  0.00  0.00    +0.000 C 
BRANCH  21  22
ATOM     22  C   UNL     1      -3.388  13.710  21.121  0.00  0.00    +0.000 C 
BRANCH  22  23
ATOM     23  N   UNL     1      -4.749  13.187  21.125  0.00  0.00    +0.000 N 
ATOM     24  C   UNL     1      -5.245  12.367  20.124  0.00  0.00    +0.000 A 
ATOM     25  C   UNL     1      -4.688  11.940  18.904  0.00  0.00    +0.000 A 
ATOM     26  C   UNL     1      -5.433  11.073  18.098  0.00  0.00    +0.000 A 
ATOM     27  C   UNL     1      -6.690  10.634  18.495  0.00  0.00    +0.000 A 
ATOM     28  C   UNL     1      -7.236  11.061  19.708  0.00  0.00    +0.000 A 
ATOM     29  C   UNL     1      -6.507  11.944  20.534  0.00  0.00    +0.000 A 
ATOM     30  C   UNL     1      -6.776  12.553  21.797  0.00  0.00    +0.000 A 
ATOM     31  C   UNL     1      -7.879  12.487  22.660  0.00  0.00    +0.000 A 
ATOM     32  C   UNL     1      -7.803  13.216  23.826  0.00  0.00    +0.000 A 
ATOM     33  N   UNL     1      -6.748  13.972  24.178  0.00  0.00    +0.000 NA
ATOM     34  C   UNL     1      -5.655  14.059  23.368  0.00  0.00    +0.000 A 
ATOM     35  C   UNL     1      -4.556  14.941  23.877  0.00  0.00    +0.000 C 
ATOM     36  C   UNL     1      -5.672  13.338  22.153  0.00  0.00    +0.000 A 
ENDBRANCH  22  23
ENDBRANCH  21  22
ENDBRANCH  20  21
ENDBRANCH  19  20
ENDBRANCH   1  19
TORSDOF 8
ENDMDL
MODEL 8
REMARK VINA RESULT:      -8.4      0.973      1.218
REMARK  Name = 
REMARK  11 active torsions:
REMARK  status: ('A' for Active; 'I' for Inactive)
REMARK    1  A    between atoms: C_1  and  C_2
REMARK    2  A    between atoms: C_2  and  N_3
REMARK    3  A    between atoms: C_6  and  O_7
REMARK    4  A    between atoms: O_7  and  C_8
REMARK    5  A    between atoms: C_8  and  C_9
REMARK    6  A    between atoms: C_9  and  C_10
REMARK    7  A    between atoms: C_10  and  C_11
REMARK    8  A    between atoms: C_11  and  C_12
REMARK    9  A    between atoms: C_12  and  N_13
REMARK   10  A    between atoms: C_24  and  C_25
REMARK   11  A    between atoms: C_34  and  C_35
REMARK                            x       y       z     vdW  Elec       q    Type
REMARK                         _______ _______ _______ _____ _____    ______ ____
ROOT
ATOM      1  C   UNL     1      -0.067  10.275  18.582  0.00  0.00    +0.000 C 
ENDROOT
BRANCH   1   2
ATOM      2  O   UNL     1      -1.136  10.496  17.658  0.00  0.00    +0.000 OA
BRANCH   2   6
ATOM      3  N   UNL     1      -3.823  13.016  20.978  0.00  0.00    +0.000 N 
ATOM      4  C   UNL     1      -3.523  12.302  19.831  0.00  0.00    +0.000 A 
ATOM      5  C   UNL     1      -2.295  11.794  19.377  0.00  0.00    +0.000 A 
ATOM      6  C   UNL     1      -2.267  11.059  18.192  0.00  0.00    +0.000 A 
ATOM      7  C   UNL     1      -3.441  10.854  17.472  0.00  0.00    +0.000 A 
ATOM      8  C   UNL     1      -4.664  11.380  17.923  0.00  0.00    +0.000 A 
ATOM      9  C   UNL     1      -4.703  12.120  19.124  0.00  0.00    +0.000 A 
ATOM     10  C   UNL     1      -5.734  12.788  19.854  0.00  0.00    +0.000 A 
ATOM     11  C   UNL     1      -7.107  12.949  19.617  0.00  0.00    +0.000 A 
ATOM     12  C   UNL     1      -7.817  13.678  20.547  0.00  0.00    +0.000 A 
ATOM     13  N   UNL     1      -7.277  14.237  21.646  0.00  0.00    +0.000 NA
ATOM     14  C   UNL     1      -5.945  14.104  21.909  0.00  0.00    +0.000 A 
ATOM     15  C   UNL     1      -5.462  14.787  23.151  0.00  0.00    +0.000 C 
ATOM     16  C   UNL     1      -5.164  13.359  21.002  0.00  0.00    +0.000 A 
BRANCH   3  18
ATOM     17  C   UNL     1      -2.774  12.192  23.069  0.00  0.00    +0.000 C 
ATOM     18  C   UNL     1      -2.829  13.277  22.008  0.00  0.00    +0.000 C 
ENDBRANCH   3  18
ENDBRANCH   2   6
ENDBRANCH   1   2
BRANCH   1  19
ATOM     19  C   UNL     1       1.090   9.623  17.847  0.00  0.00    +0.000 C 
BRANCH  19  20
ATOM     20  C   UNL     1       1.727   8.513  18.681  0.00  0.00    +0.000 C 
BRANCH  20  21
ATOM     21  C   UNL     1       2.826   7.833  17.874  0.00  0.00    +0.000 C 
BRANCH  21  22
ATOM     22  C   UNL     1       3.660   6.870  18.712  0.00  0.00    +0.000 C 
BRANCH  22  23
ATOM     23  N   UNL     1       3.734   5.563  18.069  0.00  0.00    +0.000 N 
ATOM     24  C   UNL     1       4.538   5.309  16.969  0.00  0.00    +0.000 A 
ATOM     25  C   UNL     1       5.335   6.157  16.178  0.00  0.00    +0.000 A 
ATOM     26  C   UNL     1       6.070   5.594  15.129  0.00  0.00    +0.000 A 
ATOM     27  C   UNL     1       6.023   4.228  14.879  0.00  0.00    +0.000 A 
ATOM     28  C   UNL     1       5.229   3.392  15.669  0.00  0.00    +0.000 A 
ATOM     29  C   UNL     1       4.471   3.939  16.726  0.00  0.00    +0.000 A 
ATOM     30  C   UNL     1       3.582   3.374  17.690  0.00  0.00    +0.000 A 
ATOM     31  C   UNL     1       3.146   2.060  17.915  0.00  0.00    +0.000 A 
ATOM     32  C   UNL     1       2.269   1.865  18.959  0.00  0.00    +0.000 A 
ATOM     33  N   UNL     1       1.817   2.845  19.761  0.00  0.00    +0.000 NA
ATOM     34  C   UNL     1       2.221   4.134  19.579  0.00  0.00    +0.000 A 
ATOM     35  C   UNL     1       1.636   5.125  20.538  0.00  0.00    +0.000 C 
ATOM     36  C   UNL     1       3.118   4.403  18.521  0.00  0.00    +0.000 A 
ENDBRANCH  22  23
ENDBRANCH  21  22
ENDBRANCH  20  21
ENDBRANCH  19  20
ENDBRANCH   1  19
TORSDOF 8
ENDMDL
MODEL 9
REMARK VINA RESULT:      -8.4      6.844     10.573
REMARK  Name = 
REMARK  11 active torsions:
REMARK  status: ('A' for Active; 'I' for Inactive)
REMARK    1  A    between atoms: C_1  and  C_2
REMARK    2  A    between atoms: C_2  and  N_3
REMARK    3  A    between atoms: C_6  and  O_7
REMARK    4  A    between atoms: O_7  and  C_8
REMARK    5  A    between atoms: C_8  and  C_9
REMARK    6  A    between atoms: C_9  and  C_10
REMARK    7  A    between atoms: C_10  and  C_11
REMARK    8  A    between atoms: C_11  and  C_12
REMARK    9  A    between atoms: C_12  and  N_13
REMARK   10  A    between atoms: C_24  and  C_25
REMARK   11  A    between atoms: C_34  and  C_35
REMARK                            x       y       z     vdW  Elec       q    Type
REMARK                         _______ _______ _______ _____ _____    ______ ____
ROOT
ATOM      1  C   UNL     1       7.912   9.217  17.799  0.00  0.00    +0.000 C 
ENDROOT
BRANCH   1   2
ATOM      2  O   UNL     1       9.012   9.663  18.595  0.00  0.00    +0.000 OA
BRANCH   2   6
ATOM      3  N   UNL     1       8.632  14.607  18.479  0.00  0.00    +0.000 N 
ATOM      4  C   UNL     1       9.191  13.349  18.335  0.00  0.00    +0.000 A 
ATOM      5  C   UNL     1       8.664  12.084  18.645  0.00  0.00    +0.000 A 
ATOM      6  C   UNL     1       9.425  10.950  18.358  0.00  0.00    +0.000 A 
ATOM      7  C   UNL     1      10.689  11.085  17.791  0.00  0.00    +0.000 A 
ATOM      8  C   UNL     1      11.217  12.355  17.500  0.00  0.00    +0.000 A 
ATOM      9  C   UNL     1      10.452  13.507  17.780  0.00  0.00    +0.000 A 
ATOM     10  C   UNL     1      10.669  14.911  17.630  0.00  0.00    +0.000 A 
ATOM     11  C   UNL     1      11.755  15.653  17.141  0.00  0.00    +0.000 A 
ATOM     12  C   UNL     1      11.623  17.025  17.149  0.00  0.00    +0.000 A 
ATOM     13  N   UNL     1      10.536  17.681  17.595  0.00  0.00    +0.000 NA
ATOM     14  C   UNL     1       9.462  16.995  18.080  0.00  0.00    +0.000 A 
ATOM     15  C   UNL     1       8.323  17.838  18.563  0.00  0.00    +0.000 C 
ATOM     16  C   UNL     1       9.527  15.587  18.088  0.00  0.00    +0.000 A 
BRANCH   3  18
ATOM     17  C   UNL     1       6.254  14.746  17.785  0.00  0.00    +0.000 C 
ATOM     18  C   UNL     1       7.258  14.796  18.923  0.00  0.00    +0.000 C 
ENDBRANCH   3  18
ENDBRANCH   2   6
ENDBRANCH   1   2
BRANCH   1  19
ATOM     19  C   UNL     1       7.962   7.703  17.697  0.00  0.00    +0.000 C 
BRANCH  19  20
ATOM     20  C   UNL     1       6.766   7.155  16.922  0.00  0.00    +0.000 C 
BRANCH  20  21
ATOM     21  C   UNL     1       6.097   6.049  17.728  0.00  0.00    +0.000 C 
BRANCH  21  22
ATOM     22  C   UNL     1       4.677   5.753  17.254  0.00  0.00    +0.000 C 
BRANCH  22  23
ATOM     23  N   UNL     1       3.716   6.035  18.313  0.00  0.00    +0.000 N 
ATOM     24  C   UNL     1       3.017   7.229  18.400  0.00  0.00    +0.000 A 
ATOM     25  C   UNL     1       3.100   8.416  17.650  0.00  0.00    +0.000 A 
ATOM     26  C   UNL     1       2.227   9.463  17.961  0.00  0.00    +0.000 A 
ATOM     27  C   UNL     1       1.291   9.332  18.979  0.00  0.00    +0.000 A 
ATOM     28  C   UNL     1       1.214   8.150  19.719  0.00  0.00    +0.000 A 
ATOM     29  C   UNL     1       2.092   7.083  19.430  0.00  0.00    +0.000 A 
ATOM     30  C   UNL     1       2.268   5.780  19.986  0.00  0.00    +0.000 A 
ATOM     31  C   UNL     1       1.622   5.106  21.032  0.00  0.00    +0.000 A 
ATOM     32  C   UNL     1       2.051   3.826  21.309  0.00  0.00    +0.000 A 
ATOM     33  N   UNL     1       3.037   3.198  20.642  0.00  0.00    +0.000 NA
ATOM     34  C   UNL     1       3.686   3.818  19.616  0.00  0.00    +0.000 A 
ATOM     35  C   UNL     1       4.765   3.008  18.966  0.00  0.00    +0.000 C 
ATOM     36  C   UNL     1       3.295   5.135  19.285  0.00  0.00    +0.000 A 
ENDBRANCH  22  23
ENDBRANCH  21  22
ENDBRANCH  20  21
ENDBRANCH  19  20
ENDBRANCH   1  19
TORSDOF 8
ENDMDL
