MODEL 1
REMARK VINA RESULT:      -7.2      0.000      0.000
REMARK  Name = 
REMARK  12 active torsions:
REMARK  status: ('A' for Active; 'I' for Inactive)
REMARK    1  A    between atoms: C_1  and  C_2
REMARK    2  A    between atoms: C_2  and  C_3
REMARK    3  A    between atoms: C_3  and  C_4
REMARK    4  A    between atoms: C_4  and  C_5
REMARK    5  A    between atoms: C_5  and  C_6
REMARK    6  A    between atoms: C_6  and  N_7
REMARK    7  A    between atoms: C_8  and  C_10
REMARK    8  A    between atoms: C_10  and  C_11
REMARK    9  A    between atoms: C_16  and  O_17
REMARK   10  A    between atoms: O_17  and  C_18
REMARK   11  A    between atoms: C_19  and  O_20
REMARK   12  A    between atoms: O_20  and  C_21
REMARK                            x       y       z     vdW  Elec       q    Type
REMARK                         _______ _______ _______ _____ _____    ______ ____
ROOT
ATOM      1  C   UNL     1       4.537   6.405  17.103  0.00  0.00    +0.000 C 
ATOM      2  C   UNL     1       3.721   7.700  17.320  0.00  0.00    +0.000 C 
ATOM      3  C   UNL     1       2.464   7.322  18.117  0.00  0.00    +0.000 C 
ATOM      4  C   UNL     1       2.898   6.069  18.807  0.00  0.00    +0.000 A 
ATOM      5  C   UNL     1       2.270   5.428  19.866  0.00  0.00    +0.000 A 
ATOM      6  C   UNL     1       2.796   4.220  20.358  0.00  0.00    +0.000 A 
ATOM      7  C   UNL     1       3.933   3.655  19.733  0.00  0.00    +0.000 A 
ATOM      8  C   UNL     1       4.529   4.309  18.643  0.00  0.00    +0.000 A 
ATOM      9  C   UNL     1       4.034   5.529  18.214  0.00  0.00    +0.000 A 
ENDROOT
BRANCH   6  10
ATOM     10  O   UNL     1       2.248   3.554  21.422  0.00  0.00    +0.000 OA
ATOM     11  C   UNL     1       1.128   2.710  21.188  0.00  0.00    +0.000 C 
ENDBRANCH   6  10
BRANCH   7  12
ATOM     12  O   UNL     1       4.598   2.497  20.045  0.00  0.00    +0.000 OA
ATOM     13  C   UNL     1       4.274   1.307  19.345  0.00  0.00    +0.000 C 
ENDBRANCH   7  12
BRANCH   1  14
ATOM     14  C   UNL     1       6.053   6.623  17.060  0.00  0.00    +0.000 C 
BRANCH  14  16
ATOM     15  N   UNL     1       6.506   5.697  14.839  0.00  0.00    +0.000 N 
ATOM     16  C   UNL     1       6.812   5.643  16.181  0.00  0.00    +0.000 C 
ATOM     17  O   UNL     1       7.640   4.864  16.646  0.00  0.00    +0.000 OA
ATOM     18  H   UNL     1       5.743   6.279  14.520  0.00  0.00    +0.000 HD
BRANCH  15  19
ATOM     19  C   UNL     1       7.102   4.758  13.919  0.00  0.00    +0.000 C 
BRANCH  19  20
ATOM     20  C   UNL     1       6.214   3.551  13.645  0.00  0.00    +0.000 C 
BRANCH  20  21
ATOM     21  C   UNL     1       4.960   3.985  12.884  0.00  0.00    +0.000 C 
BRANCH  21  22
ATOM     22  C   UNL     1       4.814   3.248  11.555  0.00  0.00    +0.000 C 
BRANCH  22  24
ATOM     23  C   UNL     1       3.118   3.827   9.789  0.00  0.00    +0.000 C 
ATOM     24  C   UNL     1       3.347   3.161  11.133  0.00  0.00    +0.000 C 
ENDBRANCH  22  24
ENDBRANCH  21  22
ENDBRANCH  20  21
ENDBRANCH  19  20
ENDBRANCH  15  19
ENDBRANCH  14  16
ENDBRANCH   1  14
TORSDOF 9
ENDMDL
MODEL 2
REMARK VINA RESULT:      -6.9      4.198      6.832
REMARK  Name = 
REMARK  12 active torsions:
REMARK  status: ('A' for Active; 'I' for Inactive)
REMARK    1  A    between atoms: C_1  and  C_2
REMARK    2  A    between atoms: C_2  and  C_3
REMARK    3  A    between atoms: C_3  and  C_4
REMARK    4  A    between atoms: C_4  and  C_5
REMARK    5  A    between atoms: C_5  and  C_6
REMARK    6  A    between atoms: C_6  and  N_7
REMARK    7  A    between atoms: C_8  and  C_10
REMARK    8  A    between atoms: C_10  and  C_11
REMARK    9  A    between atoms: C_16  and  O_17
REMARK   10  A    between atoms: O_17  and  C_18
REMARK   11  A    between atoms: C_19  and  O_20
REMARK   12  A    between atoms: O_20  and  C_21
REMARK                            x       y       z     vdW  Elec       q    Type
REMARK                         _______ _______ _______ _____ _____    ______ ____
ROOT
ATOM      1  C   UNL     1       6.468   5.585  17.032  0.00  0.00    +0.000 C 
ATOM      2  C   UNL     1       6.678   4.861  15.681  0.00  0.00    +0.000 C 
ATOM      3  C   UNL     1       5.689   3.688  15.631  0.00  0.00    +0.000 C 
ATOM      4  C   UNL     1       4.622   4.140  16.577  0.00  0.00    +0.000 A 
ATOM      5  C   UNL     1       3.348   3.610  16.727  0.00  0.00    +0.000 A 
ATOM      6  C   UNL     1       2.490   4.131  17.712  0.00  0.00    +0.000 A 
ATOM      7  C   UNL     1       2.959   5.160  18.563  0.00  0.00    +0.000 A 
ATOM      8  C   UNL     1       4.263   5.656  18.409  0.00  0.00    +0.000 A 
ATOM      9  C   UNL     1       5.070   5.173  17.392  0.00  0.00    +0.000 A 
ENDROOT
BRANCH   6  10
ATOM     10  O   UNL     1       1.210   3.679  17.892  0.00  0.00    +0.000 OA
ATOM     11  C   UNL     1       1.000   2.565  18.750  0.00  0.00    +0.000 C 
ENDBRANCH   6  10
BRANCH   7  12
ATOM     12  O   UNL     1       2.298   5.802  19.579  0.00  0.00    +0.000 OA
ATOM     13  C   UNL     1       2.271   7.220  19.596  0.00  0.00    +0.000 C 
ENDBRANCH   7  12
BRANCH   1  14
ATOM     14  C   UNL     1       6.726   7.094  16.977  0.00  0.00    +0.000 C 
BRANCH  14  16
ATOM     15  N   UNL     1       7.967   8.962  17.961  0.00  0.00    +0.000 N 
ATOM     16  C   UNL     1       7.741   7.603  17.987  0.00  0.00    +0.000 C 
ATOM     17  O   UNL     1       8.311   6.846  18.768  0.00  0.00    +0.000 OA
ATOM     18  H   UNL     1       7.554   9.527  17.231  0.00  0.00    +0.000 HD
BRANCH  15  19
ATOM     19  C   UNL     1       8.970   9.548  18.818  0.00  0.00    +0.000 C 
BRANCH  19  20
ATOM     20  C   UNL     1       9.393  10.941  18.368  0.00  0.00    +0.000 C 
BRANCH  20  21
ATOM     21  C   UNL     1      10.480  11.485  19.297  0.00  0.00    +0.000 C 
BRANCH  21  22
ATOM     22  C   UNL     1      11.727  11.915  18.528  0.00  0.00    +0.000 C 
BRANCH  22  24
ATOM     23  C   UNL     1      11.528  13.392  16.501  0.00  0.00    +0.000 C 
ATOM     24  C   UNL     1      11.589  13.349  18.017  0.00  0.00    +0.000 C 
ENDBRANCH  22  24
ENDBRANCH  21  22
ENDBRANCH  20  21
ENDBRANCH  19  20
ENDBRANCH  15  19
ENDBRANCH  14  16
ENDBRANCH   1  14
TORSDOF 9
ENDMDL
MODEL 3
REMARK VINA RESULT:      -6.8      3.360      6.056
REMARK  Name = 
REMARK  12 active torsions:
REMARK  status: ('A' for Active; 'I' for Inactive)
REMARK    1  A    between atoms: C_1  and  C_2
REMARK    2  A    between atoms: C_2  and  C_3
REMARK    3  A    between atoms: C_3  and  C_4
REMARK    4  A    between atoms: C_4  and  C_5
REMARK    5  A    between atoms: C_5  and  C_6
REMARK    6  A    between atoms: C_6  and  N_7
REMARK    7  A    between atoms: C_8  and  C_10
REMARK    8  A    between atoms: C_10  and  C_11
REMARK    9  A    between atoms: C_16  and  O_17
REMARK   10  A    between atoms: O_17  and  C_18
REMARK   11  A    between atoms: C_19  and  O_20
REMARK   12  A    between atoms: O_20  and  C_21
REMARK                            x       y       z     vdW  Elec       q    Type
REMARK                         _______ _______ _______ _____ _____    ______ ____
ROOT
ATOM      1  C   UNL     1       4.727   6.175  16.775  0.00  0.00    +0.000 C 
ATOM      2  C   UNL     1       4.251   7.597  17.155  0.00  0.00    +0.000 C 
ATOM      3  C   UNL     1       3.057   7.443  18.106  0.00  0.00    +0.000 C 
ATOM      4  C   UNL     1       3.289   6.082  18.680  0.00  0.00    +0.000 A 
ATOM      5  C   UNL     1       2.679   5.521  19.793  0.00  0.00    +0.000 A 
ATOM      6  C   UNL     1       2.984   4.198  20.160  0.00  0.00    +0.000 A 
ATOM      7  C   UNL     1       3.877   3.447  19.360  0.00  0.00    +0.000 A 
ATOM      8  C   UNL     1       4.456   4.030  18.221  0.00  0.00    +0.000 A 
ATOM      9  C   UNL     1       4.192   5.354  17.913  0.00  0.00    +0.000 A 
ENDROOT
BRANCH   6  10
ATOM     10  O   UNL     1       2.446   3.594  21.265  0.00  0.00    +0.000 OA
ATOM     11  C   UNL     1       1.202   2.919  21.129  0.00  0.00    +0.000 C 
ENDBRANCH   6  10
BRANCH   7  12
ATOM     12  O   UNL     1       4.305   2.155  19.531  0.00  0.00    +0.000 OA
ATOM     13  C   UNL     1       3.767   1.136  18.703  0.00  0.00    +0.000 C 
ENDBRANCH   7  12
BRANCH   1  14
ATOM     14  C   UNL     1       6.235   6.066  16.527  0.00  0.00    +0.000 C 
BRANCH  14  16
ATOM     15  N   UNL     1       7.525   7.997  17.305  0.00  0.00    +0.000 N 
ATOM     16  C   UNL     1       7.103   6.717  17.591  0.00  0.00    +0.000 C 
ATOM     17  O   UNL     1       7.397   6.134  18.630  0.00  0.00    +0.000 OA
ATOM     18  H   UNL     1       7.346   8.394  16.392  0.00  0.00    +0.000 HD
BRANCH  15  19
ATOM     19  C   UNL     1       8.422   8.684  18.203  0.00  0.00    +0.000 C 
BRANCH  19  20
ATOM     20  C   UNL     1       8.366  10.199  18.052  0.00  0.00    +0.000 C 
BRANCH  20  21
ATOM     21  C   UNL     1       9.675  10.824  18.538  0.00  0.00    +0.000 C 
BRANCH  21  22
ATOM     22  C   UNL     1       9.528  11.459  19.918  0.00  0.00    +0.000 C 
BRANCH  22  24
ATOM     23  C   UNL     1      11.987  11.700  19.441  0.00  0.00    +0.000 C 
ATOM     24  C   UNL     1      10.882  11.919  20.458  0.00  0.00    +0.000 C 
ENDBRANCH  22  24
ENDBRANCH  21  22
ENDBRANCH  20  21
ENDBRANCH  19  20
ENDBRANCH  15  19
ENDBRANCH  14  16
ENDBRANCH   1  14
TORSDOF 9
ENDMDL
MODEL 4
REMARK VINA RESULT:      -6.8      1.465      1.757
REMARK  Name = 
REMARK  12 active torsions:
REMARK  status: ('A' for Active; 'I' for Inactive)
REMARK    1  A    between atoms: C_1  and  C_2
REMARK    2  A    between atoms: C_2  and  C_3
REMARK    3  A    between atoms: C_3  and  C_4
REMARK    4  A    between atoms: C_4  and  C_5
REMARK    5  A    between atoms: C_5  and  C_6
REMARK    6  A    between atoms: C_6  and  N_7
REMARK    7  A    between atoms: C_8  and  C_10
REMARK    8  A    between atoms: C_10  and  C_11
REMARK    9  A    between atoms: C_16  and  O_17
REMARK   10  A    between atoms: O_17  and  C_18
REMARK   11  A    between atoms: C_19  and  O_20
REMARK   12  A    between atoms: O_20  and  C_21
REMARK                            x       y       z     vdW  Elec       q    Type
REMARK                         _______ _______ _______ _____ _____    ______ ____
ROOT
ATOM      1  C   UNL     1       4.492   6.725  16.937  0.00  0.00    +0.000 C 
ATOM      2  C   UNL     1       3.810   7.898  17.680  0.00  0.00    +0.000 C 
ATOM      3  C   UNL     1       2.427   7.412  18.133  0.00  0.00    +0.000 C 
ATOM      4  C   UNL     1       2.620   5.931  18.188  0.00  0.00    +0.000 A 
ATOM      5  C   UNL     1       1.791   4.994  18.791  0.00  0.00    +0.000 A 
ATOM      6  C   UNL     1       2.105   3.626  18.697  0.00  0.00    +0.000 A 
ATOM      7  C   UNL     1       3.239   3.226  17.951  0.00  0.00    +0.000 A 
ATOM      8  C   UNL     1       4.042   4.194  17.326  0.00  0.00    +0.000 A 
ATOM      9  C   UNL     1       3.752   5.538  17.483  0.00  0.00    +0.000 A 
ENDROOT
BRANCH   6  10
ATOM     10  O   UNL     1       1.351   2.652  19.296  0.00  0.00    +0.000 OA
ATOM     11  C   UNL     1       0.978   2.825  20.657  0.00  0.00    +0.000 C 
ENDBRANCH   6  10
BRANCH   7  12
ATOM     12  O   UNL     1       3.719   1.960  17.731  0.00  0.00    +0.000 OA
ATOM     13  C   UNL     1       4.154   1.187  18.837  0.00  0.00    +0.000 C 
ENDBRANCH   7  12
BRANCH   1  14
ATOM     14  C   UNL     1       6.016   6.690  17.091  0.00  0.00    +0.000 C 
BRANCH  14  16
ATOM     15  N   UNL     1       6.330   5.691  14.878  0.00  0.00    +0.000 N 
ATOM     16  C   UNL     1       6.722   5.683  16.198  0.00  0.00    +0.000 C 
ATOM     17  O   UNL     1       7.581   4.923  16.635  0.00  0.00    +0.000 OA
ATOM     18  H   UNL     1       5.546   6.260  14.589  0.00  0.00    +0.000 HD
BRANCH  15  19
ATOM     19  C   UNL     1       6.872   4.724  13.953  0.00  0.00    +0.000 C 
BRANCH  19  20
ATOM     20  C   UNL     1       5.930   3.553  13.702  0.00  0.00    +0.000 C 
BRANCH  20  21
ATOM     21  C   UNL     1       5.806   3.293  12.200  0.00  0.00    +0.000 C 
BRANCH  21  22
ATOM     22  C   UNL     1       7.170   3.190  11.521  0.00  0.00    +0.000 C 
BRANCH  22  24
ATOM     23  C   UNL     1       6.176   0.932  11.027  0.00  0.00    +0.000 C 
ATOM     24  C   UNL     1       7.448   1.760  11.059  0.00  0.00    +0.000 C 
ENDBRANCH  22  24
ENDBRANCH  21  22
ENDBRANCH  20  21
ENDBRANCH  19  20
ENDBRANCH  15  19
ENDBRANCH  14  16
ENDBRANCH   1  14
TORSDOF 9
ENDMDL
MODEL 5
REMARK VINA RESULT:      -6.7      4.073      8.451
REMARK  Name = 
REMARK  12 active torsions:
REMARK  status: ('A' for Active; 'I' for Inactive)
REMARK    1  A    between atoms: C_1  and  C_2
REMARK    2  A    between atoms: C_2  and  C_3
REMARK    3  A    between atoms: C_3  and  C_4
REMARK    4  A    between atoms: C_4  and  C_5
REMARK    5  A    between atoms: C_5  and  C_6
REMARK    6  A    between atoms: C_6  and  N_7
REMARK    7  A    between atoms: C_8  and  C_10
REMARK    8  A    between atoms: C_10  and  C_11
REMARK    9  A    between atoms: C_16  and  O_17
REMARK   10  A    between atoms: O_17  and  C_18
REMARK   11  A    between atoms: C_19  and  O_20
REMARK   12  A    between atoms: O_20  and  C_21
REMARK                            x       y       z     vdW  Elec       q    Type
REMARK                         _______ _______ _______ _____ _____    ______ ____
ROOT
ATOM      1  C   UNL     1       2.357   5.629  18.544  0.00  0.00    +0.000 C 
ATOM      2  C   UNL     1       1.856   4.166  18.530  0.00  0.00    +0.000 C 
ATOM      3  C   UNL     1       2.510   3.469  17.329  0.00  0.00    +0.000 C 
ATOM      4  C   UNL     1       3.732   4.302  17.113  0.00  0.00    +0.000 A 
ATOM      5  C   UNL     1       4.840   3.990  16.335  0.00  0.00    +0.000 A 
ATOM      6  C   UNL     1       5.883   4.925  16.205  0.00  0.00    +0.000 A 
ATOM      7  C   UNL     1       5.764   6.186  16.834  0.00  0.00    +0.000 A 
ATOM      8  C   UNL     1       4.618   6.487  17.588  0.00  0.00    +0.000 A 
ATOM      9  C   UNL     1       3.631   5.530  17.757  0.00  0.00    +0.000 A 
ENDROOT
BRANCH   6  10
ATOM     10  O   UNL     1       7.017   4.669  15.482  0.00  0.00    +0.000 OA
ATOM     11  C   UNL     1       6.969   4.820  14.069  0.00  0.00    +0.000 C 
ENDBRANCH   6  10
BRANCH   7  12
ATOM     12  O   UNL     1       6.650   7.233  16.833  0.00  0.00    +0.000 OA
ATOM     13  C   UNL     1       7.690   7.256  17.797  0.00  0.00    +0.000 C 
ENDBRANCH   7  12
BRANCH   1  14
ATOM     14  C   UNL     1       2.485   6.231  19.948  0.00  0.00    +0.000 C 
BRANCH  14  16
ATOM     15  N   UNL     1       1.584   8.008  21.371  0.00  0.00    +0.000 N 
ATOM     16  C   UNL     1       1.927   7.638  20.089  0.00  0.00    +0.000 C 
ATOM     17  O   UNL     1       1.800   8.383  19.122  0.00  0.00    +0.000 OA
ATOM     18  H   UNL     1       1.608   7.325  22.116  0.00  0.00    +0.000 HD
BRANCH  15  19
ATOM     19  C   UNL     1       0.967   9.291  21.616  0.00  0.00    +0.000 C 
BRANCH  19  20
ATOM     20  C   UNL     1       0.039   9.280  22.824  0.00  0.00    +0.000 C 
BRANCH  20  21
ATOM     21  C   UNL     1      -0.756  10.586  22.886  0.00  0.00    +0.000 C 
BRANCH  21  22
ATOM     22  C   UNL     1      -0.333  11.566  21.795  0.00  0.00    +0.000 C 
BRANCH  22  24
ATOM     23  C   UNL     1      -2.560  12.731  21.680  0.00  0.00    +0.000 C 
ATOM     24  C   UNL     1      -1.518  11.945  20.907  0.00  0.00    +0.000 C 
ENDBRANCH  22  24
ENDBRANCH  21  22
ENDBRANCH  20  21
ENDBRANCH  19  20
ENDBRANCH  15  19
ENDBRANCH  14  16
ENDBRANCH   1  14
TORSDOF 9
ENDMDL
MODEL 6
REMARK VINA RESULT:      -6.7      0.926      1.070
REMARK  Name = 
REMARK  12 active torsions:
REMARK  status: ('A' for Active; 'I' for Inactive)
REMARK    1  A    between atoms: C_1  and  C_2
REMARK    2  A    between atoms: C_2  and  C_3
REMARK    3  A    between atoms: C_3  and  C_4
REMARK    4  A    between atoms: C_4  and  C_5
REMARK    5  A    between atoms: C_5  and  C_6
REMARK    6  A    between atoms: C_6  and  N_7
REMARK    7  A    between atoms: C_8  and  C_10
REMARK    8  A    between atoms: C_10  and  C_11
REMARK    9  A    between atoms: C_16  and  O_17
REMARK   10  A    between atoms: O_17  and  C_18
REMARK   11  A    between atoms: C_19  and  O_20
REMARK   12  A    between atoms: O_20  and  C_21
REMARK                            x       y       z     vdW  Elec       q    Type
REMARK                         _______ _______ _______ _____ _____    ______ ____
ROOT
ATOM      1  C   UNL     1       4.454   6.448  17.300  0.00  0.00    +0.000 C 
ATOM      2  C   UNL     1       3.635   7.729  17.583  0.00  0.00    +0.000 C 
ATOM      3  C   UNL     1       2.213   7.291  17.958  0.00  0.00    +0.000 C 
ATOM      4  C   UNL     1       2.437   5.897  18.453  0.00  0.00    +0.000 A 
ATOM      5  C   UNL     1       1.553   5.106  19.173  0.00  0.00    +0.000 A 
ATOM      6  C   UNL     1       1.916   3.790  19.511  0.00  0.00    +0.000 A 
ATOM      7  C   UNL     1       3.161   3.281  19.071  0.00  0.00    +0.000 A 
ATOM      8  C   UNL     1       4.022   4.094  18.317  0.00  0.00    +0.000 A 
ATOM      9  C   UNL     1       3.674   5.407  18.049  0.00  0.00    +0.000 A 
ENDROOT
BRANCH   6  10
ATOM     10  O   UNL     1       1.107   2.966  20.248  0.00  0.00    +0.000 OA
ATOM     11  C   UNL     1       1.411   2.773  21.624  0.00  0.00    +0.000 C 
ENDBRANCH   6  10
BRANCH   7  12
ATOM     12  O   UNL     1       3.704   2.039  19.283  0.00  0.00    +0.000 OA
ATOM     13  C   UNL     1       4.733   1.894  20.249  0.00  0.00    +0.000 C 
ENDBRANCH   7  12
BRANCH   1  14
ATOM     14  C   UNL     1       5.938   6.562  17.667  0.00  0.00    +0.000 C 
BRANCH  14  16
ATOM     15  N   UNL     1       6.591   5.528  15.546  0.00  0.00    +0.000 N 
ATOM     16  C   UNL     1       6.857   5.632  16.893  0.00  0.00    +0.000 C 
ATOM     17  O   UNL     1       7.772   5.024  17.442  0.00  0.00    +0.000 OA
ATOM     18  H   UNL     1       5.764   5.964  15.161  0.00  0.00    +0.000 HD
BRANCH  15  19
ATOM     19  C   UNL     1       7.346   4.612  14.724  0.00  0.00    +0.000 C 
BRANCH  19  20
ATOM     20  C   UNL     1       7.012   4.732  13.243  0.00  0.00    +0.000 C 
BRANCH  20  21
ATOM     21  C   UNL     1       5.809   3.850  12.902  0.00  0.00    +0.000 C 
BRANCH  21  22
ATOM     22  C   UNL     1       6.202   2.657  12.034  0.00  0.00    +0.000 C 
BRANCH  22  24
ATOM     23  C   UNL     1       3.900   3.200  11.174  0.00  0.00    +0.000 C 
ATOM     24  C   UNL     1       5.017   2.172  11.199  0.00  0.00    +0.000 C 
ENDBRANCH  22  24
ENDBRANCH  21  22
ENDBRANCH  20  21
ENDBRANCH  19  20
ENDBRANCH  15  19
ENDBRANCH  14  16
ENDBRANCH   1  14
TORSDOF 9
ENDMDL
MODEL 7
REMARK VINA RESULT:      -6.7      3.309      5.729
REMARK  Name = 
REMARK  12 active torsions:
REMARK  status: ('A' for Active; 'I' for Inactive)
REMARK    1  A    between atoms: C_1  and  C_2
REMARK    2  A    between atoms: C_2  and  C_3
REMARK    3  A    between atoms: C_3  and  C_4
REMARK    4  A    between atoms: C_4  and  C_5
REMARK    5  A    between atoms: C_5  and  C_6
REMARK    6  A    between atoms: C_6  and  N_7
REMARK    7  A    between atoms: C_8  and  C_10
REMARK    8  A    between atoms: C_10  and  C_11
REMARK    9  A    between atoms: C_16  and  O_17
REMARK   10  A    between atoms: O_17  and  C_18
REMARK   11  A    between atoms: C_19  and  O_20
REMARK   12  A    between atoms: O_20  and  C_21
REMARK                            x       y       z     vdW  Elec       q    Type
REMARK                         _______ _______ _______ _____ _____    ______ ____
ROOT
ATOM      1  C   UNL     1       4.704   5.863  16.580  0.00  0.00    +0.000 C 
ATOM      2  C   UNL     1       4.453   7.282  17.142  0.00  0.00    +0.000 C 
ATOM      3  C   UNL     1       3.048   7.288  17.761  0.00  0.00    +0.000 C 
ATOM      4  C   UNL     1       2.837   5.840  18.069  0.00  0.00    +0.000 A 
ATOM      5  C   UNL     1       1.857   5.284  18.880  0.00  0.00    +0.000 A 
ATOM      6  C   UNL     1       1.777   3.886  19.014  0.00  0.00    +0.000 A 
ATOM      7  C   UNL     1       2.670   3.069  18.283  0.00  0.00    +0.000 A 
ATOM      8  C   UNL     1       3.631   3.657  17.445  0.00  0.00    +0.000 A 
ATOM      9  C   UNL     1       3.735   5.036  17.376  0.00  0.00    +0.000 A 
ENDROOT
BRANCH   6  10
ATOM     10  O   UNL     1       0.858   3.273  19.824  0.00  0.00    +0.000 OA
ATOM     11  C   UNL     1       1.257   2.892  21.134  0.00  0.00    +0.000 C 
ENDBRANCH   6  10
BRANCH   7  12
ATOM     12  O   UNL     1       2.762   1.700  18.263  0.00  0.00    +0.000 OA
ATOM     13  C   UNL     1       3.996   1.088  18.599  0.00  0.00    +0.000 C 
ENDBRANCH   7  12
BRANCH   1  14
ATOM     14  C   UNL     1       6.169   5.417  16.643  0.00  0.00    +0.000 C 
BRANCH  14  16
ATOM     15  N   UNL     1       7.493   7.370  17.301  0.00  0.00    +0.000 N 
ATOM     16  C   UNL     1       7.008   6.139  17.685  0.00  0.00    +0.000 C 
ATOM     17  O   UNL     1       7.229   5.649  18.789  0.00  0.00    +0.000 OA
ATOM     18  H   UNL     1       7.374   7.682  16.346  0.00  0.00    +0.000 HD
BRANCH  15  19
ATOM     19  C   UNL     1       8.370   8.110  18.176  0.00  0.00    +0.000 C 
BRANCH  19  20
ATOM     20  C   UNL     1       8.257   9.618  17.990  0.00  0.00    +0.000 C 
BRANCH  20  21
ATOM     21  C   UNL     1       9.136  10.340  19.013  0.00  0.00    +0.000 C 
BRANCH  21  22
ATOM     22  C   UNL     1      10.130  11.288  18.346  0.00  0.00    +0.000 C 
BRANCH  22  24
ATOM     23  C   UNL     1      10.443  13.682  17.638  0.00  0.00    +0.000 C 
ATOM     24  C   UNL     1       9.439  12.570  17.880  0.00  0.00    +0.000 C 
ENDBRANCH  22  24
ENDBRANCH  21  22
ENDBRANCH  20  21
ENDBRANCH  19  20
ENDBRANCH  15  19
ENDBRANCH  14  16
ENDBRANCH   1  14
TORSDOF 9
ENDMDL
MODEL 8
REMARK VINA RESULT:      -6.6      3.942      6.999
REMARK  Name = 
REMARK  12 active torsions:
REMARK  status: ('A' for Active; 'I' for Inactive)
REMARK    1  A    between atoms: C_1  and  C_2
REMARK    2  A    between atoms: C_2  and  C_3
REMARK    3  A    between atoms: C_3  and  C_4
REMARK    4  A    between atoms: C_4  and  C_5
REMARK    5  A    between atoms: C_5  and  C_6
REMARK    6  A    between atoms: C_6  and  N_7
REMARK    7  A    between atoms: C_8  and  C_10
REMARK    8  A    between atoms: C_10  and  C_11
REMARK    9  A    between atoms: C_16  and  O_17
REMARK   10  A    between atoms: O_17  and  C_18
REMARK   11  A    between atoms: C_19  and  O_20
REMARK   12  A    between atoms: O_20  and  C_21
REMARK                            x       y       z     vdW  Elec       q    Type
REMARK                         _______ _______ _______ _____ _____    ______ ____
ROOT
ATOM      1  C   UNL     1       6.698   5.636  16.931  0.00  0.00    +0.000 C 
ATOM      2  C   UNL     1       6.757   4.937  15.553  0.00  0.00    +0.000 C 
ATOM      3  C   UNL     1       5.795   3.742  15.604  0.00  0.00    +0.000 C 
ATOM      4  C   UNL     1       4.843   4.154  16.681  0.00  0.00    +0.000 A 
ATOM      5  C   UNL     1       3.608   3.591  16.977  0.00  0.00    +0.000 A 
ATOM      6  C   UNL     1       2.866   4.078  18.068  0.00  0.00    +0.000 A 
ATOM      7  C   UNL     1       3.413   5.106  18.872  0.00  0.00    +0.000 A 
ATOM      8  C   UNL     1       4.677   5.635  18.568  0.00  0.00    +0.000 A 
ATOM      9  C   UNL     1       5.364   5.186  17.453  0.00  0.00    +0.000 A 
ENDROOT
BRANCH   6  10
ATOM     10  O   UNL     1       1.628   3.593  18.395  0.00  0.00    +0.000 OA
ATOM     11  C   UNL     1       1.549   2.457  19.246  0.00  0.00    +0.000 C 
ENDBRANCH   6  10
BRANCH   7  12
ATOM     12  O   UNL     1       2.867   5.717  19.973  0.00  0.00    +0.000 OA
ATOM     13  C   UNL     1       2.234   6.976  19.817  0.00  0.00    +0.000 C 
ENDBRANCH   7  12
BRANCH   1  14
ATOM     14  C   UNL     1       6.913   7.152  16.871  0.00  0.00    +0.000 C 
BRANCH  14  16
ATOM     15  N   UNL     1       8.054   9.065  17.889  0.00  0.00    +0.000 N 
ATOM     16  C   UNL     1       7.834   7.706  17.946  0.00  0.00    +0.000 C 
ATOM     17  O   UNL     1       8.338   6.983  18.801  0.00  0.00    +0.000 OA
ATOM     18  H   UNL     1       7.703   9.599  17.106  0.00  0.00    +0.000 HD
BRANCH  15  19
ATOM     19  C   UNL     1       8.975   9.691  18.807  0.00  0.00    +0.000 C 
BRANCH  19  20
ATOM     20  C   UNL     1       9.489  11.034  18.307  0.00  0.00    +0.000 C 
BRANCH  20  21
ATOM     21  C   UNL     1       9.761  11.966  19.489  0.00  0.00    +0.000 C 
BRANCH  21  22
ATOM     22  C   UNL     1       9.427  11.308  20.825  0.00  0.00    +0.000 C 
BRANCH  22  24
ATOM     23  C   UNL     1       8.209  11.583  23.009  0.00  0.00    +0.000 C 
ATOM     24  C   UNL     1       8.676  12.274  21.741  0.00  0.00    +0.000 C 
ENDBRANCH  22  24
ENDBRANCH  21  22
ENDBRANCH  20  21
ENDBRANCH  19  20
ENDBRANCH  15  19
ENDBRANCH  14  16
ENDBRANCH   1  14
TORSDOF 9
ENDMDL
MODEL 9
REMARK VINA RESULT:      -6.6      3.891      6.476
REMARK  Name = 
REMARK  12 active torsions:
REMARK  status: ('A' for Active; 'I' for Inactive)
REMARK    1  A    between atoms: C_1  and  C_2
REMARK    2  A    between atoms: C_2  and  C_3
REMARK    3  A    between atoms: C_3  and  C_4
REMARK    4  A    between atoms: C_4  and  C_5
REMARK    5  A    between atoms: C_5  and  C_6
REMARK    6  A    between atoms: C_6  and  N_7
REMARK    7  A    between atoms: C_8  and  C_10
REMARK    8  A    between atoms: C_10  and  C_11
REMARK    9  A    between atoms: C_16  and  O_17
REMARK   10  A    between atoms: O_17  and  C_18
REMARK   11  A    between atoms: C_19  and  O_20
REMARK   12  A    between atoms: O_20  and  C_21
REMARK                            x       y       z     vdW  Elec       q    Type
REMARK                         _______ _______ _______ _____ _____    ______ ____
ROOT
ATOM      1  C   UNL     1       7.001   4.480  17.775  0.00  0.00    +0.000 C 
ATOM      2  C   UNL     1       7.066   4.691  16.244  0.00  0.00    +0.000 C 
ATOM      3  C   UNL     1       5.827   4.020  15.636  0.00  0.00    +0.000 C 
ATOM      4  C   UNL     1       4.876   4.019  16.789  0.00  0.00    +0.000 A 
ATOM      5  C   UNL     1       3.508   3.782  16.755  0.00  0.00    +0.000 A 
ATOM      6  C   UNL     1       2.775   3.769  17.955  0.00  0.00    +0.000 A 
ATOM      7  C   UNL     1       3.453   3.954  19.182  0.00  0.00    +0.000 A 
ATOM      8  C   UNL     1       4.842   4.161  19.190  0.00  0.00    +0.000 A 
ATOM      9  C   UNL     1       5.536   4.234  17.994  0.00  0.00    +0.000 A 
ENDROOT
BRANCH   6  10
ATOM     10  O   UNL     1       1.420   3.575  17.990  0.00  0.00    +0.000 OA
ATOM     11  C   UNL     1       0.922   2.374  18.566  0.00  0.00    +0.000 C 
ENDBRANCH   6  10
BRANCH   7  12
ATOM     12  O   UNL     1       2.939   3.974  20.453  0.00  0.00    +0.000 OA
ATOM     13  C   UNL     1       2.196   5.106  20.878  0.00  0.00    +0.000 C 
ENDBRANCH   7  12
BRANCH   1  14
ATOM     14  C   UNL     1       7.613   5.625  18.589  0.00  0.00    +0.000 C 
BRANCH  14  16
ATOM     15  N   UNL     1       8.390   7.940  18.401  0.00  0.00    +0.000 N 
ATOM     16  C   UNL     1       7.497   6.996  17.944  0.00  0.00    +0.000 C 
ATOM     17  O   UNL     1       6.663   7.232  17.074  0.00  0.00    +0.000 OA
ATOM     18  H   UNL     1       8.985   7.728  19.191  0.00  0.00    +0.000 HD
BRANCH  15  19
ATOM     19  C   UNL     1       8.320   9.300  17.921  0.00  0.00    +0.000 C 
BRANCH  19  20
ATOM     20  C   UNL     1       8.999  10.293  18.856  0.00  0.00    +0.000 C 
BRANCH  20  21
ATOM     21  C   UNL     1       9.316  11.588  18.105  0.00  0.00    +0.000 C 
BRANCH  21  22
ATOM     22  C   UNL     1      10.791  11.682  17.724  0.00  0.00    +0.000 C 
BRANCH  22  24
ATOM     23  C   UNL     1      10.344  14.158  17.749  0.00  0.00    +0.000 C 
ATOM     24  C   UNL     1      11.107  13.031  17.077  0.00  0.00    +0.000 C 
ENDBRANCH  22  24
ENDBRANCH  21  22
ENDBRANCH  20  21
ENDBRANCH  19  20
ENDBRANCH  15  19
ENDBRANCH  14  16
ENDBRANCH   1  14
TORSDOF 9
ENDMDL
