MODEL 1
REMARK VINA RESULT:      -7.3      0.000      0.000
REMARK  Name = 
REMARK  9 active torsions:
REMARK  status: ('A' for Active; 'I' for Inactive)
REMARK    1  A    between atoms: C_1  and  C_2
REMARK    2  A    between atoms: C_2  and  N_3
REMARK    3  A    between atoms: N_3  and  C_4
REMARK    4  A    between atoms: N_3  and  C_6
REMARK    5  A    between atoms: N_3  and  C_8
REMARK    6  A    between atoms: C_4  and  C_5
REMARK    7  A    between atoms: C_6  and  C_7
REMARK    8  A    between atoms: C_11  and  C_12
REMARK    9  A    between atoms: C_13  and  C_14
REMARK                            x       y       z     vdW  Elec       q    Type
REMARK                         _______ _______ _______ _____ _____    ______ ____
ROOT
ATOM      1  C   UNL     1       0.455  10.780  19.930  0.00  0.00    +0.000 A 
ATOM      2  C   UNL     1       0.688   9.749  20.860  0.00  0.00    +0.000 A 
ATOM      3  C   UNL     1       1.343   8.495  20.519  0.00  0.00    +0.000 A 
ATOM      4  C   UNL     1       1.815   8.196  19.240  0.00  0.00    +0.000 A 
ATOM      5  C   UNL     1       1.561   9.235  18.305  0.00  0.00    +0.000 A 
ATOM      6  C   UNL     1       0.895  10.482  18.635  0.00  0.00    +0.000 A 
ENDROOT
BRANCH   4   7
ATOM      7  C   UNL     1       2.619   6.944  18.821  0.00  0.00    +0.000 C 
ATOM      8  C   UNL     1       2.425   5.821  18.038  0.00  0.00    +0.000 C 
BRANCH   8   9
ATOM      9  C   UNL     1       3.516   4.738  17.695  0.00  0.00    +0.000 A 
ATOM     10  C   UNL     1       3.569   3.683  18.597  0.00  0.00    +0.000 A 
ATOM     11  C   UNL     1       4.741   3.501  19.302  0.00  0.00    +0.000 A 
ATOM     12  N   UNL     1       5.908   4.064  18.957  0.00  0.00    +0.000 NA
ATOM     13  C   UNL     1       5.953   4.574  17.731  0.00  0.00    +0.000 A 
ATOM     14  C   UNL     1       7.206   4.599  17.157  0.00  0.00    +0.000 A 
ATOM     15  C   UNL     1       7.376   4.744  15.795  0.00  0.00    +0.000 A 
ATOM     16  C   UNL     1       6.244   4.963  15.001  0.00  0.00    +0.000 A 
ATOM     17  C   UNL     1       4.968   5.098  15.598  0.00  0.00    +0.000 A 
ATOM     18  C   UNL     1       4.767   4.920  16.998  0.00  0.00    +0.000 A 
ENDBRANCH   8   9
ENDBRANCH   4   7
BRANCH   1  19
ATOM     19  N   UNL     1      -0.207  12.201  20.300  0.00  0.00    +0.000 NA
BRANCH  19  21
ATOM     20  C   UNL     1      -2.507  11.946  19.129  0.00  0.00    +0.000 C 
ATOM     21  C   UNL     1      -1.176  12.695  19.207  0.00  0.00    +0.000 C 
ENDBRANCH  19  21
BRANCH  19  22
ATOM     22  C   UNL     1       0.923  13.260  20.552  0.00  0.00    +0.000 C 
ATOM     23  C   UNL     1       1.195  14.202  19.359  0.00  0.00    +0.000 C 
ENDBRANCH  19  22
BRANCH  19  24
ATOM     24  C   UNL     1      -1.004  12.061  21.637  0.00  0.00    +0.000 C 
ATOM     25  C   UNL     1      -0.899  13.249  22.580  0.00  0.00    +0.000 C 
ENDBRANCH  19  24
ENDBRANCH   1  19
TORSDOF 6
ENDMDL
MODEL 2
REMARK VINA RESULT:      -7.3      6.291      7.894
REMARK  Name = 
REMARK  9 active torsions:
REMARK  status: ('A' for Active; 'I' for Inactive)
REMARK    1  A    between atoms: C_1  and  C_2
REMARK    2  A    between atoms: C_2  and  N_3
REMARK    3  A    between atoms: N_3  and  C_4
REMARK    4  A    between atoms: N_3  and  C_6
REMARK    5  A    between atoms: N_3  and  C_8
REMARK    6  A    between atoms: C_4  and  C_5
REMARK    7  A    between atoms: C_6  and  C_7
REMARK    8  A    between atoms: C_11  and  C_12
REMARK    9  A    between atoms: C_13  and  C_14
REMARK                            x       y       z     vdW  Elec       q    Type
REMARK                         _______ _______ _______ _____ _____    ______ ____
ROOT
ATOM      1  C   UNL     1       9.696  12.540  18.694  0.00  0.00    +0.000 A 
ATOM      2  C   UNL     1      10.081  11.477  19.534  0.00  0.00    +0.000 A 
ATOM      3  C   UNL     1       9.558  10.126  19.406  0.00  0.00    +0.000 A 
ATOM      4  C   UNL     1       8.633   9.746  18.433  0.00  0.00    +0.000 A 
ATOM      5  C   UNL     1       8.239  10.828  17.600  0.00  0.00    +0.000 A 
ATOM      6  C   UNL     1       8.744  12.182  17.732  0.00  0.00    +0.000 A 
ENDROOT
BRANCH   4   7
ATOM      7  C   UNL     1       8.117   8.316  18.156  0.00  0.00    +0.000 C 
ATOM      8  C   UNL     1       7.050   7.724  17.505  0.00  0.00    +0.000 C 
BRANCH   8   9
ATOM      9  C   UNL     1       6.849   6.177  17.284  0.00  0.00    +0.000 A 
ATOM     10  C   UNL     1       7.422   5.694  16.115  0.00  0.00    +0.000 A 
ATOM     11  C   UNL     1       6.583   5.141  15.170  0.00  0.00    +0.000 A 
ATOM     12  N   UNL     1       5.323   4.762  15.430  0.00  0.00    +0.000 NA
ATOM     13  C   UNL     1       5.010   4.671  16.719  0.00  0.00    +0.000 A 
ATOM     14  C   UNL     1       4.015   3.764  17.014  0.00  0.00    +0.000 A 
ATOM     15  C   UNL     1       3.829   3.285  18.295  0.00  0.00    +0.000 A 
ATOM     16  C   UNL     1       4.616   3.811  19.325  0.00  0.00    +0.000 A 
ATOM     17  C   UNL     1       5.533   4.857  19.061  0.00  0.00    +0.000 A 
ATOM     18  C   UNL     1       5.762   5.344  17.741  0.00  0.00    +0.000 A 
ENDBRANCH   8   9
ENDBRANCH   4   7
BRANCH   1  19
ATOM     19  N   UNL     1      10.310  14.027  18.775  0.00  0.00    +0.000 NA
BRANCH  19  21
ATOM     20  C   UNL     1      11.993  13.251  16.961  0.00  0.00    +0.000 C 
ATOM     21  C   UNL     1      11.135  14.386  17.523  0.00  0.00    +0.000 C 
ENDBRANCH  19  21
BRANCH  19  22
ATOM     22  C   UNL     1      11.188  14.164  20.069  0.00  0.00    +0.000 C 
ATOM     23  C   UNL     1      10.552  15.022  21.185  0.00  0.00    +0.000 C 
ENDBRANCH  19  22
BRANCH  19  24
ATOM     24  C   UNL     1       9.143  15.057  18.908  0.00  0.00    +0.000 C 
ATOM     25  C   UNL     1       9.058  16.085  17.792  0.00  0.00    +0.000 C 
ENDBRANCH  19  24
ENDBRANCH   1  19
TORSDOF 6
ENDMDL
MODEL 3
REMARK VINA RESULT:      -7.3      0.477      1.925
REMARK  Name = 
REMARK  9 active torsions:
REMARK  status: ('A' for Active; 'I' for Inactive)
REMARK    1  A    between atoms: C_1  and  C_2
REMARK    2  A    between atoms: C_2  and  N_3
REMARK    3  A    between atoms: N_3  and  C_4
REMARK    4  A    between atoms: N_3  and  C_6
REMARK    5  A    between atoms: N_3  and  C_8
REMARK    6  A    between atoms: C_4  and  C_5
REMARK    7  A    between atoms: C_6  and  C_7
REMARK    8  A    between atoms: C_11  and  C_12
REMARK    9  A    between atoms: C_13  and  C_14
REMARK                            x       y       z     vdW  Elec       q    Type
REMARK                         _______ _______ _______ _____ _____    ______ ____
ROOT
ATOM      1  C   UNL     1       0.316  10.863  19.691  0.00  0.00    +0.000 A 
ATOM      2  C   UNL     1       0.967  10.737  18.449  0.00  0.00    +0.000 A 
ATOM      3  C   UNL     1       1.786   9.590  18.087  0.00  0.00    +0.000 A 
ATOM      4  C   UNL     1       1.997   8.497  18.929  0.00  0.00    +0.000 A 
ATOM      5  C   UNL     1       1.349   8.640  20.185  0.00  0.00    +0.000 A 
ATOM      6  C   UNL     1       0.543   9.789  20.559  0.00  0.00    +0.000 A 
ENDROOT
BRANCH   4   7
ATOM      7  C   UNL     1       2.753   7.195  18.581  0.00  0.00    +0.000 C 
ATOM      8  C   UNL     1       2.451   5.944  18.074  0.00  0.00    +0.000 C 
BRANCH   8   9
ATOM      9  C   UNL     1       3.496   4.823  17.707  0.00  0.00    +0.000 A 
ATOM     10  C   UNL     1       3.509   3.752  18.591  0.00  0.00    +0.000 A 
ATOM     11  C   UNL     1       4.675   3.509  19.287  0.00  0.00    +0.000 A 
ATOM     12  N   UNL     1       5.863   4.030  18.947  0.00  0.00    +0.000 NA
ATOM     13  C   UNL     1       5.924   4.558  17.728  0.00  0.00    +0.000 A 
ATOM     14  C   UNL     1       7.175   4.541  17.149  0.00  0.00    +0.000 A 
ATOM     15  C   UNL     1       7.344   4.702  15.788  0.00  0.00    +0.000 A 
ATOM     16  C   UNL     1       6.219   4.981  15.004  0.00  0.00    +0.000 A 
ATOM     17  C   UNL     1       4.952   5.158  15.610  0.00  0.00    +0.000 A 
ATOM     18  C   UNL     1       4.750   4.966  17.008  0.00  0.00    +0.000 A 
ENDBRANCH   8   9
ENDBRANCH   4   7
BRANCH   1  19
ATOM     19  N   UNL     1      -0.647  12.091  20.087  0.00  0.00    +0.000 NA
BRANCH  19  21
ATOM     20  C   UNL     1      -1.012  12.401  22.636  0.00  0.00    +0.000 C 
ATOM     21  C   UNL     1      -1.508  11.780  21.329  0.00  0.00    +0.000 C 
ENDBRANCH  19  21
BRANCH  19  22
ATOM     22  C   UNL     1      -1.560  12.461  18.865  0.00  0.00    +0.000 C 
ATOM     23  C   UNL     1      -2.696  11.453  18.588  0.00  0.00    +0.000 C 
ENDBRANCH  19  22
BRANCH  19  24
ATOM     24  C   UNL     1       0.227  13.349  20.396  0.00  0.00    +0.000 C 
ATOM     25  C   UNL     1      -0.080  14.574  19.551  0.00  0.00    +0.000 C 
ENDBRANCH  19  24
ENDBRANCH   1  19
TORSDOF 6
ENDMDL
MODEL 4
REMARK VINA RESULT:      -7.3      6.084      9.387
REMARK  Name = 
REMARK  9 active torsions:
REMARK  status: ('A' for Active; 'I' for Inactive)
REMARK    1  A    between atoms: C_1  and  C_2
REMARK    2  A    between atoms: C_2  and  N_3
REMARK    3  A    between atoms: N_3  and  C_4
REMARK    4  A    between atoms: N_3  and  C_6
REMARK    5  A    between atoms: N_3  and  C_8
REMARK    6  A    between atoms: C_4  and  C_5
REMARK    7  A    between atoms: C_6  and  C_7
REMARK    8  A    between atoms: C_11  and  C_12
REMARK    9  A    between atoms: C_13  and  C_14
REMARK                            x       y       z     vdW  Elec       q    Type
REMARK                         _______ _______ _______ _____ _____    ______ ____
ROOT
ATOM      1  C   UNL     1       5.680   5.538  17.965  0.00  0.00    +0.000 A 
ATOM      2  C   UNL     1       6.826   5.363  18.765  0.00  0.00    +0.000 A 
ATOM      3  C   UNL     1       7.852   6.382  18.928  0.00  0.00    +0.000 A 
ATOM      4  C   UNL     1       7.795   7.637  18.319  0.00  0.00    +0.000 A 
ATOM      5  C   UNL     1       6.644   7.798  17.502  0.00  0.00    +0.000 A 
ATOM      6  C   UNL     1       5.625   6.780  17.322  0.00  0.00    +0.000 A 
ENDROOT
BRANCH   4   7
ATOM      7  C   UNL     1       8.777   8.812  18.530  0.00  0.00    +0.000 C 
ATOM      8  C   UNL     1       8.851  10.152  18.198  0.00  0.00    +0.000 C 
BRANCH   8   9
ATOM      9  C   UNL     1       9.965  11.159  18.674  0.00  0.00    +0.000 A 
ATOM     10  C   UNL     1      10.306  11.033  20.014  0.00  0.00    +0.000 A 
ATOM     11  C   UNL     1      10.082  12.117  20.837  0.00  0.00    +0.000 A 
ATOM     12  N   UNL     1       9.857  13.358  20.382  0.00  0.00    +0.000 NA
ATOM     13  C   UNL     1      10.151  13.557  19.101  0.00  0.00    +0.000 A 
ATOM     14  C   UNL     1      10.500  14.851  18.778  0.00  0.00    +0.000 A 
ATOM     15  C   UNL     1      11.173  15.148  17.610  0.00  0.00    +0.000 A 
ATOM     16  C   UNL     1      11.419  14.115  16.700  0.00  0.00    +0.000 A 
ATOM     17  C   UNL     1      10.926  12.811  16.948  0.00  0.00    +0.000 A 
ATOM     18  C   UNL     1      10.256  12.476  18.161  0.00  0.00    +0.000 A 
ENDBRANCH   8   9
ENDBRANCH   4   7
BRANCH   1  19
ATOM     19  N   UNL     1       4.502   4.449  17.823  0.00  0.00    +0.000 NA
BRANCH  19  21
ATOM     20  C   UNL     1       5.882   3.881  15.703  0.00  0.00    +0.000 C 
ATOM     21  C   UNL     1       4.724   3.502  16.627  0.00  0.00    +0.000 C 
ENDBRANCH  19  21
BRANCH  19  22
ATOM     22  C   UNL     1       3.120   5.182  17.693  0.00  0.00    +0.000 C 
ATOM     23  C   UNL     1       2.303   5.245  19.002  0.00  0.00    +0.000 C 
ENDBRANCH  19  22
BRANCH  19  24
ATOM     24  C   UNL     1       4.438   3.590  19.127  0.00  0.00    +0.000 C 
ATOM     25  C   UNL     1       4.070   2.130  18.922  0.00  0.00    +0.000 C 
ENDBRANCH  19  24
ENDBRANCH   1  19
TORSDOF 6
ENDMDL
MODEL 5
REMARK VINA RESULT:      -7.2      1.725      3.051
REMARK  Name = 
REMARK  9 active torsions:
REMARK  status: ('A' for Active; 'I' for Inactive)
REMARK    1  A    between atoms: C_1  and  C_2
REMARK    2  A    between atoms: C_2  and  N_3
REMARK    3  A    between atoms: N_3  and  C_4
REMARK    4  A    between atoms: N_3  and  C_6
REMARK    5  A    between atoms: N_3  and  C_8
REMARK    6  A    between atoms: C_4  and  C_5
REMARK    7  A    between atoms: C_6  and  C_7
REMARK    8  A    between atoms: C_11  and  C_12
REMARK    9  A    between atoms: C_13  and  C_14
REMARK                            x       y       z     vdW  Elec       q    Type
REMARK                         _______ _______ _______ _____ _____    ______ ____
ROOT
ATOM      1  C   UNL     1       1.265   9.320  19.414  0.00  0.00    +0.000 A 
ATOM      2  C   UNL     1       1.620   8.123  20.066  0.00  0.00    +0.000 A 
ATOM      3  C   UNL     1       2.470   7.105  19.467  0.00  0.00    +0.000 A 
ATOM      4  C   UNL     1       3.026   7.219  18.192  0.00  0.00    +0.000 A 
ATOM      5  C   UNL     1       2.650   8.422  17.536  0.00  0.00    +0.000 A 
ATOM      6  C   UNL     1       1.791   9.435  18.121  0.00  0.00    +0.000 A 
ENDROOT
BRANCH   4   7
ATOM      7  C   UNL     1       4.026   6.245  17.530  0.00  0.00    +0.000 C 
ATOM      8  C   UNL     1       3.977   5.061  16.816  0.00  0.00    +0.000 C 
BRANCH   8   9
ATOM      9  C   UNL     1       5.206   4.339  16.145  0.00  0.00    +0.000 A 
ATOM     10  C   UNL     1       6.292   4.164  16.992  0.00  0.00    +0.000 A 
ATOM     11  C   UNL     1       7.476   4.786  16.655  0.00  0.00    +0.000 A 
ATOM     12  N   UNL     1       7.733   5.276  15.433  0.00  0.00    +0.000 NA
ATOM     13  C   UNL     1       6.906   4.874  14.473  0.00  0.00    +0.000 A 
ATOM     14  C   UNL     1       7.451   4.850  13.207  0.00  0.00    +0.000 A 
ATOM     15  C   UNL     1       6.871   4.130  12.183  0.00  0.00    +0.000 A 
ATOM     16  C   UNL     1       5.650   3.489  12.426  0.00  0.00    +0.000 A 
ATOM     17  C   UNL     1       5.002   3.638  13.675  0.00  0.00    +0.000 A 
ATOM     18  C   UNL     1       5.598   4.351  14.755  0.00  0.00    +0.000 A 
ENDBRANCH   8   9
ENDBRANCH   4   7
BRANCH   1  19
ATOM     19  N   UNL     1       0.382  10.488  20.082  0.00  0.00    +0.000 NA
BRANCH  19  21
ATOM     20  C   UNL     1       0.951  12.981  20.515  0.00  0.00    +0.000 C 
ATOM     21  C   UNL     1       0.702  11.874  19.488  0.00  0.00    +0.000 C 
ENDBRANCH  19  21
BRANCH  19  22
ATOM     22  C   UNL     1       0.603  10.492  21.636  0.00  0.00    +0.000 C 
ATOM     23  C   UNL     1      -0.664  10.184  22.464  0.00  0.00    +0.000 C 
ENDBRANCH  19  22
BRANCH  19  24
ATOM     24  C   UNL     1      -1.132  10.187  19.841  0.00  0.00    +0.000 C 
ATOM     25  C   UNL     1      -1.617  10.406  18.417  0.00  0.00    +0.000 C 
ENDBRANCH  19  24
ENDBRANCH   1  19
TORSDOF 6
ENDMDL
MODEL 6
REMARK VINA RESULT:      -7.2      0.651      1.206
REMARK  Name = 
REMARK  9 active torsions:
REMARK  status: ('A' for Active; 'I' for Inactive)
REMARK    1  A    between atoms: C_1  and  C_2
REMARK    2  A    between atoms: C_2  and  N_3
REMARK    3  A    between atoms: N_3  and  C_4
REMARK    4  A    between atoms: N_3  and  C_6
REMARK    5  A    between atoms: N_3  and  C_8
REMARK    6  A    between atoms: C_4  and  C_5
REMARK    7  A    between atoms: C_6  and  C_7
REMARK    8  A    between atoms: C_11  and  C_12
REMARK    9  A    between atoms: C_13  and  C_14
REMARK                            x       y       z     vdW  Elec       q    Type
REMARK                         _______ _______ _______ _____ _____    ______ ____
ROOT
ATOM      1  C   UNL     1       0.206  10.959  19.426  0.00  0.00    +0.000 A 
ATOM      2  C   UNL     1       0.912  10.816  18.216  0.00  0.00    +0.000 A 
ATOM      3  C   UNL     1       1.749   9.666  17.908  0.00  0.00    +0.000 A 
ATOM      4  C   UNL     1       1.925   8.587  18.776  0.00  0.00    +0.000 A 
ATOM      5  C   UNL     1       1.222   8.748  20.000  0.00  0.00    +0.000 A 
ATOM      6  C   UNL     1       0.398   9.900  20.320  0.00  0.00    +0.000 A 
ENDROOT
BRANCH   4   7
ATOM      7  C   UNL     1       2.698   7.282  18.483  0.00  0.00    +0.000 C 
ATOM      8  C   UNL     1       2.402   5.957  18.220  0.00  0.00    +0.000 C 
BRANCH   8   9
ATOM      9  C   UNL     1       3.442   4.840  17.830  0.00  0.00    +0.000 A 
ATOM     10  C   UNL     1       3.379   3.705  18.627  0.00  0.00    +0.000 A 
ATOM     11  C   UNL     1       4.495   3.380  19.371  0.00  0.00    +0.000 A 
ATOM     12  N   UNL     1       5.712   3.894  19.142  0.00  0.00    +0.000 NA
ATOM     13  C   UNL     1       5.859   4.512  17.974  0.00  0.00    +0.000 A 
ATOM     14  C   UNL     1       7.142   4.507  17.470  0.00  0.00    +0.000 A 
ATOM     15  C   UNL     1       7.397   4.767  16.139  0.00  0.00    +0.000 A 
ATOM     16  C   UNL     1       6.328   5.134  15.313  0.00  0.00    +0.000 A 
ATOM     17  C   UNL     1       5.031   5.297  15.855  0.00  0.00    +0.000 A 
ATOM     18  C   UNL     1       4.740   5.003  17.219  0.00  0.00    +0.000 A 
ENDBRANCH   8   9
ENDBRANCH   4   7
BRANCH   1  19
ATOM     19  N   UNL     1      -0.777  12.191  19.760  0.00  0.00    +0.000 NA
BRANCH  19  21
ATOM     20  C   UNL     1      -2.705  11.473  18.182  0.00  0.00    +0.000 C 
ATOM     21  C   UNL     1      -2.263  11.809  19.608  0.00  0.00    +0.000 C 
ENDBRANCH  19  21
BRANCH  19  22
ATOM     22  C   UNL     1      -0.426  13.411  18.837  0.00  0.00    +0.000 C 
ATOM     23  C   UNL     1       0.646  14.362  19.414  0.00  0.00    +0.000 C 
ENDBRANCH  19  22
BRANCH  19  24
ATOM     24  C   UNL     1      -0.536  12.653  21.233  0.00  0.00    +0.000 C 
ATOM     25  C   UNL     1      -1.668  12.348  22.201  0.00  0.00    +0.000 C 
ENDBRANCH  19  24
ENDBRANCH   1  19
TORSDOF 6
ENDMDL
MODEL 7
REMARK VINA RESULT:      -7.2      6.200      9.635
REMARK  Name = 
REMARK  9 active torsions:
REMARK  status: ('A' for Active; 'I' for Inactive)
REMARK    1  A    between atoms: C_1  and  C_2
REMARK    2  A    between atoms: C_2  and  N_3
REMARK    3  A    between atoms: N_3  and  C_4
REMARK    4  A    between atoms: N_3  and  C_6
REMARK    5  A    between atoms: N_3  and  C_8
REMARK    6  A    between atoms: C_4  and  C_5
REMARK    7  A    between atoms: C_6  and  C_7
REMARK    8  A    between atoms: C_11  and  C_12
REMARK    9  A    between atoms: C_13  and  C_14
REMARK                            x       y       z     vdW  Elec       q    Type
REMARK                         _______ _______ _______ _____ _____    ______ ____
ROOT
ATOM      1  C   UNL     1       6.084   5.719  17.857  0.00  0.00    +0.000 A 
ATOM      2  C   UNL     1       7.156   5.618  18.765  0.00  0.00    +0.000 A 
ATOM      3  C   UNL     1       8.119   6.685  18.989  0.00  0.00    +0.000 A 
ATOM      4  C   UNL     1       8.069   7.918  18.336  0.00  0.00    +0.000 A 
ATOM      5  C   UNL     1       6.994   8.005  17.411  0.00  0.00    +0.000 A 
ATOM      6  C   UNL     1       6.039   6.938  17.171  0.00  0.00    +0.000 A 
ENDROOT
BRANCH   4   7
ATOM      7  C   UNL     1       8.977   9.141  18.598  0.00  0.00    +0.000 C 
ATOM      8  C   UNL     1       9.039  10.467  18.214  0.00  0.00    +0.000 C 
BRANCH   8   9
ATOM      9  C   UNL     1      10.056  11.539  18.762  0.00  0.00    +0.000 A 
ATOM     10  C   UNL     1      10.392  11.368  20.098  0.00  0.00    +0.000 A 
ATOM     11  C   UNL     1      10.065  12.381  20.976  0.00  0.00    +0.000 A 
ATOM     12  N   UNL     1       9.736  13.621  20.587  0.00  0.00    +0.000 NA
ATOM     13  C   UNL     1      10.026  13.916  19.324  0.00  0.00    +0.000 A 
ATOM     14  C   UNL     1      10.263  15.252  19.078  0.00  0.00    +0.000 A 
ATOM     15  C   UNL     1      10.920  15.672  17.939  0.00  0.00    +0.000 A 
ATOM     16  C   UNL     1      11.266  14.717  16.977  0.00  0.00    +0.000 A 
ATOM     17  C   UNL     1      10.886  13.364  17.145  0.00  0.00    +0.000 A 
ATOM     18  C   UNL     1      10.235  12.904  18.327  0.00  0.00    +0.000 A 
ENDBRANCH   8   9
ENDBRANCH   4   7
BRANCH   1  19
ATOM     19  N   UNL     1       4.970   4.576  17.641  0.00  0.00    +0.000 NA
BRANCH  19  21
ATOM     20  C   UNL     1       2.950   6.004  18.418  0.00  0.00    +0.000 C 
ATOM     21  C   UNL     1       3.586   5.167  17.307  0.00  0.00    +0.000 C 
ENDBRANCH  19  21
BRANCH  19  22
ATOM     22  C   UNL     1       4.887   3.673  18.922  0.00  0.00    +0.000 C 
ATOM     23  C   UNL     1       3.863   2.521  18.827  0.00  0.00    +0.000 C 
ENDBRANCH  19  22
BRANCH  19  24
ATOM     24  C   UNL     1       5.408   3.650  16.462  0.00  0.00    +0.000 C 
ATOM     25  C   UNL     1       5.405   4.304  15.090  0.00  0.00    +0.000 C 
ENDBRANCH  19  24
ENDBRANCH   1  19
TORSDOF 6
ENDMDL
MODEL 8
REMARK VINA RESULT:      -7.2      0.437      1.777
REMARK  Name = 
REMARK  9 active torsions:
REMARK  status: ('A' for Active; 'I' for Inactive)
REMARK    1  A    between atoms: C_1  and  C_2
REMARK    2  A    between atoms: C_2  and  N_3
REMARK    3  A    between atoms: N_3  and  C_4
REMARK    4  A    between atoms: N_3  and  C_6
REMARK    5  A    between atoms: N_3  and  C_8
REMARK    6  A    between atoms: C_4  and  C_5
REMARK    7  A    between atoms: C_6  and  C_7
REMARK    8  A    between atoms: C_11  and  C_12
REMARK    9  A    between atoms: C_13  and  C_14
REMARK                            x       y       z     vdW  Elec       q    Type
REMARK                         _______ _______ _______ _____ _____    ______ ____
ROOT
ATOM      1  C   UNL     1       0.511  10.932  19.481  0.00  0.00    +0.000 A 
ATOM      2  C   UNL     1       0.489   9.829  20.357  0.00  0.00    +0.000 A 
ATOM      3  C   UNL     1       1.151   8.565  20.071  0.00  0.00    +0.000 A 
ATOM      4  C   UNL     1       1.883   8.325  18.907  0.00  0.00    +0.000 A 
ATOM      5  C   UNL     1       1.887   9.438  18.023  0.00  0.00    +0.000 A 
ATOM      6  C   UNL     1       1.216  10.696  18.295  0.00  0.00    +0.000 A 
ENDROOT
BRANCH   4   7
ATOM      7  C   UNL     1       2.709   7.061  18.579  0.00  0.00    +0.000 C 
ATOM      8  C   UNL     1       2.466   5.757  18.188  0.00  0.00    +0.000 C 
BRANCH   8   9
ATOM      9  C   UNL     1       3.562   4.692  17.801  0.00  0.00    +0.000 A 
ATOM     10  C   UNL     1       3.618   3.601  18.658  0.00  0.00    +0.000 A 
ATOM     11  C   UNL     1       4.789   3.394  19.357  0.00  0.00    +0.000 A 
ATOM     12  N   UNL     1       5.955   3.975  19.037  0.00  0.00    +0.000 NA
ATOM     13  C   UNL     1       6.000   4.536  17.833  0.00  0.00    +0.000 A 
ATOM     14  C   UNL     1       7.253   4.588  17.261  0.00  0.00    +0.000 A 
ATOM     15  C   UNL     1       7.423   4.791  15.907  0.00  0.00    +0.000 A 
ATOM     16  C   UNL     1       6.291   5.040  15.122  0.00  0.00    +0.000 A 
ATOM     17  C   UNL     1       5.014   5.145  15.723  0.00  0.00    +0.000 A 
ATOM     18  C   UNL     1       4.813   4.908  17.114  0.00  0.00    +0.000 A 
ENDBRANCH   8   9
ENDBRANCH   4   7
BRANCH   1  19
ATOM     19  N   UNL     1      -0.158  12.360  19.807  0.00  0.00    +0.000 NA
BRANCH  19  21
ATOM     20  C   UNL     1       0.918  14.611  19.104  0.00  0.00    +0.000 C 
ATOM     21  C   UNL     1       0.897  13.446  20.095  0.00  0.00    +0.000 C 
ENDBRANCH  19  21
BRANCH  19  22
ATOM     22  C   UNL     1      -1.143  12.216  21.021  0.00  0.00    +0.000 C 
ATOM     23  C   UNL     1      -0.600  12.774  22.354  0.00  0.00    +0.000 C 
ENDBRANCH  19  22
BRANCH  19  24
ATOM     24  C   UNL     1      -1.013  12.816  18.581  0.00  0.00    +0.000 C 
ATOM     25  C   UNL     1      -2.123  11.860  18.176  0.00  0.00    +0.000 C 
ENDBRANCH  19  24
ENDBRANCH   1  19
TORSDOF 6
ENDMDL
MODEL 9
REMARK VINA RESULT:      -7.2      6.094      9.386
REMARK  Name = 
REMARK  9 active torsions:
REMARK  status: ('A' for Active; 'I' for Inactive)
REMARK    1  A    between atoms: C_1  and  C_2
REMARK    2  A    between atoms: C_2  and  N_3
REMARK    3  A    between atoms: N_3  and  C_4
REMARK    4  A    between atoms: N_3  and  C_6
REMARK    5  A    between atoms: N_3  and  C_8
REMARK    6  A    between atoms: C_4  and  C_5
REMARK    7  A    between atoms: C_6  and  C_7
REMARK    8  A    between atoms: C_11  and  C_12
REMARK    9  A    between atoms: C_13  and  C_14
REMARK                            x       y       z     vdW  Elec       q    Type
REMARK                         _______ _______ _______ _____ _____    ______ ____
ROOT
ATOM      1  C   UNL     1       5.753   5.469  18.090  0.00  0.00    +0.000 A 
ATOM      2  C   UNL     1       6.908   5.315  18.881  0.00  0.00    +0.000 A 
ATOM      3  C   UNL     1       7.925   6.345  19.024  0.00  0.00    +0.000 A 
ATOM      4  C   UNL     1       7.850   7.593  18.402  0.00  0.00    +0.000 A 
ATOM      5  C   UNL     1       6.690   7.734  17.595  0.00  0.00    +0.000 A 
ATOM      6  C   UNL     1       5.679   6.704  17.434  0.00  0.00    +0.000 A 
ENDROOT
BRANCH   4   7
ATOM      7  C   UNL     1       8.822   8.779  18.591  0.00  0.00    +0.000 C 
ATOM      8  C   UNL     1       8.827  10.142  18.356  0.00  0.00    +0.000 C 
BRANCH   8   9
ATOM      9  C   UNL     1       9.965  11.146  18.781  0.00  0.00    +0.000 A 
ATOM     10  C   UNL     1      10.324  11.060  20.119  0.00  0.00    +0.000 A 
ATOM     11  C   UNL     1      10.130  12.175  20.908  0.00  0.00    +0.000 A 
ATOM     12  N   UNL     1       9.917  13.403  20.415  0.00  0.00    +0.000 NA
ATOM     13  C   UNL     1      10.195  13.554  19.124  0.00  0.00    +0.000 A 
ATOM     14  C   UNL     1      10.559  14.830  18.751  0.00  0.00    +0.000 A 
ATOM     15  C   UNL     1      11.219  15.077  17.565  0.00  0.00    +0.000 A 
ATOM     16  C   UNL     1      11.434  14.010  16.686  0.00  0.00    +0.000 A 
ATOM     17  C   UNL     1      10.925  12.724  16.986  0.00  0.00    +0.000 A 
ATOM     18  C   UNL     1      10.268  12.441  18.219  0.00  0.00    +0.000 A 
ENDBRANCH   8   9
ENDBRANCH   4   7
BRANCH   1  19
ATOM     19  N   UNL     1       4.584   4.368  17.970  0.00  0.00    +0.000 NA
BRANCH  19  21
ATOM     20  C   UNL     1       4.014   2.891  20.023  0.00  0.00    +0.000 C 
ATOM     21  C   UNL     1       4.893   3.098  18.788  0.00  0.00    +0.000 C 
ENDBRANCH  19  21
BRANCH  19  22
ATOM     22  C   UNL     1       4.355   4.005  16.460  0.00  0.00    +0.000 C 
ATOM     23  C   UNL     1       5.649   3.727  15.665  0.00  0.00    +0.000 C 
ENDBRANCH  19  22
BRANCH  19  24
ATOM     24  C   UNL     1       3.247   4.981  18.497  0.00  0.00    +0.000 C 
ATOM     25  C   UNL     1       2.025   4.702  17.637  0.00  0.00    +0.000 C 
ENDBRANCH  19  24
ENDBRANCH   1  19
TORSDOF 6
ENDMDL
