MODEL 1
REMARK VINA RESULT:      -8.7      0.000      0.000
REMARK  Name = 
REMARK  12 active torsions:
REMARK  status: ('A' for Active; 'I' for Inactive)
REMARK    1  A    between atoms: C_1  and  N_2
REMARK    2  A    between atoms: C_3  and  C_5
REMARK    3  A    between atoms: C_8  and  N_9
REMARK    4  A    between atoms: C_13  and  N_14
REMARK    5  A    between atoms: N_14  and  C_15
REMARK    6  A    between atoms: C_15  and  C_16
REMARK    7  A    between atoms: C_16  and  C_17
REMARK    8  A    between atoms: C_22  and  O_23
REMARK    9  A    between atoms: O_23  and  C_24
REMARK   10  A    between atoms: C_29  and  O_30
REMARK   11  A    between atoms: O_30  and  C_31
REMARK   12  A    between atoms: C_35  and  C_36
REMARK                            x       y       z     vdW  Elec       q    Type
REMARK                         _______ _______ _______ _____ _____    ______ ____
ROOT
ATOM      1  N   UNL     1       3.894   6.928  17.382  0.00  0.00    +0.000 N 
ATOM      2  C   UNL     1       4.653   7.606  16.456  0.00  0.00    +0.000 A 
ATOM      3  N   UNL     1       5.431   6.813  15.758  0.00  0.00    +0.000 NA
ATOM      4  C   UNL     1       5.129   5.543  16.189  0.00  0.00    +0.000 A 
ATOM      5  C   UNL     1       5.628   4.298  15.712  0.00  0.00    +0.000 A 
ATOM      6  C   UNL     1       5.034   3.135  16.231  0.00  0.00    +0.000 A 
ATOM      7  C   UNL     1       4.137   3.181  17.301  0.00  0.00    +0.000 A 
ATOM      8  C   UNL     1       3.654   4.402  17.776  0.00  0.00    +0.000 A 
ATOM      9  C   UNL     1       4.168   5.577  17.205  0.00  0.00    +0.000 A 
ENDROOT
BRANCH   1  13
ATOM     10  C   UNL     1       1.144   8.730  20.047  0.00  0.00    +0.000 A 
ATOM     11  C   UNL     1       1.868   7.587  20.428  0.00  0.00    +0.000 A 
ATOM     12  C   UNL     1       2.783   6.985  19.561  0.00  0.00    +0.000 A 
ATOM     13  C   UNL     1       2.992   7.530  18.297  0.00  0.00    +0.000 A 
ATOM     14  C   UNL     1       2.287   8.683  17.911  0.00  0.00    +0.000 A 
ATOM     15  C   UNL     1       1.337   9.283  18.766  0.00  0.00    +0.000 A 
ATOM     16  C   UNL     1       0.490  10.384  18.186  0.00  0.00    +0.000 C 
BRANCH  10  19
ATOM     17  C   UNL     1      -0.593  11.101  22.456  0.00  0.00    +0.000 C 
ATOM     18  N   UNL     1       0.273  10.538  21.448  0.00  0.00    +0.000 N 
ATOM     19  C   UNL     1       0.163   9.222  21.059  0.00  0.00    +0.000 C 
ATOM     20  O   UNL     1      -0.639   8.437  21.557  0.00  0.00    +0.000 OA
ATOM     21  H   UNL     1       1.033  11.105  21.101  0.00  0.00    +0.000 HD
ENDBRANCH  10  19
ENDBRANCH   1  13
BRANCH   5  22
ATOM     22  N   UNL     1       6.693   4.109  14.798  0.00  0.00    +0.000 N 
ATOM     23  H   UNL     1       7.013   3.142  14.826  0.00  0.00    +0.000 HD
BRANCH  22  24
ATOM     24  C   UNL     1       6.514   4.648  13.451  0.00  0.00    +0.000 C 
BRANCH  24  25
ATOM     25  C   UNL     1       6.576   3.503  12.454  0.00  0.00    +0.000 C 
BRANCH  25  26
ATOM     26  C   UNL     1       5.205   3.174  11.911  0.00  0.00    +0.000 C 
ATOM     27  F   UNL     1       5.094   1.902  11.477  0.00  0.00    +0.000 F 
ATOM     28  F   UNL     1       4.257   3.364  12.858  0.00  0.00    +0.000 F 
ATOM     29  F   UNL     1       4.899   3.985  10.872  0.00  0.00    +0.000 F 
ENDBRANCH  25  26
ENDBRANCH  24  25
ENDBRANCH  22  24
ENDBRANCH   5  22
BRANCH   7  30
ATOM     30  O   UNL     1       3.670   2.062  17.959  0.00  0.00    +0.000 OA
BRANCH  30  31
ATOM     31  C   UNL     1       2.919   2.206  19.107  0.00  0.00    +0.000 A 
ATOM     32  C   UNL     1       1.511   2.275  19.058  0.00  0.00    +0.000 A 
ATOM     33  C   UNL     1       0.765   2.553  20.199  0.00  0.00    +0.000 A 
ATOM     34  C   UNL     1       1.405   2.683  21.422  0.00  0.00    +0.000 A 
ATOM     35  C   UNL     1       2.788   2.507  21.498  0.00  0.00    +0.000 A 
ATOM     36  C   UNL     1       3.561   2.264  20.354  0.00  0.00    +0.000 A 
BRANCH  36  37
ATOM     37  O   UNL     1       4.892   2.129  20.643  0.00  0.00    +0.000 OA
ATOM     38  C   UNL     1       5.382   0.871  21.080  0.00  0.00    +0.000 C 
ENDBRANCH  36  37
ENDBRANCH  30  31
ENDBRANCH   7  30
TORSDOF 9
ENDMDL
MODEL 2
REMARK VINA RESULT:      -8.7      1.007      1.497
REMARK  Name = 
REMARK  12 active torsions:
REMARK  status: ('A' for Active; 'I' for Inactive)
REMARK    1  A    between atoms: C_1  and  N_2
REMARK    2  A    between atoms: C_3  and  C_5
REMARK    3  A    between atoms: C_8  and  N_9
REMARK    4  A    between atoms: C_13  and  N_14
REMARK    5  A    between atoms: N_14  and  C_15
REMARK    6  A    between atoms: C_15  and  C_16
REMARK    7  A    between atoms: C_16  and  C_17
REMARK    8  A    between atoms: C_22  and  O_23
REMARK    9  A    between atoms: O_23  and  C_24
REMARK   10  A    between atoms: C_29  and  O_30
REMARK   11  A    between atoms: O_30  and  C_31
REMARK   12  A    between atoms: C_35  and  C_36
REMARK                            x       y       z     vdW  Elec       q    Type
REMARK                         _______ _______ _______ _____ _____    ______ ____
ROOT
ATOM      1  N   UNL     1       3.902   7.376  17.479  0.00  0.00    +0.000 N 
ATOM      2  C   UNL     1       4.961   7.960  16.824  0.00  0.00    +0.000 A 
ATOM      3  N   UNL     1       5.809   7.082  16.343  0.00  0.00    +0.000 NA
ATOM      4  C   UNL     1       5.256   5.856  16.629  0.00  0.00    +0.000 A 
ATOM      5  C   UNL     1       5.724   4.562  16.266  0.00  0.00    +0.000 A 
ATOM      6  C   UNL     1       4.880   3.477  16.559  0.00  0.00    +0.000 A 
ATOM      7  C   UNL     1       3.731   3.626  17.340  0.00  0.00    +0.000 A 
ATOM      8  C   UNL     1       3.276   4.896  17.703  0.00  0.00    +0.000 A 
ATOM      9  C   UNL     1       4.059   6.002  17.338  0.00  0.00    +0.000 A 
ENDROOT
BRANCH   1  13
ATOM     10  C   UNL     1       0.822   9.471  19.490  0.00  0.00    +0.000 A 
ATOM     11  C   UNL     1       1.315   9.930  18.256  0.00  0.00    +0.000 A 
ATOM     12  C   UNL     1       2.327   9.246  17.579  0.00  0.00    +0.000 A 
ATOM     13  C   UNL     1       2.854   8.080  18.128  0.00  0.00    +0.000 A 
ATOM     14  C   UNL     1       2.358   7.601  19.352  0.00  0.00    +0.000 A 
ATOM     15  C   UNL     1       1.357   8.299  20.062  0.00  0.00    +0.000 A 
ATOM     16  C   UNL     1       1.041   7.819  21.453  0.00  0.00    +0.000 C 
BRANCH  10  19
ATOM     17  C   UNL     1      -0.882  11.671  22.077  0.00  0.00    +0.000 C 
ATOM     18  N   UNL     1       0.072  10.860  21.360  0.00  0.00    +0.000 N 
ATOM     19  C   UNL     1      -0.216  10.340  20.118  0.00  0.00    +0.000 C 
ATOM     20  O   UNL     1      -1.296  10.495  19.557  0.00  0.00    +0.000 OA
ATOM     21  H   UNL     1       0.924  10.595  21.833  0.00  0.00    +0.000 HD
ENDBRANCH  10  19
ENDBRANCH   1  13
BRANCH   5  22
ATOM     22  N   UNL     1       6.974   4.249  15.679  0.00  0.00    +0.000 N 
ATOM     23  H   UNL     1       7.291   3.332  15.993  0.00  0.00    +0.000 HD
BRANCH  22  24
ATOM     24  C   UNL     1       7.104   4.473  14.240  0.00  0.00    +0.000 C 
BRANCH  24  25
ATOM     25  C   UNL     1       6.201   3.493  13.510  0.00  0.00    +0.000 C 
BRANCH  25  26
ATOM     26  C   UNL     1       6.455   3.520  12.020  0.00  0.00    +0.000 C 
ATOM     27  F   UNL     1       7.038   2.395  11.557  0.00  0.00    +0.000 F 
ATOM     28  F   UNL     1       5.296   3.685  11.340  0.00  0.00    +0.000 F 
ATOM     29  F   UNL     1       7.259   4.557  11.694  0.00  0.00    +0.000 F 
ENDBRANCH  25  26
ENDBRANCH  24  25
ENDBRANCH  22  24
ENDBRANCH   5  22
BRANCH   7  30
ATOM     30  O   UNL     1       2.975   2.570  17.803  0.00  0.00    +0.000 OA
BRANCH  30  31
ATOM     31  C   UNL     1       2.491   2.588  19.095  0.00  0.00    +0.000 A 
ATOM     32  C   UNL     1       1.116   2.754  19.360  0.00  0.00    +0.000 A 
ATOM     33  C   UNL     1       0.649   2.905  20.663  0.00  0.00    +0.000 A 
ATOM     34  C   UNL     1       1.535   2.808  21.724  0.00  0.00    +0.000 A 
ATOM     35  C   UNL     1       2.881   2.534  21.476  0.00  0.00    +0.000 A 
ATOM     36  C   UNL     1       3.378   2.416  20.169  0.00  0.00    +0.000 A 
BRANCH  36  37
ATOM     37  O   UNL     1       4.720   2.155  20.144  0.00  0.00    +0.000 OA
ATOM     38  C   UNL     1       5.256   1.194  21.040  0.00  0.00    +0.000 C 
ENDBRANCH  36  37
ENDBRANCH  30  31
ENDBRANCH   7  30
TORSDOF 9
ENDMDL
MODEL 3
REMARK VINA RESULT:      -8.5      3.471      6.157
REMARK  Name = 
REMARK  12 active torsions:
REMARK  status: ('A' for Active; 'I' for Inactive)
REMARK    1  A    between atoms: C_1  and  N_2
REMARK    2  A    between atoms: C_3  and  C_5
REMARK    3  A    between atoms: C_8  and  N_9
REMARK    4  A    between atoms: C_13  and  N_14
REMARK    5  A    between atoms: N_14  and  C_15
REMARK    6  A    between atoms: C_15  and  C_16
REMARK    7  A    between atoms: C_16  and  C_17
REMARK    8  A    between atoms: C_22  and  O_23
REMARK    9  A    between atoms: O_23  and  C_24
REMARK   10  A    between atoms: C_29  and  O_30
REMARK   11  A    between atoms: O_30  and  C_31
REMARK   12  A    between atoms: C_35  and  C_36
REMARK                            x       y       z     vdW  Elec       q    Type
REMARK                         _______ _______ _______ _____ _____    ______ ____
ROOT
ATOM      1  N   UNL     1       1.125   9.313  20.287  0.00  0.00    +0.000 N 
ATOM      2  C   UNL     1       0.603   8.723  21.416  0.00  0.00    +0.000 A 
ATOM      3  N   UNL     1       0.828   7.431  21.464  0.00  0.00    +0.000 NA
ATOM      4  C   UNL     1       1.591   7.158  20.354  0.00  0.00    +0.000 A 
ATOM      5  C   UNL     1       2.177   5.922  19.959  0.00  0.00    +0.000 A 
ATOM      6  C   UNL     1       3.042   5.955  18.852  0.00  0.00    +0.000 A 
ATOM      7  C   UNL     1       3.175   7.095  18.055  0.00  0.00    +0.000 A 
ATOM      8  C   UNL     1       2.593   8.305  18.438  0.00  0.00    +0.000 A 
ATOM      9  C   UNL     1       1.799   8.314  19.595  0.00  0.00    +0.000 A 
ENDROOT
BRANCH   1  13
ATOM     10  C   UNL     1       0.805  13.432  19.368  0.00  0.00    +0.000 A 
ATOM     11  C   UNL     1       1.242  12.512  18.398  0.00  0.00    +0.000 A 
ATOM     12  C   UNL     1       1.347  11.150  18.687  0.00  0.00    +0.000 A 
ATOM     13  C   UNL     1       1.004  10.687  19.954  0.00  0.00    +0.000 A 
ATOM     14  C   UNL     1       0.549  11.594  20.926  0.00  0.00    +0.000 A 
ATOM     15  C   UNL     1       0.468  12.978  20.658  0.00  0.00    +0.000 A 
ATOM     16  C   UNL     1       0.168  13.886  21.820  0.00  0.00    +0.000 C 
BRANCH  10  19
ATOM     17  C   UNL     1      -0.540  16.799  18.231  0.00  0.00    +0.000 C 
ATOM     18  N   UNL     1      -0.425  15.441  18.706  0.00  0.00    +0.000 N 
ATOM     19  C   UNL     1       0.802  14.858  18.928  0.00  0.00    +0.000 C 
ATOM     20  O   UNL     1       1.867  15.427  18.709  0.00  0.00    +0.000 OA
ATOM     21  H   UNL     1      -1.267  14.888  18.778  0.00  0.00    +0.000 HD
ENDBRANCH  10  19
ENDBRANCH   1  13
BRANCH   5  22
ATOM     22  N   UNL     1       1.943   4.652  20.540  0.00  0.00    +0.000 N 
ATOM     23  H   UNL     1       1.433   4.754  21.417  0.00  0.00    +0.000 HD
BRANCH  22  24
ATOM     24  C   UNL     1       1.425   3.606  19.659  0.00  0.00    +0.000 C 
BRANCH  24  25
ATOM     25  C   UNL     1       2.326   2.387  19.766  0.00  0.00    +0.000 C 
BRANCH  25  26
ATOM     26  C   UNL     1       3.246   2.280  18.571  0.00  0.00    +0.000 C 
ATOM     27  F   UNL     1       3.601   1.011  18.283  0.00  0.00    +0.000 F 
ATOM     28  F   UNL     1       2.660   2.798  17.467  0.00  0.00    +0.000 F 
ATOM     29  F   UNL     1       4.383   2.980  18.785  0.00  0.00    +0.000 F 
ENDBRANCH  25  26
ENDBRANCH  24  25
ENDBRANCH  22  24
ENDBRANCH   5  22
BRANCH   7  30
ATOM     30  O   UNL     1       3.867   7.121  16.862  0.00  0.00    +0.000 OA
BRANCH  30  31
ATOM     31  C   UNL     1       4.955   6.291  16.683  0.00  0.00    +0.000 A 
ATOM     32  C   UNL     1       4.822   5.034  16.057  0.00  0.00    +0.000 A 
ATOM     33  C   UNL     1       5.891   4.145  15.995  0.00  0.00    +0.000 A 
ATOM     34  C   UNL     1       7.130   4.529  16.483  0.00  0.00    +0.000 A 
ATOM     35  C   UNL     1       7.298   5.813  17.005  0.00  0.00    +0.000 A 
ATOM     36  C   UNL     1       6.225   6.710  17.109  0.00  0.00    +0.000 A 
BRANCH  36  37
ATOM     37  O   UNL     1       6.598   7.908  17.652  0.00  0.00    +0.000 OA
ATOM     38  C   UNL     1       7.974   8.255  17.686  0.00  0.00    +0.000 C 
ENDBRANCH  36  37
ENDBRANCH  30  31
ENDBRANCH   7  30
TORSDOF 9
ENDMDL
MODEL 4
REMARK VINA RESULT:      -8.4      5.862     11.194
REMARK  Name = 
REMARK  12 active torsions:
REMARK  status: ('A' for Active; 'I' for Inactive)
REMARK    1  A    between atoms: C_1  and  N_2
REMARK    2  A    between atoms: C_3  and  C_5
REMARK    3  A    between atoms: C_8  and  N_9
REMARK    4  A    between atoms: C_13  and  N_14
REMARK    5  A    between atoms: N_14  and  C_15
REMARK    6  A    between atoms: C_15  and  C_16
REMARK    7  A    between atoms: C_16  and  C_17
REMARK    8  A    between atoms: C_22  and  O_23
REMARK    9  A    between atoms: O_23  and  C_24
REMARK   10  A    between atoms: C_29  and  O_30
REMARK   11  A    between atoms: O_30  and  C_31
REMARK   12  A    between atoms: C_35  and  C_36
REMARK                            x       y       z     vdW  Elec       q    Type
REMARK                         _______ _______ _______ _____ _____    ______ ____
ROOT
ATOM      1  N   UNL     1       1.060   8.839  21.106  0.00  0.00    +0.000 N 
ATOM      2  C   UNL     1       1.239   8.943  22.466  0.00  0.00    +0.000 A 
ATOM      3  N   UNL     1       0.684  10.020  22.970  0.00  0.00    +0.000 NA
ATOM      4  C   UNL     1       0.049  10.625  21.912  0.00  0.00    +0.000 A 
ATOM      5  C   UNL     1      -0.771  11.789  21.914  0.00  0.00    +0.000 A 
ATOM      6  C   UNL     1      -1.425  12.106  20.711  0.00  0.00    +0.000 A 
ATOM      7  C   UNL     1      -1.140  11.436  19.519  0.00  0.00    +0.000 A 
ATOM      8  C   UNL     1      -0.329  10.299  19.516  0.00  0.00    +0.000 A 
ATOM      9  C   UNL     1       0.261   9.911  20.729  0.00  0.00    +0.000 A 
ENDROOT
BRANCH   1  13
ATOM     10  C   UNL     1       2.537   5.690  18.693  0.00  0.00    +0.000 A 
ATOM     11  C   UNL     1       2.579   7.020  18.241  0.00  0.00    +0.000 A 
ATOM     12  C   UNL     1       2.100   8.070  19.029  0.00  0.00    +0.000 A 
ATOM     13  C   UNL     1       1.580   7.799  20.292  0.00  0.00    +0.000 A 
ATOM     14  C   UNL     1       1.548   6.475  20.762  0.00  0.00    +0.000 A 
ATOM     15  C   UNL     1       2.000   5.401  19.964  0.00  0.00    +0.000 A 
ATOM     16  C   UNL     1       1.736   4.010  20.472  0.00  0.00    +0.000 C 
BRANCH  10  19
ATOM     17  C   UNL     1       4.936   3.821  16.415  0.00  0.00    +0.000 C 
ATOM     18  N   UNL     1       4.367   4.723  17.387  0.00  0.00    +0.000 N 
ATOM     19  C   UNL     1       3.031   4.675  17.716  0.00  0.00    +0.000 C 
ATOM     20  O   UNL     1       2.235   3.902  17.192  0.00  0.00    +0.000 OA
ATOM     21  H   UNL     1       4.950   5.462  17.751  0.00  0.00    +0.000 HD
ENDBRANCH  10  19
ENDBRANCH   1  13
BRANCH   5  22
ATOM     22  N   UNL     1      -0.962  12.687  22.992  0.00  0.00    +0.000 N 
ATOM     23  H   UNL     1      -0.114  13.231  23.151  0.00  0.00    +0.000 HD
BRANCH  22  24
ATOM     24  C   UNL     1      -2.193  13.475  22.988  0.00  0.00    +0.000 C 
BRANCH  24  25
ATOM     25  C   UNL     1      -3.151  12.890  24.012  0.00  0.00    +0.000 C 
BRANCH  25  26
ATOM     26  C   UNL     1      -4.588  13.034  23.563  0.00  0.00    +0.000 C 
ATOM     27  F   UNL     1      -5.027  14.309  23.579  0.00  0.00    +0.000 F 
ATOM     28  F   UNL     1      -4.744  12.566  22.303  0.00  0.00    +0.000 F 
ATOM     29  F   UNL     1      -5.408  12.312  24.360  0.00  0.00    +0.000 F 
ENDBRANCH  25  26
ENDBRANCH  24  25
ENDBRANCH  22  24
ENDBRANCH   5  22
BRANCH   7  30
ATOM     30  O   UNL     1      -1.618  11.827  18.286  0.00  0.00    +0.000 OA
BRANCH  30  31
ATOM     31  C   UNL     1      -2.967  11.731  18.011  0.00  0.00    +0.000 A 
ATOM     32  C   UNL     1      -3.936  12.108  18.963  0.00  0.00    +0.000 A 
ATOM     33  C   UNL     1      -5.291  11.887  18.735  0.00  0.00    +0.000 A 
ATOM     34  C   UNL     1      -5.705  11.364  17.520  0.00  0.00    +0.000 A 
ATOM     35  C   UNL     1      -4.760  11.090  16.529  0.00  0.00    +0.000 A 
ATOM     36  C   UNL     1      -3.388  11.272  16.754  0.00  0.00    +0.000 A 
BRANCH  36  37
ATOM     37  O   UNL     1      -2.633  10.940  15.662  0.00  0.00    +0.000 OA
ATOM     38  C   UNL     1      -3.234  10.220  14.597  0.00  0.00    +0.000 C 
ENDBRANCH  36  37
ENDBRANCH  30  31
ENDBRANCH   7  30
TORSDOF 9
ENDMDL
MODEL 5
REMARK VINA RESULT:      -8.3      5.768     11.294
REMARK  Name = 
REMARK  12 active torsions:
REMARK  status: ('A' for Active; 'I' for Inactive)
REMARK    1  A    between atoms: C_1  and  N_2
REMARK    2  A    between atoms: C_3  and  C_5
REMARK    3  A    between atoms: C_8  and  N_9
REMARK    4  A    between atoms: C_13  and  N_14
REMARK    5  A    between atoms: N_14  and  C_15
REMARK    6  A    between atoms: C_15  and  C_16
REMARK    7  A    between atoms: C_16  and  C_17
REMARK    8  A    between atoms: C_22  and  O_23
REMARK    9  A    between atoms: O_23  and  C_24
REMARK   10  A    between atoms: C_29  and  O_30
REMARK   11  A    between atoms: O_30  and  C_31
REMARK   12  A    between atoms: C_35  and  C_36
REMARK                            x       y       z     vdW  Elec       q    Type
REMARK                         _______ _______ _______ _____ _____    ______ ____
ROOT
ATOM      1  N   UNL     1       0.809   9.126  21.291  0.00  0.00    +0.000 N 
ATOM      2  C   UNL     1       0.848   9.116  22.666  0.00  0.00    +0.000 A 
ATOM      3  N   UNL     1       0.234  10.146  23.200  0.00  0.00    +0.000 NA
ATOM      4  C   UNL     1      -0.296  10.838  22.137  0.00  0.00    +0.000 A 
ATOM      5  C   UNL     1      -1.123  11.996  22.152  0.00  0.00    +0.000 A 
ATOM      6  C   UNL     1      -1.654  12.413  20.920  0.00  0.00    +0.000 A 
ATOM      7  C   UNL     1      -1.243  11.847  19.711  0.00  0.00    +0.000 A 
ATOM      8  C   UNL     1      -0.424  10.715  19.695  0.00  0.00    +0.000 A 
ATOM      9  C   UNL     1       0.042  10.226  20.925  0.00  0.00    +0.000 A 
ENDROOT
BRANCH   1  13
ATOM     10  C   UNL     1       2.563   6.187  18.801  0.00  0.00    +0.000 A 
ATOM     11  C   UNL     1       2.419   7.512  18.354  0.00  0.00    +0.000 A 
ATOM     12  C   UNL     1       1.847   8.494  19.168  0.00  0.00    +0.000 A 
ATOM     13  C   UNL     1       1.419   8.160  20.450  0.00  0.00    +0.000 A 
ATOM     14  C   UNL     1       1.573   6.842  20.914  0.00  0.00    +0.000 A 
ATOM     15  C   UNL     1       2.121   5.834  20.091  0.00  0.00    +0.000 A 
ATOM     16  C   UNL     1       2.055   4.420  20.603  0.00  0.00    +0.000 C 
BRANCH  10  19
ATOM     17  C   UNL     1       5.021   4.710  16.307  0.00  0.00    +0.000 C 
ATOM     18  N   UNL     1       4.394   5.530  17.316  0.00  0.00    +0.000 N 
ATOM     19  C   UNL     1       3.137   5.242  17.798  0.00  0.00    +0.000 C 
ATOM     20  O   UNL     1       2.456   4.307  17.388  0.00  0.00    +0.000 OA
ATOM     21  H   UNL     1       4.857   6.384  17.592  0.00  0.00    +0.000 HD
ENDBRANCH  10  19
ENDBRANCH   1  13
BRANCH   5  22
ATOM     22  N   UNL     1      -1.431  12.800  23.276  0.00  0.00    +0.000 N 
ATOM     23  H   UNL     1      -0.582  13.016  23.798  0.00  0.00    +0.000 HD
BRANCH  22  24
ATOM     24  C   UNL     1      -2.310  13.946  23.050  0.00  0.00    +0.000 C 
BRANCH  24  25
ATOM     25  C   UNL     1      -3.360  13.982  24.148  0.00  0.00    +0.000 C 
BRANCH  25  26
ATOM     26  C   UNL     1      -4.439  12.951  23.908  0.00  0.00    +0.000 C 
ATOM     27  F   UNL     1      -4.501  12.532  22.628  0.00  0.00    +0.000 F 
ATOM     28  F   UNL     1      -4.240  11.860  24.684  0.00  0.00    +0.000 F 
ATOM     29  F   UNL     1      -5.653  13.453  24.229  0.00  0.00    +0.000 F 
ENDBRANCH  25  26
ENDBRANCH  24  25
ENDBRANCH  22  24
ENDBRANCH   5  22
BRANCH   7  30
ATOM     30  O   UNL     1      -1.596  12.340  18.472  0.00  0.00    +0.000 OA
BRANCH  30  31
ATOM     31  C   UNL     1      -2.434  11.608  17.657  0.00  0.00    +0.000 A 
ATOM     32  C   UNL     1      -1.925  10.799  16.620  0.00  0.00    +0.000 A 
ATOM     33  C   UNL     1      -2.776  10.168  15.717  0.00  0.00    +0.000 A 
ATOM     34  C   UNL     1      -4.148  10.265  15.885  0.00  0.00    +0.000 A 
ATOM     35  C   UNL     1      -4.660  10.974  16.974  0.00  0.00    +0.000 A 
ATOM     36  C   UNL     1      -3.820  11.647  17.873  0.00  0.00    +0.000 A 
BRANCH  36  37
ATOM     37  O   UNL     1      -4.519  12.284  18.862  0.00  0.00    +0.000 OA
ATOM     38  C   UNL     1      -5.903  12.538  18.678  0.00  0.00    +0.000 C 
ENDBRANCH  36  37
ENDBRANCH  30  31
ENDBRANCH   7  30
TORSDOF 9
ENDMDL
MODEL 6
REMARK VINA RESULT:      -8.2      3.507      5.949
REMARK  Name = 
REMARK  12 active torsions:
REMARK  status: ('A' for Active; 'I' for Inactive)
REMARK    1  A    between atoms: C_1  and  N_2
REMARK    2  A    between atoms: C_3  and  C_5
REMARK    3  A    between atoms: C_8  and  N_9
REMARK    4  A    between atoms: C_13  and  N_14
REMARK    5  A    between atoms: N_14  and  C_15
REMARK    6  A    between atoms: C_15  and  C_16
REMARK    7  A    between atoms: C_16  and  C_17
REMARK    8  A    between atoms: C_22  and  O_23
REMARK    9  A    between atoms: O_23  and  C_24
REMARK   10  A    between atoms: C_29  and  O_30
REMARK   11  A    between atoms: O_30  and  C_31
REMARK   12  A    between atoms: C_35  and  C_36
REMARK                            x       y       z     vdW  Elec       q    Type
REMARK                         _______ _______ _______ _____ _____    ______ ____
ROOT
ATOM      1  N   UNL     1       1.289   8.439  20.180  0.00  0.00    +0.000 N 
ATOM      2  C   UNL     1       0.922   7.655  21.250  0.00  0.00    +0.000 A 
ATOM      3  N   UNL     1       1.451   6.455  21.206  0.00  0.00    +0.000 NA
ATOM      4  C   UNL     1       2.261   6.460  20.096  0.00  0.00    +0.000 A 
ATOM      5  C   UNL     1       3.128   5.436  19.622  0.00  0.00    +0.000 A 
ATOM      6  C   UNL     1       3.963   5.762  18.540  0.00  0.00    +0.000 A 
ATOM      7  C   UNL     1       3.820   6.958  17.833  0.00  0.00    +0.000 A 
ATOM      8  C   UNL     1       2.963   7.960  18.293  0.00  0.00    +0.000 A 
ATOM      9  C   UNL     1       2.187   7.688  19.430  0.00  0.00    +0.000 A 
ENDROOT
BRANCH   1  13
ATOM     10  C   UNL     1      -0.129  12.366  19.485  0.00  0.00    +0.000 A 
ATOM     11  C   UNL     1       0.822  12.114  20.490  0.00  0.00    +0.000 A 
ATOM     12  C   UNL     1       1.303  10.824  20.726  0.00  0.00    +0.000 A 
ATOM     13  C   UNL     1       0.842   9.765  19.948  0.00  0.00    +0.000 A 
ATOM     14  C   UNL     1      -0.096  10.007  18.930  0.00  0.00    +0.000 A 
ATOM     15  C   UNL     1      -0.613  11.301  18.700  0.00  0.00    +0.000 A 
ATOM     16  C   UNL     1      -1.758  11.420  17.731  0.00  0.00    +0.000 C 
BRANCH  10  19
ATOM     17  C   UNL     1      -1.961  15.575  20.372  0.00  0.00    +0.000 C 
ATOM     18  N   UNL     1      -1.419  14.237  20.392  0.00  0.00    +0.000 N 
ATOM     19  C   UNL     1      -0.588  13.783  19.393  0.00  0.00    +0.000 C 
ATOM     20  O   UNL     1      -0.282  14.456  18.413  0.00  0.00    +0.000 OA
ATOM     21  H   UNL     1      -1.744  13.602  21.106  0.00  0.00    +0.000 HD
ENDBRANCH  10  19
ENDBRANCH   1  13
BRANCH   5  22
ATOM     22  N   UNL     1       3.206   4.106  20.101  0.00  0.00    +0.000 N 
ATOM     23  H   UNL     1       2.457   3.928  20.770  0.00  0.00    +0.000 HD
BRANCH  22  24
ATOM     24  C   UNL     1       3.386   3.052  19.103  0.00  0.00    +0.000 C 
BRANCH  24  25
ATOM     25  C   UNL     1       2.249   2.053  19.237  0.00  0.00    +0.000 C 
BRANCH  25  26
ATOM     26  C   UNL     1       0.927   2.671  18.844  0.00  0.00    +0.000 C 
ATOM     27  F   UNL     1       0.310   3.303  19.863  0.00  0.00    +0.000 F 
ATOM     28  F   UNL     1       1.097   3.573  17.850  0.00  0.00    +0.000 F 
ATOM     29  F   UNL     1       0.079   1.724  18.382  0.00  0.00    +0.000 F 
ENDBRANCH  25  26
ENDBRANCH  24  25
ENDBRANCH  22  24
ENDBRANCH   5  22
BRANCH   7  30
ATOM     30  O   UNL     1       4.489   7.242  16.661  0.00  0.00    +0.000 OA
BRANCH  30  31
ATOM     31  C   UNL     1       5.346   6.308  16.117  0.00  0.00    +0.000 A 
ATOM     32  C   UNL     1       4.984   5.557  14.979  0.00  0.00    +0.000 A 
ATOM     33  C   UNL     1       5.793   4.525  14.513  0.00  0.00    +0.000 A 
ATOM     34  C   UNL     1       7.013   4.281  15.123  0.00  0.00    +0.000 A 
ATOM     35  C   UNL     1       7.429   5.091  16.181  0.00  0.00    +0.000 A 
ATOM     36  C   UNL     1       6.612   6.112  16.689  0.00  0.00    +0.000 A 
BRANCH  36  37
ATOM     37  O   UNL     1       7.200   6.782  17.727  0.00  0.00    +0.000 OA
ATOM     38  C   UNL     1       7.651   8.113  17.526  0.00  0.00    +0.000 C 
ENDBRANCH  36  37
ENDBRANCH  30  31
ENDBRANCH   7  30
TORSDOF 9
ENDMDL
MODEL 7
REMARK VINA RESULT:      -8.2      3.436      5.960
REMARK  Name = 
REMARK  12 active torsions:
REMARK  status: ('A' for Active; 'I' for Inactive)
REMARK    1  A    between atoms: C_1  and  N_2
REMARK    2  A    between atoms: C_3  and  C_5
REMARK    3  A    between atoms: C_8  and  N_9
REMARK    4  A    between atoms: C_13  and  N_14
REMARK    5  A    between atoms: N_14  and  C_15
REMARK    6  A    between atoms: C_15  and  C_16
REMARK    7  A    between atoms: C_16  and  C_17
REMARK    8  A    between atoms: C_22  and  O_23
REMARK    9  A    between atoms: O_23  and  C_24
REMARK   10  A    between atoms: C_29  and  O_30
REMARK   11  A    between atoms: O_30  and  C_31
REMARK   12  A    between atoms: C_35  and  C_36
REMARK                            x       y       z     vdW  Elec       q    Type
REMARK                         _______ _______ _______ _____ _____    ______ ____
ROOT
ATOM      1  N   UNL     1       1.051   9.020  20.281  0.00  0.00    +0.000 N 
ATOM      2  C   UNL     1       0.616   8.351  21.402  0.00  0.00    +0.000 A 
ATOM      3  N   UNL     1       0.988   7.093  21.419  0.00  0.00    +0.000 NA
ATOM      4  C   UNL     1       1.763   6.933  20.295  0.00  0.00    +0.000 A 
ATOM      5  C   UNL     1       2.482   5.781  19.867  0.00  0.00    +0.000 A 
ATOM      6  C   UNL     1       3.323   5.937  18.752  0.00  0.00    +0.000 A 
ATOM      7  C   UNL     1       3.314   7.101  17.979  0.00  0.00    +0.000 A 
ATOM      8  C   UNL     1       2.602   8.228  18.395  0.00  0.00    +0.000 A 
ATOM      9  C   UNL     1       1.827   8.121  19.560  0.00  0.00    +0.000 A 
ENDROOT
BRANCH   1  13
ATOM     10  C   UNL     1       0.121  13.051  19.384  0.00  0.00    +0.000 A 
ATOM     11  C   UNL     1       1.073  12.737  20.370  0.00  0.00    +0.000 A 
ATOM     12  C   UNL     1       1.393  11.411  20.672  0.00  0.00    +0.000 A 
ATOM     13  C   UNL     1       0.768  10.378  19.979  0.00  0.00    +0.000 A 
ATOM     14  C   UNL     1      -0.173  10.680  18.980  0.00  0.00    +0.000 A 
ATOM     15  C   UNL     1      -0.528  12.014  18.685  0.00  0.00    +0.000 A 
ATOM     16  C   UNL     1      -1.688  12.224  17.749  0.00  0.00    +0.000 C 
BRANCH  10  19
ATOM     17  C   UNL     1      -1.659  16.393  19.710  0.00  0.00    +0.000 C 
ATOM     18  N   UNL     1      -1.272  15.009  19.847  0.00  0.00    +0.000 N 
ATOM     19  C   UNL     1      -0.156  14.508  19.216  0.00  0.00    +0.000 C 
ATOM     20  O   UNL     1       0.557  15.179  18.475  0.00  0.00    +0.000 OA
ATOM     21  H   UNL     1      -1.896  14.386  20.339  0.00  0.00    +0.000 HD
ENDBRANCH  10  19
ENDBRANCH   1  13
BRANCH   5  22
ATOM     22  N   UNL     1       2.403   4.481  20.422  0.00  0.00    +0.000 N 
ATOM     23  H   UNL     1       2.049   4.527  21.377  0.00  0.00    +0.000 HD
BRANCH  22  24
ATOM     24  C   UNL     1       1.784   3.445  19.597  0.00  0.00    +0.000 C 
BRANCH  24  25
ATOM     25  C   UNL     1       2.668   2.210  19.618  0.00  0.00    +0.000 C 
BRANCH  25  26
ATOM     26  C   UNL     1       3.292   1.959  18.264  0.00  0.00    +0.000 C 
ATOM     27  F   UNL     1       4.212   2.884  17.922  0.00  0.00    +0.000 F 
ATOM     28  F   UNL     1       3.900   0.750  18.234  0.00  0.00    +0.000 F 
ATOM     29  F   UNL     1       2.345   1.953  17.299  0.00  0.00    +0.000 F 
ENDBRANCH  25  26
ENDBRANCH  24  25
ENDBRANCH  22  24
ENDBRANCH   5  22
BRANCH   7  30
ATOM     30  O   UNL     1       3.983   7.231  16.780  0.00  0.00    +0.000 OA
BRANCH  30  31
ATOM     31  C   UNL     1       5.047   6.401  16.495  0.00  0.00    +0.000 A 
ATOM     32  C   UNL     1       4.907   5.304  15.619  0.00  0.00    +0.000 A 
ATOM     33  C   UNL     1       5.943   4.393  15.436  0.00  0.00    +0.000 A 
ATOM     34  C   UNL     1       7.162   4.608  16.060  0.00  0.00    +0.000 A 
ATOM     35  C   UNL     1       7.345   5.750  16.842  0.00  0.00    +0.000 A 
ATOM     36  C   UNL     1       6.302   6.660  17.067  0.00  0.00    +0.000 A 
BRANCH  36  37
ATOM     37  O   UNL     1       6.684   7.704  17.864  0.00  0.00    +0.000 OA
ATOM     38  C   UNL     1       7.917   8.359  17.604  0.00  0.00    +0.000 C 
ENDBRANCH  36  37
ENDBRANCH  30  31
ENDBRANCH   7  30
TORSDOF 9
ENDMDL
MODEL 8
REMARK VINA RESULT:      -8.2      3.668      6.404
REMARK  Name = 
REMARK  12 active torsions:
REMARK  status: ('A' for Active; 'I' for Inactive)
REMARK    1  A    between atoms: C_1  and  N_2
REMARK    2  A    between atoms: C_3  and  C_5
REMARK    3  A    between atoms: C_8  and  N_9
REMARK    4  A    between atoms: C_13  and  N_14
REMARK    5  A    between atoms: N_14  and  C_15
REMARK    6  A    between atoms: C_15  and  C_16
REMARK    7  A    between atoms: C_16  and  C_17
REMARK    8  A    between atoms: C_22  and  O_23
REMARK    9  A    between atoms: O_23  and  C_24
REMARK   10  A    between atoms: C_29  and  O_30
REMARK   11  A    between atoms: O_30  and  C_31
REMARK   12  A    between atoms: C_35  and  C_36
REMARK                            x       y       z     vdW  Elec       q    Type
REMARK                         _______ _______ _______ _____ _____    ______ ____
ROOT
ATOM      1  N   UNL     1       0.965   9.740  20.315  0.00  0.00    +0.000 N 
ATOM      2  C   UNL     1       0.411   9.205  21.455  0.00  0.00    +0.000 A 
ATOM      3  N   UNL     1       0.632   7.917  21.571  0.00  0.00    +0.000 NA
ATOM      4  C   UNL     1       1.426   7.591  20.497  0.00  0.00    +0.000 A 
ATOM      5  C   UNL     1       2.021   6.338  20.177  0.00  0.00    +0.000 A 
ATOM      6  C   UNL     1       2.916   6.319  19.094  0.00  0.00    +0.000 A 
ATOM      7  C   UNL     1       3.073   7.419  18.248  0.00  0.00    +0.000 A 
ATOM      8  C   UNL     1       2.483   8.647  18.557  0.00  0.00    +0.000 A 
ATOM      9  C   UNL     1       1.657   8.710  19.690  0.00  0.00    +0.000 A 
ENDROOT
BRANCH   1  13
ATOM     10  C   UNL     1       0.650  13.812  19.202  0.00  0.00    +0.000 A 
ATOM     11  C   UNL     1       1.442  12.923  18.455  0.00  0.00    +0.000 A 
ATOM     12  C   UNL     1       1.550  11.576  18.807  0.00  0.00    +0.000 A 
ATOM     13  C   UNL     1       0.855  11.097  19.914  0.00  0.00    +0.000 A 
ATOM     14  C   UNL     1       0.046  11.972  20.659  0.00  0.00    +0.000 A 
ATOM     15  C   UNL     1      -0.048  13.343  20.332  0.00  0.00    +0.000 A 
ATOM     16  C   UNL     1      -0.771  14.232  21.307  0.00  0.00    +0.000 C 
BRANCH  10  19
ATOM     17  C   UNL     1      -0.610  17.174  17.958  0.00  0.00    +0.000 C 
ATOM     18  N   UNL     1      -0.529  15.824  18.462  0.00  0.00    +0.000 N 
ATOM     19  C   UNL     1       0.681  15.230  18.736  0.00  0.00    +0.000 C 
ATOM     20  O   UNL     1       1.761  15.780  18.543  0.00  0.00    +0.000 OA
ATOM     21  H   UNL     1      -1.380  15.284  18.515  0.00  0.00    +0.000 HD
ENDBRANCH  10  19
ENDBRANCH   1  13
BRANCH   5  22
ATOM     22  N   UNL     1       1.770   5.097  20.810  0.00  0.00    +0.000 N 
ATOM     23  H   UNL     1       0.766   4.949  20.910  0.00  0.00    +0.000 HD
BRANCH  22  24
ATOM     24  C   UNL     1       2.503   3.936  20.308  0.00  0.00    +0.000 C 
BRANCH  24  25
ATOM     25  C   UNL     1       1.520   2.804  20.064  0.00  0.00    +0.000 C 
BRANCH  25  26
ATOM     26  C   UNL     1       1.248   2.623  18.588  0.00  0.00    +0.000 C 
ATOM     27  F   UNL     1       2.233   1.968  17.940  0.00  0.00    +0.000 F 
ATOM     28  F   UNL     1       0.102   1.928  18.395  0.00  0.00    +0.000 F 
ATOM     29  F   UNL     1       1.093   3.823  17.984  0.00  0.00    +0.000 F 
ENDBRANCH  25  26
ENDBRANCH  24  25
ENDBRANCH  22  24
ENDBRANCH   5  22
BRANCH   7  30
ATOM     30  O   UNL     1       3.798   7.389  17.075  0.00  0.00    +0.000 OA
BRANCH  30  31
ATOM     31  C   UNL     1       4.749   6.408  16.882  0.00  0.00    +0.000 A 
ATOM     32  C   UNL     1       4.381   5.064  16.666  0.00  0.00    +0.000 A 
ATOM     33  C   UNL     1       5.340   4.057  16.604  0.00  0.00    +0.000 A 
ATOM     34  C   UNL     1       6.685   4.387  16.673  0.00  0.00    +0.000 A 
ATOM     35  C   UNL     1       7.062   5.727  16.777  0.00  0.00    +0.000 A 
ATOM     36  C   UNL     1       6.110   6.752  16.878  0.00  0.00    +0.000 A 
BRANCH  36  37
ATOM     37  O   UNL     1       6.684   7.989  16.978  0.00  0.00    +0.000 OA
ATOM     38  C   UNL     1       7.818   8.161  17.814  0.00  0.00    +0.000 C 
ENDBRANCH  36  37
ENDBRANCH  30  31
ENDBRANCH   7  30
TORSDOF 9
ENDMDL
MODEL 9
REMARK VINA RESULT:      -8.1      4.950     10.141
REMARK  Name = 
REMARK  12 active torsions:
REMARK  status: ('A' for Active; 'I' for Inactive)
REMARK    1  A    between atoms: C_1  and  N_2
REMARK    2  A    between atoms: C_3  and  C_5
REMARK    3  A    between atoms: C_8  and  N_9
REMARK    4  A    between atoms: C_13  and  N_14
REMARK    5  A    between atoms: N_14  and  C_15
REMARK    6  A    between atoms: C_15  and  C_16
REMARK    7  A    between atoms: C_16  and  C_17
REMARK    8  A    between atoms: C_22  and  O_23
REMARK    9  A    between atoms: O_23  and  C_24
REMARK   10  A    between atoms: C_29  and  O_30
REMARK   11  A    between atoms: O_30  and  C_31
REMARK   12  A    between atoms: C_35  and  C_36
REMARK                            x       y       z     vdW  Elec       q    Type
REMARK                         _______ _______ _______ _____ _____    ______ ____
ROOT
ATOM      1  N   UNL     1       2.843   6.375  19.115  0.00  0.00    +0.000 N 
ATOM      2  C   UNL     1       2.402   5.571  20.140  0.00  0.00    +0.000 A 
ATOM      3  N   UNL     1       1.585   6.192  20.958  0.00  0.00    +0.000 NA
ATOM      4  C   UNL     1       1.420   7.445  20.416  0.00  0.00    +0.000 A 
ATOM      5  C   UNL     1       0.576   8.502  20.860  0.00  0.00    +0.000 A 
ATOM      6  C   UNL     1       0.483   9.631  20.029  0.00  0.00    +0.000 A 
ATOM      7  C   UNL     1       1.319   9.802  18.922  0.00  0.00    +0.000 A 
ATOM      8  C   UNL     1       2.153   8.768  18.492  0.00  0.00    +0.000 A 
ATOM      9  C   UNL     1       2.191   7.594  19.259  0.00  0.00    +0.000 A 
ENDROOT
BRANCH   1  13
ATOM     10  C   UNL     1       5.642   5.207  16.162  0.00  0.00    +0.000 A 
ATOM     11  C   UNL     1       4.440   4.498  16.332  0.00  0.00    +0.000 A 
ATOM     12  C   UNL     1       3.505   4.875  17.298  0.00  0.00    +0.000 A 
ATOM     13  C   UNL     1       3.759   5.981  18.105  0.00  0.00    +0.000 A 
ATOM     14  C   UNL     1       4.949   6.709  17.934  0.00  0.00    +0.000 A 
ATOM     15  C   UNL     1       5.917   6.320  16.981  0.00  0.00    +0.000 A 
ATOM     16  C   UNL     1       7.240   7.036  17.016  0.00  0.00    +0.000 C 
BRANCH  10  19
ATOM     17  C   UNL     1       6.800   3.686  12.878  0.00  0.00    +0.000 C 
ATOM     18  N   UNL     1       6.007   4.283  13.926  0.00  0.00    +0.000 N 
ATOM     19  C   UNL     1       6.564   4.648  15.130  0.00  0.00    +0.000 C 
ATOM     20  O   UNL     1       7.745   4.464  15.410  0.00  0.00    +0.000 OA
ATOM     21  H   UNL     1       5.007   4.336  13.795  0.00  0.00    +0.000 HD
ENDBRANCH  10  19
ENDBRANCH   1  13
BRANCH   5  22
ATOM     22  N   UNL     1      -0.147   8.553  22.076  0.00  0.00    +0.000 N 
ATOM     23  H   UNL     1      -0.172   7.630  22.510  0.00  0.00    +0.000 HD
BRANCH  22  24
ATOM     24  C   UNL     1       0.178   9.643  22.995  0.00  0.00    +0.000 C 
BRANCH  24  25
ATOM     25  C   UNL     1      -1.097  10.399  23.328  0.00  0.00    +0.000 C 
BRANCH  25  26
ATOM     26  C   UNL     1      -1.139  11.738  22.627  0.00  0.00    +0.000 C 
ATOM     27  F   UNL     1      -1.647  12.725  23.393  0.00  0.00    +0.000 F 
ATOM     28  F   UNL     1       0.103  12.117  22.246  0.00  0.00    +0.000 F 
ATOM     29  F   UNL     1      -1.894  11.663  21.508  0.00  0.00    +0.000 F 
ENDBRANCH  25  26
ENDBRANCH  24  25
ENDBRANCH  22  24
ENDBRANCH   5  22
BRANCH   7  30
ATOM     30  O   UNL     1       1.391  10.967  18.187  0.00  0.00    +0.000 OA
BRANCH  30  31
ATOM     31  C   UNL     1       0.929  12.149  18.728  0.00  0.00    +0.000 A 
ATOM     32  C   UNL     1       1.789  13.018  19.432  0.00  0.00    +0.000 A 
ATOM     33  C   UNL     1       1.295  14.141  20.089  0.00  0.00    +0.000 A 
ATOM     34  C   UNL     1      -0.050  14.460  19.984  0.00  0.00    +0.000 A 
ATOM     35  C   UNL     1      -0.888  13.666  19.199  0.00  0.00    +0.000 A 
ATOM     36  C   UNL     1      -0.417  12.510  18.560  0.00  0.00    +0.000 A 
BRANCH  36  37
ATOM     37  O   UNL     1      -1.396  11.872  17.848  0.00  0.00    +0.000 OA
ATOM     38  C   UNL     1      -2.706  11.795  18.389  0.00  0.00    +0.000 C 
ENDBRANCH  36  37
ENDBRANCH  30  31
ENDBRANCH   7  30
TORSDOF 9
ENDMDL
