MODEL 1
REMARK VINA RESULT:      -7.7      0.000      0.000
REMARK  Name = 
REMARK  9 active torsions:
REMARK  status: ('A' for Active; 'I' for Inactive)
REMARK    1  A    between atoms: C_1  and  C_2
REMARK    2  A    between atoms: C_5  and  N_6
REMARK    3  A    between atoms: C_7  and  C_8
REMARK    4  A    between atoms: C_8  and  O_9
REMARK    5  A    between atoms: O_9  and  C_10
REMARK    6  A    between atoms: C_18  and  S_19
REMARK    7  A    between atoms: S_19  and  C_20
REMARK    8  A    between atoms: C_20  and  C_21
REMARK    9  A    between atoms: C_21  and  O_23
REMARK                            x       y       z     vdW  Elec       q    Type
REMARK                         _______ _______ _______ _____ _____    ______ ____
ROOT
ATOM      1  N   UNL     1       4.204   5.582  17.373  0.00  0.00    +0.000 N 
ATOM      2  C   UNL     1       3.835   4.353  16.813  0.00  0.00    +0.000 A 
ATOM      3  N   UNL     1       4.839   3.880  16.090  0.00  0.00    +0.000 NA
ATOM      4  N   UNL     1       5.890   4.735  16.184  0.00  0.00    +0.000 NA
ATOM      5  C   UNL     1       5.530   5.729  16.962  0.00  0.00    +0.000 A 
ENDROOT
BRANCH   1  10
ATOM      6  C   UNL     1       0.700   8.989  20.405  0.00  0.00    +0.000 C 
ATOM      7  C   UNL     1       1.697   8.161  19.649  0.00  0.00    +0.000 A 
ATOM      8  C   UNL     1       2.140   8.543  18.381  0.00  0.00    +0.000 A 
ATOM      9  C   UNL     1       2.984   7.709  17.636  0.00  0.00    +0.000 A 
ATOM     10  C   UNL     1       3.417   6.484  18.156  0.00  0.00    +0.000 A 
ATOM     11  C   UNL     1       3.026   6.143  19.460  0.00  0.00    +0.000 A 
ATOM     12  C   UNL     1       2.156   6.960  20.187  0.00  0.00    +0.000 A 
ENDBRANCH   1  10
BRANCH   2  13
ATOM     13  C   UNL     1       2.480   3.716  16.846  0.00  0.00    +0.000 C 
BRANCH  13  14
ATOM     14  O   UNL     1       2.592   2.522  17.627  0.00  0.00    +0.000 OA
BRANCH  14  15
ATOM     15  C   UNL     1       2.305   2.638  18.963  0.00  0.00    +0.000 A 
ATOM     16  C   UNL     1       3.391   2.446  19.823  0.00  0.00    +0.000 A 
ATOM     17  C   UNL     1       3.233   2.557  21.208  0.00  0.00    +0.000 A 
ATOM     18  C   UNL     1       1.989   2.882  21.742  0.00  0.00    +0.000 A 
ATOM     19  C   UNL     1       0.906   3.099  20.888  0.00  0.00    +0.000 A 
ATOM     20  C   UNL     1       1.064   2.981  19.501  0.00  0.00    +0.000 A 
ENDBRANCH  14  15
ENDBRANCH  13  14
ENDBRANCH   2  13
BRANCH   5  21
ATOM     21  S   UNL     1       6.647   6.965  17.454  0.00  0.00    +0.000 S 
BRANCH  21  22
ATOM     22  C   UNL     1       7.898   6.041  18.381  0.00  0.00    +0.000 C 
BRANCH  22  23
ATOM     23  C   UNL     1       7.360   5.457  19.671  0.00  0.00    +0.000 C 
ATOM     24  O   UNL     1       6.227   5.015  19.787  0.00  0.00    +0.000 OA
BRANCH  23  25
ATOM     25  O   UNL     1       8.241   5.435  20.696  0.00  0.00    +0.000 OA
ATOM     26  H   UNL     1       9.187   5.505  20.429  0.00  0.00    +0.000 HD
ENDBRANCH  23  25
ENDBRANCH  22  23
ENDBRANCH  21  22
ENDBRANCH   5  21
TORSDOF 8
ENDMDL
MODEL 2
REMARK VINA RESULT:      -7.7      0.683      1.215
REMARK  Name = 
REMARK  9 active torsions:
REMARK  status: ('A' for Active; 'I' for Inactive)
REMARK    1  A    between atoms: C_1  and  C_2
REMARK    2  A    between atoms: C_5  and  N_6
REMARK    3  A    between atoms: C_7  and  C_8
REMARK    4  A    between atoms: C_8  and  O_9
REMARK    5  A    between atoms: O_9  and  C_10
REMARK    6  A    between atoms: C_18  and  S_19
REMARK    7  A    between atoms: S_19  and  C_20
REMARK    8  A    between atoms: C_20  and  C_21
REMARK    9  A    between atoms: C_21  and  O_23
REMARK                            x       y       z     vdW  Elec       q    Type
REMARK                         _______ _______ _______ _____ _____    ______ ____
ROOT
ATOM      1  N   UNL     1       4.408   5.626  17.304  0.00  0.00    +0.000 N 
ATOM      2  C   UNL     1       4.261   4.351  16.743  0.00  0.00    +0.000 A 
ATOM      3  N   UNL     1       5.307   4.085  15.975  0.00  0.00    +0.000 NA
ATOM      4  N   UNL     1       6.176   5.127  16.038  0.00  0.00    +0.000 NA
ATOM      5  C   UNL     1       5.662   6.029  16.842  0.00  0.00    +0.000 A 
ENDROOT
BRANCH   1  10
ATOM      6  C   UNL     1       1.049   8.810  20.717  0.00  0.00    +0.000 C 
ATOM      7  C   UNL     1       1.838   7.918  19.805  0.00  0.00    +0.000 A 
ATOM      8  C   UNL     1       2.395   6.724  20.268  0.00  0.00    +0.000 A 
ATOM      9  C   UNL     1       3.224   5.953  19.441  0.00  0.00    +0.000 A 
ATOM     10  C   UNL     1       3.494   6.354  18.129  0.00  0.00    +0.000 A 
ATOM     11  C   UNL     1       2.870   7.516  17.650  0.00  0.00    +0.000 A 
ATOM     12  C   UNL     1       2.073   8.302  18.486  0.00  0.00    +0.000 A 
ENDBRANCH   1  10
BRANCH   2  13
ATOM     13  C   UNL     1       3.057   3.463  16.821  0.00  0.00    +0.000 C 
BRANCH  13  14
ATOM     14  O   UNL     1       3.315   2.488  17.837  0.00  0.00    +0.000 OA
BRANCH  14  15
ATOM     15  C   UNL     1       2.620   2.633  19.011  0.00  0.00    +0.000 A 
ATOM     16  C   UNL     1       3.377   2.460  20.175  0.00  0.00    +0.000 A 
ATOM     17  C   UNL     1       2.789   2.601  21.436  0.00  0.00    +0.000 A 
ATOM     18  C   UNL     1       1.441   2.935  21.541  0.00  0.00    +0.000 A 
ATOM     19  C   UNL     1       0.686   3.133  20.384  0.00  0.00    +0.000 A 
ATOM     20  C   UNL     1       1.275   2.985  19.121  0.00  0.00    +0.000 A 
ENDBRANCH  14  15
ENDBRANCH  13  14
ENDBRANCH   2  13
BRANCH   5  21
ATOM     21  S   UNL     1       6.537   7.456  17.305  0.00  0.00    +0.000 S 
BRANCH  21  22
ATOM     22  C   UNL     1       7.913   6.794  18.280  0.00  0.00    +0.000 C 
BRANCH  22  23
ATOM     23  C   UNL     1       7.617   5.426  18.858  0.00  0.00    +0.000 C 
ATOM     24  O   UNL     1       8.114   4.395  18.433  0.00  0.00    +0.000 OA
BRANCH  23  25
ATOM     25  O   UNL     1       6.769   5.426  19.912  0.00  0.00    +0.000 OA
ATOM     26  H   UNL     1       6.994   6.071  20.622  0.00  0.00    +0.000 HD
ENDBRANCH  23  25
ENDBRANCH  22  23
ENDBRANCH  21  22
ENDBRANCH   5  21
TORSDOF 8
ENDMDL
MODEL 3
REMARK VINA RESULT:      -7.6      0.764      1.232
REMARK  Name = 
REMARK  9 active torsions:
REMARK  status: ('A' for Active; 'I' for Inactive)
REMARK    1  A    between atoms: C_1  and  C_2
REMARK    2  A    between atoms: C_5  and  N_6
REMARK    3  A    between atoms: C_7  and  C_8
REMARK    4  A    between atoms: C_8  and  O_9
REMARK    5  A    between atoms: O_9  and  C_10
REMARK    6  A    between atoms: C_18  and  S_19
REMARK    7  A    between atoms: S_19  and  C_20
REMARK    8  A    between atoms: C_20  and  C_21
REMARK    9  A    between atoms: C_21  and  O_23
REMARK                            x       y       z     vdW  Elec       q    Type
REMARK                         _______ _______ _______ _____ _____    ______ ____
ROOT
ATOM      1  N   UNL     1       4.610   5.608  17.255  0.00  0.00    +0.000 N 
ATOM      2  C   UNL     1       4.403   4.327  16.728  0.00  0.00    +0.000 A 
ATOM      3  N   UNL     1       5.402   4.019  15.915  0.00  0.00    +0.000 NA
ATOM      4  N   UNL     1       6.299   5.040  15.914  0.00  0.00    +0.000 NA
ATOM      5  C   UNL     1       5.849   5.969  16.723  0.00  0.00    +0.000 A 
ENDROOT
BRANCH   1  10
ATOM      6  C   UNL     1       0.864   8.439  20.576  0.00  0.00    +0.000 C 
ATOM      7  C   UNL     1       1.917   7.769  19.744  0.00  0.00    +0.000 A 
ATOM      8  C   UNL     1       2.254   8.253  18.478  0.00  0.00    +0.000 A 
ATOM      9  C   UNL     1       3.157   7.558  17.663  0.00  0.00    +0.000 A 
ATOM     10  C   UNL     1       3.756   6.375  18.109  0.00  0.00    +0.000 A 
ATOM     11  C   UNL     1       3.469   5.937  19.410  0.00  0.00    +0.000 A 
ATOM     12  C   UNL     1       2.541   6.612  20.208  0.00  0.00    +0.000 A 
ENDBRANCH   1  10
BRANCH   2  13
ATOM     13  C   UNL     1       3.184   3.471  16.885  0.00  0.00    +0.000 C 
BRANCH  13  14
ATOM     14  O   UNL     1       3.481   2.488  17.881  0.00  0.00    +0.000 OA
BRANCH  14  15
ATOM     15  C   UNL     1       2.846   2.632  19.089  0.00  0.00    +0.000 A 
ATOM     16  C   UNL     1       1.475   2.898  19.012  0.00  0.00    +0.000 A 
ATOM     17  C   UNL     1       0.711   3.047  20.173  0.00  0.00    +0.000 A 
ATOM     18  C   UNL     1       1.311   2.912  21.423  0.00  0.00    +0.000 A 
ATOM     19  C   UNL     1       2.673   2.622  21.506  0.00  0.00    +0.000 A 
ATOM     20  C   UNL     1       3.440   2.480  20.342  0.00  0.00    +0.000 A 
ENDBRANCH  14  15
ENDBRANCH  13  14
ENDBRANCH   2  13
BRANCH   5  21
ATOM     21  S   UNL     1       6.781   7.382  17.112  0.00  0.00    +0.000 S 
BRANCH  21  22
ATOM     22  C   UNL     1       7.919   6.783  18.387  0.00  0.00    +0.000 C 
BRANCH  22  23
ATOM     23  C   UNL     1       7.600   5.375  18.843  0.00  0.00    +0.000 C 
ATOM     24  O   UNL     1       8.056   4.376  18.309  0.00  0.00    +0.000 OA
BRANCH  23  25
ATOM     25  O   UNL     1       6.781   5.297  19.916  0.00  0.00    +0.000 OA
ATOM     26  H   UNL     1       6.512   4.382  20.164  0.00  0.00    +0.000 HD
ENDBRANCH  23  25
ENDBRANCH  22  23
ENDBRANCH  21  22
ENDBRANCH   5  21
TORSDOF 8
ENDMDL
MODEL 4
REMARK VINA RESULT:      -7.3      2.384      5.244
REMARK  Name = 
REMARK  9 active torsions:
REMARK  status: ('A' for Active; 'I' for Inactive)
REMARK    1  A    between atoms: C_1  and  C_2
REMARK    2  A    between atoms: C_5  and  N_6
REMARK    3  A    between atoms: C_7  and  C_8
REMARK    4  A    between atoms: C_8  and  O_9
REMARK    5  A    between atoms: O_9  and  C_10
REMARK    6  A    between atoms: C_18  and  S_19
REMARK    7  A    between atoms: S_19  and  C_20
REMARK    8  A    between atoms: C_20  and  C_21
REMARK    9  A    between atoms: C_21  and  O_23
REMARK                            x       y       z     vdW  Elec       q    Type
REMARK                         _______ _______ _______ _____ _____    ______ ____
ROOT
ATOM      1  N   UNL     1       3.558   4.763  19.653  0.00  0.00    +0.000 N 
ATOM      2  C   UNL     1       4.901   4.377  19.559  0.00  0.00    +0.000 A 
ATOM      3  N   UNL     1       5.047   3.164  20.072  0.00  0.00    +0.000 NA
ATOM      4  N   UNL     1       3.831   2.704  20.466  0.00  0.00    +0.000 NA
ATOM      5  C   UNL     1       2.944   3.634  20.197  0.00  0.00    +0.000 A 
ENDROOT
BRANCH   1  10
ATOM      6  C   UNL     1       1.514   9.967  18.307  0.00  0.00    +0.000 C 
ATOM      7  C   UNL     1       1.948   8.570  18.637  0.00  0.00    +0.000 A 
ATOM      8  C   UNL     1       1.743   8.031  19.909  0.00  0.00    +0.000 A 
ATOM      9  C   UNL     1       2.250   6.769  20.242  0.00  0.00    +0.000 A 
ATOM     10  C   UNL     1       2.957   6.013  19.301  0.00  0.00    +0.000 A 
ATOM     11  C   UNL     1       3.094   6.531  18.004  0.00  0.00    +0.000 A 
ATOM     12  C   UNL     1       2.618   7.805  17.684  0.00  0.00    +0.000 A 
ENDBRANCH   1  10
BRANCH   2  13
ATOM     13  C   UNL     1       6.056   5.225  19.125  0.00  0.00    +0.000 C 
BRANCH  13  14
ATOM     14  O   UNL     1       6.893   4.411  18.297  0.00  0.00    +0.000 OA
BRANCH  14  15
ATOM     15  C   UNL     1       6.641   4.450  16.950  0.00  0.00    +0.000 A 
ATOM     16  C   UNL     1       5.383   3.973  16.566  0.00  0.00    +0.000 A 
ATOM     17  C   UNL     1       4.997   3.978  15.222  0.00  0.00    +0.000 A 
ATOM     18  C   UNL     1       5.862   4.480  14.253  0.00  0.00    +0.000 A 
ATOM     19  C   UNL     1       7.108   4.980  14.631  0.00  0.00    +0.000 A 
ATOM     20  C   UNL     1       7.496   4.968  15.977  0.00  0.00    +0.000 A 
ENDBRANCH  14  15
ENDBRANCH  13  14
ENDBRANCH   2  13
BRANCH   5  21
ATOM     21  S   UNL     1       1.241   3.373  20.418  0.00  0.00    +0.000 S 
BRANCH  21  22
ATOM     22  C   UNL     1       0.761   2.499  18.906  0.00  0.00    +0.000 C 
BRANCH  22  23
ATOM     23  C   UNL     1       1.861   2.478  17.866  0.00  0.00    +0.000 C 
ATOM     24  O   UNL     1       1.974   3.321  16.990  0.00  0.00    +0.000 OA
BRANCH  23  25
ATOM     25  O   UNL     1       2.742   1.458  17.990  0.00  0.00    +0.000 OA
ATOM     26  H   UNL     1       2.872   1.135  18.911  0.00  0.00    +0.000 HD
ENDBRANCH  23  25
ENDBRANCH  22  23
ENDBRANCH  21  22
ENDBRANCH   5  21
TORSDOF 8
ENDMDL
MODEL 5
REMARK VINA RESULT:      -7.2      0.736      1.540
REMARK  Name = 
REMARK  9 active torsions:
REMARK  status: ('A' for Active; 'I' for Inactive)
REMARK    1  A    between atoms: C_1  and  C_2
REMARK    2  A    between atoms: C_5  and  N_6
REMARK    3  A    between atoms: C_7  and  C_8
REMARK    4  A    between atoms: C_8  and  O_9
REMARK    5  A    between atoms: O_9  and  C_10
REMARK    6  A    between atoms: C_18  and  S_19
REMARK    7  A    between atoms: S_19  and  C_20
REMARK    8  A    between atoms: C_20  and  C_21
REMARK    9  A    between atoms: C_21  and  O_23
REMARK                            x       y       z     vdW  Elec       q    Type
REMARK                         _______ _______ _______ _____ _____    ______ ____
ROOT
ATOM      1  N   UNL     1       4.518   5.215  17.196  0.00  0.00    +0.000 N 
ATOM      2  C   UNL     1       4.255   3.917  16.737  0.00  0.00    +0.000 A 
ATOM      3  N   UNL     1       5.321   3.452  16.102  0.00  0.00    +0.000 NA
ATOM      4  N   UNL     1       6.309   4.382  16.159  0.00  0.00    +0.000 NA
ATOM      5  C   UNL     1       5.849   5.414  16.826  0.00  0.00    +0.000 A 
ENDROOT
BRANCH   1  10
ATOM      6  C   UNL     1       1.318   9.102  19.975  0.00  0.00    +0.000 C 
ATOM      7  C   UNL     1       2.060   8.037  19.224  0.00  0.00    +0.000 A 
ATOM      8  C   UNL     1       2.402   6.828  19.835  0.00  0.00    +0.000 A 
ATOM      9  C   UNL     1       3.192   5.885  19.164  0.00  0.00    +0.000 A 
ATOM     10  C   UNL     1       3.638   6.126  17.860  0.00  0.00    +0.000 A 
ATOM     11  C   UNL     1       3.228   7.310  17.228  0.00  0.00    +0.000 A 
ATOM     12  C   UNL     1       2.470   8.265  17.912  0.00  0.00    +0.000 A 
ENDBRANCH   1  10
BRANCH   2  13
ATOM     13  C   UNL     1       2.945   3.194  16.774  0.00  0.00    +0.000 C 
BRANCH  13  14
ATOM     14  O   UNL     1       3.056   2.165  17.763  0.00  0.00    +0.000 OA
BRANCH  14  15
ATOM     15  C   UNL     1       2.598   2.473  19.018  0.00  0.00    +0.000 A 
ATOM     16  C   UNL     1       1.255   2.858  19.083  0.00  0.00    +0.000 A 
ATOM     17  C   UNL     1       0.663   3.179  20.309  0.00  0.00    +0.000 A 
ATOM     18  C   UNL     1       1.408   3.098  21.483  0.00  0.00    +0.000 A 
ATOM     19  C   UNL     1       2.741   2.691  21.428  0.00  0.00    +0.000 A 
ATOM     20  C   UNL     1       3.335   2.376  20.199  0.00  0.00    +0.000 A 
ENDBRANCH  14  15
ENDBRANCH  13  14
ENDBRANCH   2  13
BRANCH   5  21
ATOM     21  S   UNL     1       6.858   6.764  17.246  0.00  0.00    +0.000 S 
BRANCH  21  22
ATOM     22  C   UNL     1       7.065   6.579  19.036  0.00  0.00    +0.000 C 
BRANCH  22  23
ATOM     23  C   UNL     1       7.934   5.396  19.408  0.00  0.00    +0.000 C 
ATOM     24  O   UNL     1       8.343   4.581  18.595  0.00  0.00    +0.000 OA
BRANCH  23  25
ATOM     25  O   UNL     1       8.253   5.315  20.720  0.00  0.00    +0.000 OA
ATOM     26  H   UNL     1       7.761   4.624  21.221  0.00  0.00    +0.000 HD
ENDBRANCH  23  25
ENDBRANCH  22  23
ENDBRANCH  21  22
ENDBRANCH   5  21
TORSDOF 8
ENDMDL
MODEL 6
REMARK VINA RESULT:      -7.1      1.674      2.019
REMARK  Name = 
REMARK  9 active torsions:
REMARK  status: ('A' for Active; 'I' for Inactive)
REMARK    1  A    between atoms: C_1  and  C_2
REMARK    2  A    between atoms: C_5  and  N_6
REMARK    3  A    between atoms: C_7  and  C_8
REMARK    4  A    between atoms: C_8  and  O_9
REMARK    5  A    between atoms: O_9  and  C_10
REMARK    6  A    between atoms: C_18  and  S_19
REMARK    7  A    between atoms: S_19  and  C_20
REMARK    8  A    between atoms: C_20  and  C_21
REMARK    9  A    between atoms: C_21  and  O_23
REMARK                            x       y       z     vdW  Elec       q    Type
REMARK                         _______ _______ _______ _____ _____    ______ ____
ROOT
ATOM      1  N   UNL     1       4.938   5.114  17.610  0.00  0.00    +0.000 N 
ATOM      2  C   UNL     1       4.605   3.969  16.875  0.00  0.00    +0.000 A 
ATOM      3  N   UNL     1       5.708   3.438  16.366  0.00  0.00    +0.000 NA
ATOM      4  N   UNL     1       6.777   4.169  16.775  0.00  0.00    +0.000 NA
ATOM      5  C   UNL     1       6.331   5.145  17.530  0.00  0.00    +0.000 A 
ENDROOT
BRANCH   1  10
ATOM      6  C   UNL     1       1.122   8.613  20.115  0.00  0.00    +0.000 C 
ATOM      7  C   UNL     1       2.196   7.766  19.498  0.00  0.00    +0.000 A 
ATOM      8  C   UNL     1       2.722   8.070  18.241  0.00  0.00    +0.000 A 
ATOM      9  C   UNL     1       3.642   7.212  17.623  0.00  0.00    +0.000 A 
ATOM     10  C   UNL     1       4.069   6.044  18.264  0.00  0.00    +0.000 A 
ATOM     11  C   UNL     1       3.591   5.786  19.558  0.00  0.00    +0.000 A 
ATOM     12  C   UNL     1       2.646   6.623  20.157  0.00  0.00    +0.000 A 
ENDBRANCH   1  10
BRANCH   2  13
ATOM     13  C   UNL     1       3.231   3.479  16.539  0.00  0.00    +0.000 C 
BRANCH  13  14
ATOM     14  O   UNL     1       2.969   2.346  17.373  0.00  0.00    +0.000 OA
BRANCH  14  15
ATOM     15  C   UNL     1       2.511   2.612  18.637  0.00  0.00    +0.000 A 
ATOM     16  C   UNL     1       1.249   3.213  18.698  0.00  0.00    +0.000 A 
ATOM     17  C   UNL     1       0.662   3.518  19.930  0.00  0.00    +0.000 A 
ATOM     18  C   UNL     1       1.327   3.206  21.113  0.00  0.00    +0.000 A 
ATOM     19  C   UNL     1       2.575   2.585  21.060  0.00  0.00    +0.000 A 
ATOM     20  C   UNL     1       3.165   2.286  19.825  0.00  0.00    +0.000 A 
ENDBRANCH  14  15
ENDBRANCH  13  14
ENDBRANCH   2  13
BRANCH   5  21
ATOM     21  S   UNL     1       7.402   6.222  18.372  0.00  0.00    +0.000 S 
BRANCH  21  22
ATOM     22  C   UNL     1       7.303   7.744  17.395  0.00  0.00    +0.000 C 
BRANCH  22  23
ATOM     23  C   UNL     1       8.101   8.881  17.998  0.00  0.00    +0.000 C 
ATOM     24  O   UNL     1       8.070  10.025  17.571  0.00  0.00    +0.000 OA
BRANCH  23  25
ATOM     25  O   UNL     1       8.846   8.544  19.075  0.00  0.00    +0.000 OA
ATOM     26  H   UNL     1       8.557   8.956  19.922  0.00  0.00    +0.000 HD
ENDBRANCH  23  25
ENDBRANCH  22  23
ENDBRANCH  21  22
ENDBRANCH   5  21
TORSDOF 8
ENDMDL
MODEL 7
REMARK VINA RESULT:      -7.0      1.137      1.579
REMARK  Name = 
REMARK  9 active torsions:
REMARK  status: ('A' for Active; 'I' for Inactive)
REMARK    1  A    between atoms: C_1  and  C_2
REMARK    2  A    between atoms: C_5  and  N_6
REMARK    3  A    between atoms: C_7  and  C_8
REMARK    4  A    between atoms: C_8  and  O_9
REMARK    5  A    between atoms: O_9  and  C_10
REMARK    6  A    between atoms: C_18  and  S_19
REMARK    7  A    between atoms: S_19  and  C_20
REMARK    8  A    between atoms: C_20  and  C_21
REMARK    9  A    between atoms: C_21  and  O_23
REMARK                            x       y       z     vdW  Elec       q    Type
REMARK                         _______ _______ _______ _____ _____    ______ ____
ROOT
ATOM      1  N   UNL     1       3.314   6.052  17.821  0.00  0.00    +0.000 N 
ATOM      2  C   UNL     1       2.827   4.831  17.337  0.00  0.00    +0.000 A 
ATOM      3  N   UNL     1       3.785   4.211  16.664  0.00  0.00    +0.000 NA
ATOM      4  N   UNL     1       4.917   4.960  16.719  0.00  0.00    +0.000 NA
ATOM      5  C   UNL     1       4.651   6.036  17.423  0.00  0.00    +0.000 A 
ENDROOT
BRANCH   1  10
ATOM      6  C   UNL     1       0.148   9.963  20.606  0.00  0.00    +0.000 C 
ATOM      7  C   UNL     1       1.061   9.005  19.900  0.00  0.00    +0.000 A 
ATOM      8  C   UNL     1       1.413   9.195  18.562  0.00  0.00    +0.000 A 
ATOM      9  C   UNL     1       2.174   8.237  17.878  0.00  0.00    +0.000 A 
ATOM     10  C   UNL     1       2.614   7.079  18.529  0.00  0.00    +0.000 A 
ATOM     11  C   UNL     1       2.318   6.933  19.892  0.00  0.00    +0.000 A 
ATOM     12  C   UNL     1       1.529   7.871  20.563  0.00  0.00    +0.000 A 
ENDBRANCH   1  10
BRANCH   2  13
ATOM     13  C   UNL     1       1.414   4.337  17.390  0.00  0.00    +0.000 C 
BRANCH  13  14
ATOM     14  O   UNL     1       1.450   3.004  17.911  0.00  0.00    +0.000 OA
BRANCH  14  15
ATOM     15  C   UNL     1       1.885   2.867  19.204  0.00  0.00    +0.000 A 
ATOM     16  C   UNL     1       0.949   3.208  20.185  0.00  0.00    +0.000 A 
ATOM     17  C   UNL     1       1.264   3.093  21.543  0.00  0.00    +0.000 A 
ATOM     18  C   UNL     1       2.514   2.616  21.928  0.00  0.00    +0.000 A 
ATOM     19  C   UNL     1       3.444   2.250  20.955  0.00  0.00    +0.000 A 
ATOM     20  C   UNL     1       3.130   2.372  19.595  0.00  0.00    +0.000 A 
ENDBRANCH  14  15
ENDBRANCH  13  14
ENDBRANCH   2  13
BRANCH   5  21
ATOM     21  S   UNL     1       5.882   7.184  17.850  0.00  0.00    +0.000 S 
BRANCH  21  22
ATOM     22  C   UNL     1       7.404   6.385  17.277  0.00  0.00    +0.000 C 
BRANCH  22  23
ATOM     23  C   UNL     1       7.796   5.194  18.124  0.00  0.00    +0.000 C 
ATOM     24  O   UNL     1       7.866   5.229  19.343  0.00  0.00    +0.000 OA
BRANCH  23  25
ATOM     25  O   UNL     1       8.044   4.059  17.430  0.00  0.00    +0.000 OA
ATOM     26  H   UNL     1       7.476   3.293  17.676  0.00  0.00    +0.000 HD
ENDBRANCH  23  25
ENDBRANCH  22  23
ENDBRANCH  21  22
ENDBRANCH   5  21
TORSDOF 8
ENDMDL
MODEL 8
REMARK VINA RESULT:      -6.9      1.643      1.998
REMARK  Name = 
REMARK  9 active torsions:
REMARK  status: ('A' for Active; 'I' for Inactive)
REMARK    1  A    between atoms: C_1  and  C_2
REMARK    2  A    between atoms: C_5  and  N_6
REMARK    3  A    between atoms: C_7  and  C_8
REMARK    4  A    between atoms: C_8  and  O_9
REMARK    5  A    between atoms: O_9  and  C_10
REMARK    6  A    between atoms: C_18  and  S_19
REMARK    7  A    between atoms: S_19  and  C_20
REMARK    8  A    between atoms: C_20  and  C_21
REMARK    9  A    between atoms: C_21  and  O_23
REMARK                            x       y       z     vdW  Elec       q    Type
REMARK                         _______ _______ _______ _____ _____    ______ ____
ROOT
ATOM      1  N   UNL     1       4.729   5.085  17.720  0.00  0.00    +0.000 N 
ATOM      2  C   UNL     1       4.486   3.928  16.968  0.00  0.00    +0.000 A 
ATOM      3  N   UNL     1       5.633   3.462  16.496  0.00  0.00    +0.000 NA
ATOM      4  N   UNL     1       6.646   4.248  16.946  0.00  0.00    +0.000 NA
ATOM      5  C   UNL     1       6.120   5.192  17.690  0.00  0.00    +0.000 A 
ENDROOT
BRANCH   1  10
ATOM      6  C   UNL     1       1.268   8.851  20.348  0.00  0.00    +0.000 C 
ATOM      7  C   UNL     1       2.082   7.811  19.638  0.00  0.00    +0.000 A 
ATOM      8  C   UNL     1       2.493   6.646  20.290  0.00  0.00    +0.000 A 
ATOM      9  C   UNL     1       3.346   5.733  19.655  0.00  0.00    +0.000 A 
ATOM     10  C   UNL     1       3.788   5.960  18.348  0.00  0.00    +0.000 A 
ATOM     11  C   UNL     1       3.311   7.096  17.676  0.00  0.00    +0.000 A 
ATOM     12  C   UNL     1       2.490   8.023  18.322  0.00  0.00    +0.000 A 
ENDBRANCH   1  10
BRANCH   2  13
ATOM     13  C   UNL     1       3.154   3.365  16.581  0.00  0.00    +0.000 C 
BRANCH  13  14
ATOM     14  O   UNL     1       2.915   2.227  17.415  0.00  0.00    +0.000 OA
BRANCH  14  15
ATOM     15  C   UNL     1       2.337   2.476  18.634  0.00  0.00    +0.000 A 
ATOM     16  C   UNL     1       3.145   2.201  19.742  0.00  0.00    +0.000 A 
ATOM     17  C   UNL     1       2.679   2.430  21.040  0.00  0.00    +0.000 A 
ATOM     18  C   UNL     1       1.404   2.956  21.238  0.00  0.00    +0.000 A 
ATOM     19  C   UNL     1       0.602   3.255  20.137  0.00  0.00    +0.000 A 
ATOM     20  C   UNL     1       1.068   3.018  18.837  0.00  0.00    +0.000 A 
ENDBRANCH  14  15
ENDBRANCH  13  14
ENDBRANCH   2  13
BRANCH   5  21
ATOM     21  S   UNL     1       7.101   6.320  18.574  0.00  0.00    +0.000 S 
BRANCH  21  22
ATOM     22  C   UNL     1       7.287   7.699  17.413  0.00  0.00    +0.000 C 
BRANCH  22  23
ATOM     23  C   UNL     1       8.102   8.840  17.984  0.00  0.00    +0.000 C 
ATOM     24  O   UNL     1       8.053   9.982  17.554  0.00  0.00    +0.000 OA
BRANCH  23  25
ATOM     25  O   UNL     1       8.885   8.508  19.037  0.00  0.00    +0.000 OA
ATOM     26  H   UNL     1       9.017   9.229  19.695  0.00  0.00    +0.000 HD
ENDBRANCH  23  25
ENDBRANCH  22  23
ENDBRANCH  21  22
ENDBRANCH   5  21
TORSDOF 8
ENDMDL
MODEL 9
REMARK VINA RESULT:      -6.9      2.438      5.290
REMARK  Name = 
REMARK  9 active torsions:
REMARK  status: ('A' for Active; 'I' for Inactive)
REMARK    1  A    between atoms: C_1  and  C_2
REMARK    2  A    between atoms: C_5  and  N_6
REMARK    3  A    between atoms: C_7  and  C_8
REMARK    4  A    between atoms: C_8  and  O_9
REMARK    5  A    between atoms: O_9  and  C_10
REMARK    6  A    between atoms: C_18  and  S_19
REMARK    7  A    between atoms: S_19  and  C_20
REMARK    8  A    between atoms: C_20  and  C_21
REMARK    9  A    between atoms: C_21  and  O_23
REMARK                            x       y       z     vdW  Elec       q    Type
REMARK                         _______ _______ _______ _____ _____    ______ ____
ROOT
ATOM      1  N   UNL     1       3.657   5.077  19.470  0.00  0.00    +0.000 N 
ATOM      2  C   UNL     1       4.976   4.692  19.198  0.00  0.00    +0.000 A 
ATOM      3  N   UNL     1       5.199   3.492  19.715  0.00  0.00    +0.000 NA
ATOM      4  N   UNL     1       4.053   3.040  20.288  0.00  0.00    +0.000 NA
ATOM      5  C   UNL     1       3.132   3.960  20.123  0.00  0.00    +0.000 A 
ENDROOT
BRANCH   1  10
ATOM      6  C   UNL     1       1.394  10.252  18.390  0.00  0.00    +0.000 C 
ATOM      7  C   UNL     1       1.889   8.859  18.641  0.00  0.00    +0.000 A 
ATOM      8  C   UNL     1       1.640   8.212  19.853  0.00  0.00    +0.000 A 
ATOM      9  C   UNL     1       2.200   6.956  20.123  0.00  0.00    +0.000 A 
ATOM     10  C   UNL     1       3.005   6.316  19.175  0.00  0.00    +0.000 A 
ATOM     11  C   UNL     1       3.189   6.941  17.932  0.00  0.00    +0.000 A 
ATOM     12  C   UNL     1       2.659   8.208  17.678  0.00  0.00    +0.000 A 
ENDBRANCH   1  10
BRANCH   2  13
ATOM     13  C   UNL     1       6.054   5.531  18.585  0.00  0.00    +0.000 C 
BRANCH  13  14
ATOM     14  O   UNL     1       6.885   4.656  17.815  0.00  0.00    +0.000 OA
BRANCH  14  15
ATOM     15  C   UNL     1       6.548   4.502  16.494  0.00  0.00    +0.000 A 
ATOM     16  C   UNL     1       7.431   5.090  15.583  0.00  0.00    +0.000 A 
ATOM     17  C   UNL     1       7.209   4.987  14.206  0.00  0.00    +0.000 A 
ATOM     18  C   UNL     1       6.110   4.276  13.730  0.00  0.00    +0.000 A 
ATOM     19  C   UNL     1       5.239   3.666  14.633  0.00  0.00    +0.000 A 
ATOM     20  C   UNL     1       5.458   3.776  16.012  0.00  0.00    +0.000 A 
ENDBRANCH  14  15
ENDBRANCH  13  14
ENDBRANCH   2  13
BRANCH   5  21
ATOM     21  S   UNL     1       1.479   3.702  20.588  0.00  0.00    +0.000 S 
BRANCH  21  22
ATOM     22  C   UNL     1       0.843   2.639  19.267  0.00  0.00    +0.000 C 
BRANCH  22  23
ATOM     23  C   UNL     1       1.489   2.920  17.926  0.00  0.00    +0.000 C 
ATOM     24  O   UNL     1       2.313   2.182  17.409  0.00  0.00    +0.000 OA
BRANCH  23  25
ATOM     25  O   UNL     1       1.066   4.052  17.318  0.00  0.00    +0.000 OA
ATOM     26  H   UNL     1       0.101   4.230  17.403  0.00  0.00    +0.000 HD
ENDBRANCH  23  25
ENDBRANCH  22  23
ENDBRANCH  21  22
ENDBRANCH   5  21
TORSDOF 8
ENDMDL
