MODEL 1
REMARK VINA RESULT:      -7.2      0.000      0.000
REMARK  Name = 
REMARK  5 active torsions:
REMARK  status: ('A' for Active; 'I' for Inactive)
REMARK    1  A    between atoms: C_1  and  C_2
REMARK    2  A    between atoms: C_4  and  N_5
REMARK    3  A    between atoms: N_7  and  C_8
REMARK    4  A    between atoms: C_13  and  N_14
REMARK    5  A    between atoms: C_21  and  C_22
REMARK                            x       y       z     vdW  Elec       q    Type
REMARK                         _______ _______ _______ _____ _____    ______ ____
ROOT
ATOM      1  N   UNL     1      -1.973  11.971  19.007  0.00  0.00    +0.000 N 
ATOM      2  C   UNL     1      -3.153  11.747  18.357  0.00  0.00    +0.000 A 
ATOM      3  N   UNL     1      -3.251  11.338  17.103  0.00  0.00    +0.000 NA
ATOM      4  C   UNL     1      -4.576  11.263  16.815  0.00  0.00    +0.000 A 
ATOM      5  C   UNL     1      -5.330  11.639  17.894  0.00  0.00    +0.000 A 
ATOM      6  C   UNL     1      -6.709  11.738  18.112  0.00  0.00    +0.000 A 
ATOM      7  C   UNL     1      -7.145  12.158  19.299  0.00  0.00    +0.000 A 
ATOM      8  C   UNL     1      -6.140  12.520  20.359  0.00  0.00    +0.000 A 
ATOM      9  N   UNL     1      -4.835  12.420  20.195  0.00  0.00    +0.000 NA
ATOM     10  N   UNL     1      -4.448  11.967  18.912  0.00  0.00    +0.000 N 
ATOM     11  H   UNL     1      -1.993  12.136  20.005  0.00  0.00    +0.000 HD
ENDROOT
BRANCH   8  12
ATOM     12  C   UNL     1      -6.847  13.014  21.630  0.00  0.00    +0.000 A 
ATOM     13  N   UNL     1      -6.918  12.059  22.621  0.00  0.00    +0.000 NA
ATOM     14  C   UNL     1      -7.421  12.408  23.831  0.00  0.00    +0.000 A 
ATOM     15  C   UNL     1      -7.881  13.672  24.129  0.00  0.00    +0.000 A 
ATOM     16  C   UNL     1      -7.809  14.635  23.124  0.00  0.00    +0.000 A 
ATOM     17  C   UNL     1      -7.283  14.316  21.856  0.00  0.00    +0.000 A 
ATOM     18 CL   UNL     1      -7.127  15.594  20.717  0.00  0.00    +0.000 Cl
ENDBRANCH   8  12
BRANCH   1  24
ATOM     19  C   UNL     1       0.517  12.083  18.948  0.00  0.00    +0.000 A 
ATOM     20  C   UNL     1       1.730  11.407  18.719  0.00  0.00    +0.000 A 
ATOM     21  C   UNL     1       1.721  10.122  18.207  0.00  0.00    +0.000 A 
ATOM     22  N   UNL     1       0.611   9.473  17.847  0.00  0.00    +0.000 NA
ATOM     23  C   UNL     1      -0.569  10.132  18.069  0.00  0.00    +0.000 A 
ATOM     24  C   UNL     1      -0.700  11.412  18.634  0.00  0.00    +0.000 A 
BRANCH  19  30
ATOM     25  C   UNL     1      -0.533  13.622  22.290  0.00  0.00    +0.000 C 
ATOM     26  C   UNL     1       0.617  14.444  21.687  0.00  0.00    +0.000 C 
ATOM     27  C   UNL     1       0.180  15.749  20.986  0.00  0.00    +0.000 C 
ATOM     28  C   UNL     1      -0.617  15.547  19.681  0.00  0.00    +0.000 C 
ATOM     29  C   UNL     1       0.127  14.528  18.763  0.00  0.00    +0.000 C 
ATOM     30  N   UNL     1       0.512  13.340  19.550  0.00  0.00    +0.000 N 
ATOM     31  C   UNL     1       1.407  13.605  20.679  0.00  0.00    +0.000 C 
BRANCH  28  32
ATOM     32  N   UNL     1      -2.001  15.181  20.018  0.00  0.00    +0.000 NA
ATOM     33  H   UNL     1      -2.300  14.461  19.367  0.00  0.00    +0.000 HD
ATOM     34  H   UNL     1      -2.627  15.963  19.825  0.00  0.00    +0.000 HD
ENDBRANCH  28  32
ENDBRANCH  19  30
ENDBRANCH   1  24
TORSDOF 4
ENDMDL
MODEL 2
REMARK VINA RESULT:      -7.1      4.993      9.882
REMARK  Name = 
REMARK  5 active torsions:
REMARK  status: ('A' for Active; 'I' for Inactive)
REMARK    1  A    between atoms: C_1  and  C_2
REMARK    2  A    between atoms: C_4  and  N_5
REMARK    3  A    between atoms: N_7  and  C_8
REMARK    4  A    between atoms: C_13  and  N_14
REMARK    5  A    between atoms: C_21  and  C_22
REMARK                            x       y       z     vdW  Elec       q    Type
REMARK                         _______ _______ _______ _____ _____    ______ ____
ROOT
ATOM      1  N   UNL     1       1.165   9.496  18.168  0.00  0.00    +0.000 N 
ATOM      2  C   UNL     1       1.450   8.523  19.082  0.00  0.00    +0.000 A 
ATOM      3  N   UNL     1       0.901   8.439  20.282  0.00  0.00    +0.000 NA
ATOM      4  C   UNL     1       1.458   7.364  20.898  0.00  0.00    +0.000 A 
ATOM      5  C   UNL     1       2.381   6.763  20.084  0.00  0.00    +0.000 A 
ATOM      6  C   UNL     1       3.217   5.651  20.241  0.00  0.00    +0.000 A 
ATOM      7  C   UNL     1       4.035   5.315  19.245  0.00  0.00    +0.000 A 
ATOM      8  C   UNL     1       4.040   6.150  17.992  0.00  0.00    +0.000 A 
ATOM      9  N   UNL     1       3.253   7.191  17.803  0.00  0.00    +0.000 NA
ATOM     10  N   UNL     1       2.412   7.486  18.901  0.00  0.00    +0.000 N 
ATOM     11  H   UNL     1       1.520   9.395  17.225  0.00  0.00    +0.000 HD
ENDROOT
BRANCH   8  12
ATOM     12  C   UNL     1       5.077   5.618  16.991  0.00  0.00    +0.000 A 
ATOM     13  N   UNL     1       4.641   4.517  16.287  0.00  0.00    +0.000 NA
ATOM     14  C   UNL     1       5.422   4.022  15.295  0.00  0.00    +0.000 A 
ATOM     15  C   UNL     1       6.647   4.554  14.953  0.00  0.00    +0.000 A 
ATOM     16  C   UNL     1       7.086   5.666  15.669  0.00  0.00    +0.000 A 
ATOM     17  C   UNL     1       6.298   6.218  16.700  0.00  0.00    +0.000 A 
ATOM     18 CL   UNL     1       6.866   7.656  17.450  0.00  0.00    +0.000 Cl
ENDBRANCH   8  12
BRANCH   1  24
ATOM     19  C   UNL     1      -0.006  11.661  18.566  0.00  0.00    +0.000 A 
ATOM     20  C   UNL     1      -1.160  12.440  18.361  0.00  0.00    +0.000 A 
ATOM     21  C   UNL     1      -2.277  11.881  17.767  0.00  0.00    +0.000 A 
ATOM     22  N   UNL     1      -2.366  10.598  17.413  0.00  0.00    +0.000 NA
ATOM     23  C   UNL     1      -1.244   9.838  17.614  0.00  0.00    +0.000 A 
ATOM     24  C   UNL     1      -0.030  10.297  18.152  0.00  0.00    +0.000 A 
BRANCH  19  30
ATOM     25  C   UNL     1       0.934  14.537  20.909  0.00  0.00    +0.000 C 
ATOM     26  C   UNL     1       2.020  13.451  20.968  0.00  0.00    +0.000 C 
ATOM     27  C   UNL     1       3.286  13.756  20.139  0.00  0.00    +0.000 C 
ATOM     28  C   UNL     1       3.079  13.736  18.611  0.00  0.00    +0.000 C 
ATOM     29  C   UNL     1       2.325  12.432  18.200  0.00  0.00    +0.000 C 
ATOM     30  N   UNL     1       1.155  12.238  19.078  0.00  0.00    +0.000 N 
ATOM     31  C   UNL     1       1.461  12.104  20.504  0.00  0.00    +0.000 C 
BRANCH  28  32
ATOM     32  N   UNL     1       2.422  14.986  18.200  0.00  0.00    +0.000 NA
ATOM     33  H   UNL     1       2.880  15.752  18.686  0.00  0.00    +0.000 HD
ATOM     34  H   UNL     1       1.465  15.010  18.547  0.00  0.00    +0.000 HD
ENDBRANCH  28  32
ENDBRANCH  19  30
ENDBRANCH   1  24
TORSDOF 4
ENDMDL
MODEL 3
REMARK VINA RESULT:      -7.1      4.926      9.776
REMARK  Name = 
REMARK  5 active torsions:
REMARK  status: ('A' for Active; 'I' for Inactive)
REMARK    1  A    between atoms: C_1  and  C_2
REMARK    2  A    between atoms: C_4  and  N_5
REMARK    3  A    between atoms: N_7  and  C_8
REMARK    4  A    between atoms: C_13  and  N_14
REMARK    5  A    between atoms: C_21  and  C_22
REMARK                            x       y       z     vdW  Elec       q    Type
REMARK                         _______ _______ _______ _____ _____    ______ ____
ROOT
ATOM      1  N   UNL     1       1.037   9.634  18.361  0.00  0.00    +0.000 N 
ATOM      2  C   UNL     1       1.293   8.670  19.293  0.00  0.00    +0.000 A 
ATOM      3  N   UNL     1       0.749   8.632  20.499  0.00  0.00    +0.000 NA
ATOM      4  C   UNL     1       1.271   7.551  21.134  0.00  0.00    +0.000 A 
ATOM      5  C   UNL     1       2.166   6.900  20.328  0.00  0.00    +0.000 A 
ATOM      6  C   UNL     1       2.961   5.761  20.503  0.00  0.00    +0.000 A 
ATOM      7  C   UNL     1       3.760   5.375  19.509  0.00  0.00    +0.000 A 
ATOM      8  C   UNL     1       3.787   6.182  18.239  0.00  0.00    +0.000 A 
ATOM      9  N   UNL     1       3.038   7.247  18.033  0.00  0.00    +0.000 NA
ATOM     10  N   UNL     1       2.215   7.595  19.129  0.00  0.00    +0.000 N 
ATOM     11  H   UNL     1       1.382   9.500  17.418  0.00  0.00    +0.000 HD
ENDROOT
BRANCH   8  12
ATOM     12  C   UNL     1       4.797   5.591  17.244  0.00  0.00    +0.000 A 
ATOM     13  N   UNL     1       5.946   6.342  17.122  0.00  0.00    +0.000 NA
ATOM     14  C   UNL     1       6.961   5.867  16.358  0.00  0.00    +0.000 A 
ATOM     15  C   UNL     1       6.906   4.669  15.678  0.00  0.00    +0.000 A 
ATOM     16  C   UNL     1       5.742   3.913  15.802  0.00  0.00    +0.000 A 
ATOM     17  C   UNL     1       4.669   4.366  16.596  0.00  0.00    +0.000 A 
ATOM     18 CL   UNL     1       3.322   3.316  16.783  0.00  0.00    +0.000 Cl
ENDBRANCH   8  12
BRANCH   1  24
ATOM     19  C   UNL     1      -0.047  11.855  18.693  0.00  0.00    +0.000 A 
ATOM     20  C   UNL     1      -1.175  12.667  18.479  0.00  0.00    +0.000 A 
ATOM     21  C   UNL     1      -2.323  12.128  17.928  0.00  0.00    +0.000 A 
ATOM     22  N   UNL     1      -2.466  10.836  17.627  0.00  0.00    +0.000 NA
ATOM     23  C   UNL     1      -1.368  10.043  17.838  0.00  0.00    +0.000 A 
ATOM     24  C   UNL     1      -0.128  10.477  18.335  0.00  0.00    +0.000 A 
BRANCH  19  30
ATOM     25  C   UNL     1       1.041  14.709  20.998  0.00  0.00    +0.000 C 
ATOM     26  C   UNL     1       2.106  13.602  21.017  0.00  0.00    +0.000 C 
ATOM     27  C   UNL     1       3.345  13.882  20.139  0.00  0.00    +0.000 C 
ATOM     28  C   UNL     1       3.079  13.867  18.620  0.00  0.00    +0.000 C 
ATOM     29  C   UNL     1       2.284  12.578  18.239  0.00  0.00    +0.000 C 
ATOM     30  N   UNL     1       1.145  12.408  19.160  0.00  0.00    +0.000 N 
ATOM     31  C   UNL     1       1.502  12.267  20.574  0.00  0.00    +0.000 C 
BRANCH  28  32
ATOM     32  N   UNL     1       2.434  15.130  18.234  0.00  0.00    +0.000 NA
ATOM     33  H   UNL     1       2.397  15.724  19.057  0.00  0.00    +0.000 HD
ATOM     34  H   UNL     1       1.454  14.967  18.004  0.00  0.00    +0.000 HD
ENDBRANCH  28  32
ENDBRANCH  19  30
ENDBRANCH   1  24
TORSDOF 4
ENDMDL
MODEL 4
REMARK VINA RESULT:      -7.1      4.103      9.057
REMARK  Name = 
REMARK  5 active torsions:
REMARK  status: ('A' for Active; 'I' for Inactive)
REMARK    1  A    between atoms: C_1  and  C_2
REMARK    2  A    between atoms: C_4  and  N_5
REMARK    3  A    between atoms: N_7  and  C_8
REMARK    4  A    between atoms: C_13  and  N_14
REMARK    5  A    between atoms: C_21  and  C_22
REMARK                            x       y       z     vdW  Elec       q    Type
REMARK                         _______ _______ _______ _____ _____    ______ ____
ROOT
ATOM      1  N   UNL     1       0.431  13.932  20.867  0.00  0.00    +0.000 N 
ATOM      2  C   UNL     1       0.442  14.920  19.925  0.00  0.00    +0.000 A 
ATOM      3  N   UNL     1      -0.641  15.506  19.443  0.00  0.00    +0.000 NA
ATOM      4  C   UNL     1      -0.223  16.405  18.514  0.00  0.00    +0.000 A 
ATOM      5  C   UNL     1       1.140  16.383  18.396  0.00  0.00    +0.000 A 
ATOM      6  C   UNL     1       2.045  17.094  17.598  0.00  0.00    +0.000 A 
ATOM      7  C   UNL     1       3.346  16.829  17.708  0.00  0.00    +0.000 A 
ATOM      8  C   UNL     1       3.796  15.769  18.677  0.00  0.00    +0.000 A 
ATOM      9  N   UNL     1       2.974  15.095  19.457  0.00  0.00    +0.000 NA
ATOM     10  N   UNL     1       1.611  15.430  19.287  0.00  0.00    +0.000 N 
ATOM     11  H   UNL     1       1.310  13.649  21.283  0.00  0.00    +0.000 HD
ENDROOT
BRANCH   8  12
ATOM     12  C   UNL     1       5.321  15.595  18.620  0.00  0.00    +0.000 A 
ATOM     13  N   UNL     1       5.721  14.539  17.830  0.00  0.00    +0.000 NA
ATOM     14  C   UNL     1       7.045  14.350  17.610  0.00  0.00    +0.000 A 
ATOM     15  C   UNL     1       8.028  15.154  18.145  0.00  0.00    +0.000 A 
ATOM     16  C   UNL     1       7.621  16.220  18.945  0.00  0.00    +0.000 A 
ATOM     17  C   UNL     1       6.253  16.457  19.188  0.00  0.00    +0.000 A 
ATOM     18 CL   UNL     1       5.840  17.861  20.090  0.00  0.00    +0.000 Cl
ENDBRANCH   8  12
BRANCH   1  24
ATOM     19  C   UNL     1      -1.554  12.595  21.565  0.00  0.00    +0.000 A 
ATOM     20  C   UNL     1      -2.473  12.279  22.582  0.00  0.00    +0.000 A 
ATOM     21  C   UNL     1      -2.476  13.002  23.762  0.00  0.00    +0.000 A 
ATOM     22  N   UNL     1      -1.684  14.051  23.993  0.00  0.00    +0.000 NA
ATOM     23  C   UNL     1      -0.790  14.360  23.001  0.00  0.00    +0.000 A 
ATOM     24  C   UNL     1      -0.646  13.671  21.785  0.00  0.00    +0.000 A 
BRANCH  19  30
ATOM     25  C   UNL     1       1.151  11.289  19.194  0.00  0.00    +0.000 C 
ATOM     26  C   UNL     1      -0.038  10.315  19.202  0.00  0.00    +0.000 C 
ATOM     27  C   UNL     1      -0.989  10.446  17.992  0.00  0.00    +0.000 C 
ATOM     28  C   UNL     1      -1.810  11.750  17.953  0.00  0.00    +0.000 C 
ATOM     29  C   UNL     1      -2.481  11.991  19.342  0.00  0.00    +0.000 C 
ATOM     30  N   UNL     1      -1.480  11.814  20.413  0.00  0.00    +0.000 N 
ATOM     31  C   UNL     1      -0.866  10.486  20.478  0.00  0.00    +0.000 C 
BRANCH  28  32
ATOM     32  N   UNL     1      -0.948  12.845  17.483  0.00  0.00    +0.000 NA
ATOM     33  H   UNL     1       0.005  12.495  17.443  0.00  0.00    +0.000 HD
ATOM     34  H   UNL     1      -0.909  13.586  18.183  0.00  0.00    +0.000 HD
ENDBRANCH  28  32
ENDBRANCH  19  30
ENDBRANCH   1  24
TORSDOF 4
ENDMDL
MODEL 5
REMARK VINA RESULT:      -7.0      2.544      3.762
REMARK  Name = 
REMARK  5 active torsions:
REMARK  status: ('A' for Active; 'I' for Inactive)
REMARK    1  A    between atoms: C_1  and  C_2
REMARK    2  A    between atoms: C_4  and  N_5
REMARK    3  A    between atoms: N_7  and  C_8
REMARK    4  A    between atoms: C_13  and  N_14
REMARK    5  A    between atoms: C_21  and  C_22
REMARK                            x       y       z     vdW  Elec       q    Type
REMARK                         _______ _______ _______ _____ _____    ______ ____
ROOT
ATOM      1  N   UNL     1      -4.032  12.858  19.397  0.00  0.00    +0.000 N 
ATOM      2  C   UNL     1      -5.142  12.558  20.134  0.00  0.00    +0.000 A 
ATOM      3  N   UNL     1      -5.936  11.525  19.904  0.00  0.00    +0.000 NA
ATOM      4  C   UNL     1      -6.936  11.584  20.822  0.00  0.00    +0.000 A 
ATOM      5  C   UNL     1      -6.782  12.673  21.638  0.00  0.00    +0.000 A 
ATOM      6  C   UNL     1      -7.524  13.177  22.713  0.00  0.00    +0.000 A 
ATOM      7  C   UNL     1      -7.113  14.294  23.312  0.00  0.00    +0.000 A 
ATOM      8  C   UNL     1      -5.874  14.980  22.803  0.00  0.00    +0.000 A 
ATOM      9  N   UNL     1      -5.141  14.524  21.806  0.00  0.00    +0.000 NA
ATOM     10  N   UNL     1      -5.637  13.335  21.223  0.00  0.00    +0.000 N 
ATOM     11  H   UNL     1      -3.405  13.577  19.737  0.00  0.00    +0.000 HD
ENDROOT
BRANCH   8  12
ATOM     12  C   UNL     1      -5.599  16.263  23.602  0.00  0.00    +0.000 A 
ATOM     13  N   UNL     1      -6.525  17.258  23.372  0.00  0.00    +0.000 NA
ATOM     14  C   UNL     1      -6.455  18.399  24.101  0.00  0.00    +0.000 A 
ATOM     15  C   UNL     1      -5.495  18.631  25.062  0.00  0.00    +0.000 A 
ATOM     16  C   UNL     1      -4.559  17.624  25.291  0.00  0.00    +0.000 A 
ATOM     17  C   UNL     1      -4.604  16.419  24.562  0.00  0.00    +0.000 A 
ATOM     18 CL   UNL     1      -3.482  15.190  24.990  0.00  0.00    +0.000 Cl
ENDBRANCH   8  12
BRANCH   1  24
ATOM     19  C   UNL     1      -1.957  11.577  18.881  0.00  0.00    +0.000 A 
ATOM     20  C   UNL     1      -1.358  10.534  18.151  0.00  0.00    +0.000 A 
ATOM     21  C   UNL     1      -2.076   9.874  17.169  0.00  0.00    +0.000 A 
ATOM     22  N   UNL     1      -3.318  10.201  16.811  0.00  0.00    +0.000 NA
ATOM     23  C   UNL     1      -3.901  11.218  17.520  0.00  0.00    +0.000 A 
ATOM     24  C   UNL     1      -3.304  11.928  18.576  0.00  0.00    +0.000 A 
BRANCH  19  30
ATOM     25  C   UNL     1      -2.415  12.068  22.648  0.00  0.00    +0.000 C 
ATOM     26  C   UNL     1      -0.916  12.062  22.311  0.00  0.00    +0.000 C 
ATOM     27  C   UNL     1      -0.263  13.459  22.241  0.00  0.00    +0.000 C 
ATOM     28  C   UNL     1      -0.723  14.330  21.054  0.00  0.00    +0.000 C 
ATOM     29  C   UNL     1      -0.642  13.502  19.733  0.00  0.00    +0.000 C 
ATOM     30  N   UNL     1      -1.274  12.184  19.934  0.00  0.00    +0.000 N 
ATOM     31  C   UNL     1      -0.667  11.354  20.976  0.00  0.00    +0.000 C 
BRANCH  28  32
ATOM     32  N   UNL     1      -2.050  14.887  21.355  0.00  0.00    +0.000 NA
ATOM     33  H   UNL     1      -2.540  14.222  21.946  0.00  0.00    +0.000 HD
ATOM     34  H   UNL     1      -2.615  14.926  20.507  0.00  0.00    +0.000 HD
ENDBRANCH  28  32
ENDBRANCH  19  30
ENDBRANCH   1  24
TORSDOF 4
ENDMDL
MODEL 6
REMARK VINA RESULT:      -7.0      4.584      8.374
REMARK  Name = 
REMARK  5 active torsions:
REMARK  status: ('A' for Active; 'I' for Inactive)
REMARK    1  A    between atoms: C_1  and  C_2
REMARK    2  A    between atoms: C_4  and  N_5
REMARK    3  A    between atoms: N_7  and  C_8
REMARK    4  A    between atoms: C_13  and  N_14
REMARK    5  A    between atoms: C_21  and  C_22
REMARK                            x       y       z     vdW  Elec       q    Type
REMARK                         _______ _______ _______ _____ _____    ______ ____
ROOT
ATOM      1  N   UNL     1       2.125   7.336  18.161  0.00  0.00    +0.000 N 
ATOM      2  C   UNL     1       1.704   8.170  19.156  0.00  0.00    +0.000 A 
ATOM      3  N   UNL     1       2.238   8.221  20.365  0.00  0.00    +0.000 NA
ATOM      4  C   UNL     1       1.530   9.143  21.070  0.00  0.00    +0.000 A 
ATOM      5  C   UNL     1       0.528   9.675  20.305  0.00  0.00    +0.000 A 
ATOM      6  C   UNL     1      -0.460  10.635  20.552  0.00  0.00    +0.000 A 
ATOM      7  C   UNL     1      -1.321  10.938  19.582  0.00  0.00    +0.000 A 
ATOM      8  C   UNL     1      -1.207  10.230  18.258  0.00  0.00    +0.000 A 
ATOM      9  N   UNL     1      -0.277   9.336  17.984  0.00  0.00    +0.000 NA
ATOM     10  N   UNL     1       0.600   9.068  19.060  0.00  0.00    +0.000 N 
ATOM     11  H   UNL     1       1.758   7.471  17.227  0.00  0.00    +0.000 HD
ENDROOT
BRANCH   8  12
ATOM     12  C   UNL     1      -2.313  10.695  17.299  0.00  0.00    +0.000 A 
ATOM     13  N   UNL     1      -2.184  10.180  16.027  0.00  0.00    +0.000 NA
ATOM     14  C   UNL     1      -3.160  10.428  15.119  0.00  0.00    +0.000 A 
ATOM     15  C   UNL     1      -4.281  11.183  15.391  0.00  0.00    +0.000 A 
ATOM     16  C   UNL     1      -4.407  11.704  16.677  0.00  0.00    +0.000 A 
ATOM     17  C   UNL     1      -3.420  11.460  17.654  0.00  0.00    +0.000 A 
ATOM     18 CL   UNL     1      -3.715  12.044  19.243  0.00  0.00    +0.000 Cl
ENDBRANCH   8  12
BRANCH   1  24
ATOM     19  C   UNL     1       3.623   5.369  18.486  0.00  0.00    +0.000 A 
ATOM     20  C   UNL     1       4.869   4.771  18.225  0.00  0.00    +0.000 A 
ATOM     21  C   UNL     1       5.863   5.493  17.588  0.00  0.00    +0.000 A 
ATOM     22  N   UNL     1       5.745   6.776  17.243  0.00  0.00    +0.000 NA
ATOM     23  C   UNL     1       4.532   7.359  17.500  0.00  0.00    +0.000 A 
ATOM     24  C   UNL     1       3.425   6.722  18.086  0.00  0.00    +0.000 A 
BRANCH  19  30
ATOM     25  C   UNL     1       3.202   2.599  21.093  0.00  0.00    +0.000 C 
ATOM     26  C   UNL     1       1.922   3.447  21.036  0.00  0.00    +0.000 C 
ATOM     27  C   UNL     1       0.765   2.819  20.229  0.00  0.00    +0.000 C 
ATOM     28  C   UNL     1       1.008   2.735  18.708  0.00  0.00    +0.000 C 
ATOM     29  C   UNL     1       1.501   4.118  18.177  0.00  0.00    +0.000 C 
ATOM     30  N   UNL     1       2.584   4.623  19.042  0.00  0.00    +0.000 N 
ATOM     31  C   UNL     1       2.217   4.829  20.445  0.00  0.00    +0.000 C 
BRANCH  28  32
ATOM     32  N   UNL     1       1.909   1.607  18.428  0.00  0.00    +0.000 NA
ATOM     33  H   UNL     1       2.824   1.841  18.802  0.00  0.00    +0.000 HD
ATOM     34  H   UNL     1       2.066   1.524  17.425  0.00  0.00    +0.000 HD
ENDBRANCH  28  32
ENDBRANCH  19  30
ENDBRANCH   1  24
TORSDOF 4
ENDMDL
MODEL 7
REMARK VINA RESULT:      -6.9      2.533      8.119
REMARK  Name = 
REMARK  5 active torsions:
REMARK  status: ('A' for Active; 'I' for Inactive)
REMARK    1  A    between atoms: C_1  and  C_2
REMARK    2  A    between atoms: C_4  and  N_5
REMARK    3  A    between atoms: N_7  and  C_8
REMARK    4  A    between atoms: C_13  and  N_14
REMARK    5  A    between atoms: C_21  and  C_22
REMARK                            x       y       z     vdW  Elec       q    Type
REMARK                         _______ _______ _______ _____ _____    ______ ____
ROOT
ATOM      1  N   UNL     1      -3.776  12.291  21.322  0.00  0.00    +0.000 N 
ATOM      2  C   UNL     1      -2.723  13.053  20.905  0.00  0.00    +0.000 A 
ATOM      3  N   UNL     1      -2.725  14.375  20.866  0.00  0.00    +0.000 NA
ATOM      4  C   UNL     1      -1.519  14.757  20.370  0.00  0.00    +0.000 A 
ATOM      5  C   UNL     1      -0.745  13.666  20.081  0.00  0.00    +0.000 A 
ATOM      6  C   UNL     1       0.546  13.518  19.559  0.00  0.00    +0.000 A 
ATOM      7  C   UNL     1       1.030  12.290  19.377  0.00  0.00    +0.000 A 
ATOM      8  C   UNL     1       0.168  11.107  19.728  0.00  0.00    +0.000 A 
ATOM      9  N   UNL     1      -1.044  11.210  20.239  0.00  0.00    +0.000 NA
ATOM     10  N   UNL     1      -1.489  12.542  20.406  0.00  0.00    +0.000 N 
ATOM     11  H   UNL     1      -3.631  11.298  21.460  0.00  0.00    +0.000 HD
ENDROOT
BRANCH   8  12
ATOM     12  C   UNL     1       0.896   9.793  19.407  0.00  0.00    +0.000 A 
ATOM     13  N   UNL     1       1.331   9.715  18.102  0.00  0.00    +0.000 NA
ATOM     14  C   UNL     1       2.083   8.652  17.725  0.00  0.00    +0.000 A 
ATOM     15  C   UNL     1       2.435   7.627  18.576  0.00  0.00    +0.000 A 
ATOM     16  C   UNL     1       1.992   7.708  19.895  0.00  0.00    +0.000 A 
ATOM     17  C   UNL     1       1.216   8.802  20.329  0.00  0.00    +0.000 A 
ATOM     18 CL   UNL     1       0.813   8.876  21.998  0.00  0.00    +0.000 Cl
ENDBRANCH   8  12
BRANCH   1  24
ATOM     19  C   UNL     1      -6.174  12.881  21.663  0.00  0.00    +0.000 A 
ATOM     20  C   UNL     1      -7.209  13.157  22.574  0.00  0.00    +0.000 A 
ATOM     21  C   UNL     1      -6.929  13.284  23.923  0.00  0.00    +0.000 A 
ATOM     22  N   UNL     1      -5.699  13.220  24.436  0.00  0.00    +0.000 NA
ATOM     23  C   UNL     1      -4.690  12.953  23.548  0.00  0.00    +0.000 A 
ATOM     24  C   UNL     1      -4.848  12.746  22.167  0.00  0.00    +0.000 A 
BRANCH  19  30
ATOM     25  C   UNL     1      -6.176   9.941  19.214  0.00  0.00    +0.000 C 
ATOM     26  C   UNL     1      -7.219  10.978  18.770  0.00  0.00    +0.000 C 
ATOM     27  C   UNL     1      -6.766  11.897  17.615  0.00  0.00    +0.000 C 
ATOM     28  C   UNL     1      -5.648  12.894  17.982  0.00  0.00    +0.000 C 
ATOM     29  C   UNL     1      -6.020  13.638  19.303  0.00  0.00    +0.000 C 
ATOM     30  N   UNL     1      -6.459  12.659  20.316  0.00  0.00    +0.000 N 
ATOM     31  C   UNL     1      -7.633  11.864  19.948  0.00  0.00    +0.000 C 
BRANCH  28  32
ATOM     32  N   UNL     1      -4.363  12.182  18.013  0.00  0.00    +0.000 NA
ATOM     33  H   UNL     1      -3.622  12.875  17.955  0.00  0.00    +0.000 HD
ATOM     34  H   UNL     1      -4.248  11.627  17.166  0.00  0.00    +0.000 HD
ENDBRANCH  28  32
ENDBRANCH  19  30
ENDBRANCH   1  24
TORSDOF 4
ENDMDL
MODEL 8
REMARK VINA RESULT:      -6.9      2.822      7.635
REMARK  Name = 
REMARK  5 active torsions:
REMARK  status: ('A' for Active; 'I' for Inactive)
REMARK    1  A    between atoms: C_1  and  C_2
REMARK    2  A    between atoms: C_4  and  N_5
REMARK    3  A    between atoms: N_7  and  C_8
REMARK    4  A    between atoms: C_13  and  N_14
REMARK    5  A    between atoms: C_21  and  C_22
REMARK                            x       y       z     vdW  Elec       q    Type
REMARK                         _______ _______ _______ _____ _____    ______ ____
ROOT
ATOM      1  N   UNL     1      -3.949  13.163  19.596  0.00  0.00    +0.000 N 
ATOM      2  C   UNL     1      -3.094  13.138  20.660  0.00  0.00    +0.000 A 
ATOM      3  N   UNL     1      -3.432  12.764  21.883  0.00  0.00    +0.000 NA
ATOM      4  C   UNL     1      -2.326  12.905  22.659  0.00  0.00    +0.000 A 
ATOM      5  C   UNL     1      -1.275  13.383  21.923  0.00  0.00    +0.000 A 
ATOM      6  C   UNL     1       0.052  13.699  22.240  0.00  0.00    +0.000 A 
ATOM      7  C   UNL     1       0.849  14.169  21.282  0.00  0.00    +0.000 A 
ATOM      8  C   UNL     1       0.291  14.354  19.896  0.00  0.00    +0.000 A 
ATOM      9  N   UNL     1      -0.946  14.049  19.557  0.00  0.00    +0.000 NA
ATOM     10  N   UNL     1      -1.731  13.555  20.625  0.00  0.00    +0.000 N 
ATOM     11  H   UNL     1      -3.568  13.318  18.671  0.00  0.00    +0.000 HD
ENDROOT
BRANCH   8  12
ATOM     12  C   UNL     1       1.358  14.940  18.957  0.00  0.00    +0.000 A 
ATOM     13  N   UNL     1       1.347  16.317  18.911  0.00  0.00    +0.000 NA
ATOM     14  C   UNL     1       2.312  16.956  18.204  0.00  0.00    +0.000 A 
ATOM     15  C   UNL     1       3.308  16.302  17.513  0.00  0.00    +0.000 A 
ATOM     16  C   UNL     1       3.316  14.909  17.560  0.00  0.00    +0.000 A 
ATOM     17  C   UNL     1       2.337  14.208  18.293  0.00  0.00    +0.000 A 
ATOM     18 CL   UNL     1       2.492  12.499  18.390  0.00  0.00    +0.000 Cl
ENDBRANCH   8  12
BRANCH   1  24
ATOM     19  C   UNL     1      -5.241  11.219  18.720  0.00  0.00    +0.000 A 
ATOM     20  C   UNL     1      -6.407  10.436  18.803  0.00  0.00    +0.000 A 
ATOM     21  C   UNL     1      -7.448  10.827  19.625  0.00  0.00    +0.000 A 
ATOM     22  N   UNL     1      -7.454  11.962  20.327  0.00  0.00    +0.000 NA
ATOM     23  C   UNL     1      -6.319  12.726  20.245  0.00  0.00    +0.000 A 
ATOM     24  C   UNL     1      -5.173  12.413  19.496  0.00  0.00    +0.000 A 
BRANCH  19  30
ATOM     25  C   UNL     1      -1.600  10.211  19.327  0.00  0.00    +0.000 C 
ATOM     26  C   UNL     1      -2.137   9.472  18.091  0.00  0.00    +0.000 C 
ATOM     27  C   UNL     1      -1.710  10.079  16.737  0.00  0.00    +0.000 C 
ATOM     28  C   UNL     1      -2.328  11.456  16.422  0.00  0.00    +0.000 C 
ATOM     29  C   UNL     1      -3.870  11.406  16.659  0.00  0.00    +0.000 C 
ATOM     30  N   UNL     1      -4.151  10.785  17.968  0.00  0.00    +0.000 N 
ATOM     31  C   UNL     1      -3.667   9.411  18.122  0.00  0.00    +0.000 C 
BRANCH  28  32
ATOM     32  N   UNL     1      -1.617  12.488  17.190  0.00  0.00    +0.000 NA
ATOM     33  H   UNL     1      -2.185  13.331  17.179  0.00  0.00    +0.000 HD
ATOM     34  H   UNL     1      -0.762  12.760  16.706  0.00  0.00    +0.000 HD
ENDBRANCH  28  32
ENDBRANCH  19  30
ENDBRANCH   1  24
TORSDOF 4
ENDMDL
MODEL 9
REMARK VINA RESULT:      -6.9      2.336      3.578
REMARK  Name = 
REMARK  5 active torsions:
REMARK  status: ('A' for Active; 'I' for Inactive)
REMARK    1  A    between atoms: C_1  and  C_2
REMARK    2  A    between atoms: C_4  and  N_5
REMARK    3  A    between atoms: N_7  and  C_8
REMARK    4  A    between atoms: C_13  and  N_14
REMARK    5  A    between atoms: C_21  and  C_22
REMARK                            x       y       z     vdW  Elec       q    Type
REMARK                         _______ _______ _______ _____ _____    ______ ____
ROOT
ATOM      1  N   UNL     1      -4.111  12.649  19.328  0.00  0.00    +0.000 N 
ATOM      2  C   UNL     1      -5.223  12.346  20.060  0.00  0.00    +0.000 A 
ATOM      3  N   UNL     1      -6.066  11.368  19.770  0.00  0.00    +0.000 NA
ATOM      4  C   UNL     1      -7.051  11.406  20.705  0.00  0.00    +0.000 A 
ATOM      5  C   UNL     1      -6.838  12.425  21.593  0.00  0.00    +0.000 A 
ATOM      6  C   UNL     1      -7.542  12.883  22.714  0.00  0.00    +0.000 A 
ATOM      7  C   UNL     1      -7.074  13.936  23.383  0.00  0.00    +0.000 A 
ATOM      8  C   UNL     1      -5.811  14.601  22.905  0.00  0.00    +0.000 A 
ATOM      9  N   UNL     1      -5.113  14.185  21.866  0.00  0.00    +0.000 NA
ATOM     10  N   UNL     1      -5.669  13.064  21.208  0.00  0.00    +0.000 N 
ATOM     11  H   UNL     1      -3.448  13.313  19.708  0.00  0.00    +0.000 HD
ENDROOT
BRANCH   8  12
ATOM     12  C   UNL     1      -5.469  15.811  23.788  0.00  0.00    +0.000 A 
ATOM     13  N   UNL     1      -4.290  15.662  24.484  0.00  0.00    +0.000 NA
ATOM     14  C   UNL     1      -3.823  16.706  25.213  0.00  0.00    +0.000 A 
ATOM     15  C   UNL     1      -4.472  17.918  25.308  0.00  0.00    +0.000 A 
ATOM     16  C   UNL     1      -5.665  18.065  24.604  0.00  0.00    +0.000 A 
ATOM     17  C   UNL     1      -6.178  17.007  23.826  0.00  0.00    +0.000 A 
ATOM     18 CL   UNL     1      -7.593  17.317  22.902  0.00  0.00    +0.000 Cl
ENDBRANCH   8  12
BRANCH   1  24
ATOM     19  C   UNL     1      -2.064  11.412  18.623  0.00  0.00    +0.000 A 
ATOM     20  C   UNL     1      -1.509  10.395  17.825  0.00  0.00    +0.000 A 
ATOM     21  C   UNL     1      -2.292   9.745  16.887  0.00  0.00    +0.000 A 
ATOM     22  N   UNL     1      -3.563  10.061  16.634  0.00  0.00    +0.000 NA
ATOM     23  C   UNL     1      -4.103  11.052  17.410  0.00  0.00    +0.000 A 
ATOM     24  C   UNL     1      -3.436  11.749  18.432  0.00  0.00    +0.000 A 
BRANCH  19  30
ATOM     25  C   UNL     1      -2.274  11.881  22.415  0.00  0.00    +0.000 C 
ATOM     26  C   UNL     1      -0.800  11.867  21.981  0.00  0.00    +0.000 C 
ATOM     27  C   UNL     1      -0.142  13.260  21.878  0.00  0.00    +0.000 C 
ATOM     28  C   UNL     1      -0.672  14.142  20.729  0.00  0.00    +0.000 C 
ATOM     29  C   UNL     1      -0.682  13.323  19.400  0.00  0.00    +0.000 C 
ATOM     30  N   UNL     1      -1.310  12.008  19.633  0.00  0.00    +0.000 N 
ATOM     31  C   UNL     1      -0.643  11.166  20.629  0.00  0.00    +0.000 C 
BRANCH  28  32
ATOM     32  N   UNL     1      -1.972  14.706  21.119  0.00  0.00    +0.000 NA
ATOM     33  H   UNL     1      -2.407  15.090  20.285  0.00  0.00    +0.000 HD
ATOM     34  H   UNL     1      -1.836  15.517  21.722  0.00  0.00    +0.000 HD
ENDBRANCH  28  32
ENDBRANCH  19  30
ENDBRANCH   1  24
TORSDOF 4
ENDMDL
