MODEL 1
REMARK VINA RESULT:      -8.2      0.000      0.000
REMARK  Name = 
REMARK  4 active torsions:
REMARK  status: ('A' for Active; 'I' for Inactive)
REMARK    1  A    between atoms: C_1  and  C_2
REMARK    2  A    between atoms: C_11  and  C_12
REMARK    3  A    between atoms: C_12  and  N_13
REMARK    4  A    between atoms: C_14  and  C_16
REMARK                            x       y       z     vdW  Elec       q    Type
REMARK                         _______ _______ _______ _____ _____    ______ ____
ROOT
ATOM      1  C   UNL     1       7.412   7.490  17.120  0.00  0.00    +0.000 C 
ATOM      2  C   UNL     1       6.589   6.236  17.165  0.00  0.00    +0.000 A 
ATOM      3  C   UNL     1       6.859   5.155  16.317  0.00  0.00    +0.000 A 
ATOM      4  C   UNL     1       6.071   3.997  16.351  0.00  0.00    +0.000 A 
ATOM      5  C   UNL     1       4.978   3.942  17.229  0.00  0.00    +0.000 A 
ATOM      6  N   UNL     1       4.069   2.933  17.429  0.00  0.00    +0.000 NA
ATOM      7  C   UNL     1       3.251   3.374  18.361  0.00  0.00    +0.000 A 
ATOM      8  N   UNL     1       3.563   4.668  18.719  0.00  0.00    +0.000 N 
ATOM      9  C   UNL     1       4.707   5.032  18.054  0.00  0.00    +0.000 A 
ATOM     10  C   UNL     1       5.518   6.172  18.069  0.00  0.00    +0.000 A 
ATOM     11  C   UNL     1       2.789   5.422  19.697  0.00  0.00    +0.000 C 
ATOM     12  C   UNL     1       1.457   4.701  19.966  0.00  0.00    +0.000 C 
ATOM     13  O   UNL     1       1.686   3.303  20.173  0.00  0.00    +0.000 OA
ATOM     14  C   UNL     1       2.089   2.652  18.957  0.00  0.00    +0.000 C 
ENDROOT
BRANCH  11  15
ATOM     15  C   UNL     1       2.522   6.893  19.338  0.00  0.00    +0.000 C 
BRANCH  15  16
ATOM     16  N   UNL     1       1.879   7.669  20.387  0.00  0.00    +0.000 N 
ATOM     17  C   UNL     1       1.310   8.893  20.079  0.00  0.00    +0.000 C 
ATOM     18  O   UNL     1       1.376   9.409  18.971  0.00  0.00    +0.000 OA
ATOM     19  H   UNL     1       1.460   7.158  21.159  0.00  0.00    +0.000 HD
BRANCH  17  20
ATOM     20  C   UNL     1       0.572   9.564  21.176  0.00  0.00    +0.000 A 
ATOM     21  C   UNL     1       0.465   8.985  22.440  0.00  0.00    +0.000 A 
ATOM     22  C   UNL     1      -0.237   9.679  23.410  0.00  0.00    +0.000 A 
ATOM     23  N   UNL     1      -0.812  10.881  23.198  0.00  0.00    +0.000 NA
ATOM     24  C   UNL     1      -0.674  11.429  21.973  0.00  0.00    +0.000 A 
ATOM     25  C   UNL     1       0.013  10.817  20.936  0.00  0.00    +0.000 A 
ENDBRANCH  17  20
ENDBRANCH  15  16
ENDBRANCH  11  15
TORSDOF 3
ENDMDL
MODEL 2
REMARK VINA RESULT:      -8.1      0.556      1.116
REMARK  Name = 
REMARK  4 active torsions:
REMARK  status: ('A' for Active; 'I' for Inactive)
REMARK    1  A    between atoms: C_1  and  C_2
REMARK    2  A    between atoms: C_11  and  C_12
REMARK    3  A    between atoms: C_12  and  N_13
REMARK    4  A    between atoms: C_14  and  C_16
REMARK                            x       y       z     vdW  Elec       q    Type
REMARK                         _______ _______ _______ _____ _____    ______ ____
ROOT
ATOM      1  C   UNL     1       7.412   6.619  17.302  0.00  0.00    +0.000 C 
ATOM      2  C   UNL     1       6.345   5.563  17.298  0.00  0.00    +0.000 A 
ATOM      3  C   UNL     1       6.373   4.501  16.386  0.00  0.00    +0.000 A 
ATOM      4  C   UNL     1       5.360   3.533  16.375  0.00  0.00    +0.000 A 
ATOM      5  C   UNL     1       4.290   3.656  17.274  0.00  0.00    +0.000 A 
ATOM      6  N   UNL     1       3.191   2.849  17.439  0.00  0.00    +0.000 NA
ATOM      7  C   UNL     1       2.494   3.397  18.413  0.00  0.00    +0.000 A 
ATOM      8  N   UNL     1       3.074   4.574  18.833  0.00  0.00    +0.000 N 
ATOM      9  C   UNL     1       4.262   4.729  18.163  0.00  0.00    +0.000 A 
ATOM     10  C   UNL     1       5.294   5.672  18.221  0.00  0.00    +0.000 A 
ATOM     11  C   UNL     1       2.487   5.415  19.867  0.00  0.00    +0.000 C 
ATOM     12  C   UNL     1       1.037   4.974  20.127  0.00  0.00    +0.000 C 
ATOM     13  O   UNL     1       0.969   3.550  20.254  0.00  0.00    +0.000 OA
ATOM     14  C   UNL     1       1.213   2.900  18.995  0.00  0.00    +0.000 C 
ENDROOT
BRANCH  11  15
ATOM     15  C   UNL     1       2.531   6.928  19.595  0.00  0.00    +0.000 C 
BRANCH  15  16
ATOM     16  N   UNL     1       1.848   7.745  20.586  0.00  0.00    +0.000 N 
ATOM     17  C   UNL     1       1.209   8.908  20.189  0.00  0.00    +0.000 C 
ATOM     18  O   UNL     1       1.242   9.339  19.044  0.00  0.00    +0.000 OA
ATOM     19  H   UNL     1       1.462   7.273  21.398  0.00  0.00    +0.000 HD
BRANCH  17  20
ATOM     20  C   UNL     1       0.439   9.619  21.237  0.00  0.00    +0.000 A 
ATOM     21  C   UNL     1      -0.263  10.789  20.954  0.00  0.00    +0.000 A 
ATOM     22  C   UNL     1      -0.960  11.390  21.988  0.00  0.00    +0.000 A 
ATOM     23  N   UNL     1      -1.001  10.899  23.244  0.00  0.00    +0.000 NA
ATOM     24  C   UNL     1      -0.331   9.753  23.485  0.00  0.00    +0.000 A 
ATOM     25  C   UNL     1       0.393   9.074  22.518  0.00  0.00    +0.000 A 
ENDBRANCH  17  20
ENDBRANCH  15  16
ENDBRANCH  11  15
TORSDOF 3
ENDMDL
MODEL 3
REMARK VINA RESULT:      -8.1      2.806      7.880
REMARK  Name = 
REMARK  4 active torsions:
REMARK  status: ('A' for Active; 'I' for Inactive)
REMARK    1  A    between atoms: C_1  and  C_2
REMARK    2  A    between atoms: C_11  and  C_12
REMARK    3  A    between atoms: C_12  and  N_13
REMARK    4  A    between atoms: C_14  and  C_16
REMARK                            x       y       z     vdW  Elec       q    Type
REMARK                         _______ _______ _______ _____ _____    ______ ____
ROOT
ATOM      1  C   UNL     1       1.932   9.808  18.007  0.00  0.00    +0.000 C 
ATOM      2  C   UNL     1       1.867   8.592  18.885  0.00  0.00    +0.000 A 
ATOM      3  C   UNL     1       1.222   8.622  20.127  0.00  0.00    +0.000 A 
ATOM      4  C   UNL     1       1.186   7.488  20.949  0.00  0.00    +0.000 A 
ATOM      5  C   UNL     1       1.838   6.320  20.527  0.00  0.00    +0.000 A 
ATOM      6  N   UNL     1       1.949   5.106  21.159  0.00  0.00    +0.000 NA
ATOM      7  C   UNL     1       2.652   4.347  20.344  0.00  0.00    +0.000 A 
ATOM      8  N   UNL     1       3.060   5.059  19.237  0.00  0.00    +0.000 N 
ATOM      9  C   UNL     1       2.496   6.308  19.299  0.00  0.00    +0.000 A 
ATOM     10  C   UNL     1       2.492   7.416  18.444  0.00  0.00    +0.000 A 
ATOM     11  C   UNL     1       3.895   4.479  18.192  0.00  0.00    +0.000 C 
ATOM     12  C   UNL     1       4.490   3.150  18.688  0.00  0.00    +0.000 C 
ATOM     13  O   UNL     1       3.473   2.352  19.302  0.00  0.00    +0.000 OA
ATOM     14  C   UNL     1       3.042   2.922  20.549  0.00  0.00    +0.000 C 
ENDROOT
BRANCH  11  15
ATOM     15  C   UNL     1       5.016   5.387  17.661  0.00  0.00    +0.000 C 
BRANCH  15  16
ATOM     16  N   UNL     1       5.307   5.230  16.245  0.00  0.00    +0.000 N 
ATOM     17  C   UNL     1       6.568   4.818  15.848  0.00  0.00    +0.000 C 
ATOM     18  O   UNL     1       7.497   4.641  16.625  0.00  0.00    +0.000 OA
ATOM     19  H   UNL     1       4.537   4.978  15.632  0.00  0.00    +0.000 HD
BRANCH  17  20
ATOM     20  C   UNL     1       6.747   4.570  14.397  0.00  0.00    +0.000 A 
ATOM     21  C   UNL     1       6.012   3.590  13.732  0.00  0.00    +0.000 A 
ATOM     22  C   UNL     1       6.236   3.423  12.377  0.00  0.00    +0.000 A 
ATOM     23  N   UNL     1       7.118   4.163  11.670  0.00  0.00    +0.000 NA
ATOM     24  C   UNL     1       7.799   5.119  12.334  0.00  0.00    +0.000 A 
ATOM     25  C   UNL     1       7.644   5.366  13.689  0.00  0.00    +0.000 A 
ENDBRANCH  17  20
ENDBRANCH  15  16
ENDBRANCH  11  15
TORSDOF 3
ENDMDL
MODEL 4
REMARK VINA RESULT:      -8.0      2.811      7.836
REMARK  Name = 
REMARK  4 active torsions:
REMARK  status: ('A' for Active; 'I' for Inactive)
REMARK    1  A    between atoms: C_1  and  C_2
REMARK    2  A    between atoms: C_11  and  C_12
REMARK    3  A    between atoms: C_12  and  N_13
REMARK    4  A    between atoms: C_14  and  C_16
REMARK                            x       y       z     vdW  Elec       q    Type
REMARK                         _______ _______ _______ _____ _____    ______ ____
ROOT
ATOM      1  C   UNL     1       2.121   9.604  17.798  0.00  0.00    +0.000 C 
ATOM      2  C   UNL     1       2.005   8.452  18.753  0.00  0.00    +0.000 A 
ATOM      3  C   UNL     1       1.380   8.594  19.997  0.00  0.00    +0.000 A 
ATOM      4  C   UNL     1       1.297   7.518  20.891  0.00  0.00    +0.000 A 
ATOM      5  C   UNL     1       1.881   6.293  20.537  0.00  0.00    +0.000 A 
ATOM      6  N   UNL     1       1.937   5.117  21.244  0.00  0.00    +0.000 NA
ATOM      7  C   UNL     1       2.588   4.272  20.472  0.00  0.00    +0.000 A 
ATOM      8  N   UNL     1       3.017   4.889  19.317  0.00  0.00    +0.000 N 
ATOM      9  C   UNL     1       2.519   6.169  19.305  0.00  0.00    +0.000 A 
ATOM     10  C   UNL     1       2.561   7.219  18.382  0.00  0.00    +0.000 A 
ATOM     11  C   UNL     1       3.806   4.201  18.303  0.00  0.00    +0.000 C 
ATOM     12  C   UNL     1       4.338   2.877  18.877  0.00  0.00    +0.000 C 
ATOM     13  O   UNL     1       3.289   2.175  19.552  0.00  0.00    +0.000 OA
ATOM     14  C   UNL     1       2.906   2.844  20.764  0.00  0.00    +0.000 C 
ENDROOT
BRANCH  11  15
ATOM     15  C   UNL     1       4.965   5.013  17.703  0.00  0.00    +0.000 C 
BRANCH  15  16
ATOM     16  N   UNL     1       5.226   4.754  16.295  0.00  0.00    +0.000 N 
ATOM     17  C   UNL     1       6.407   5.197  15.726  0.00  0.00    +0.000 C 
ATOM     18  O   UNL     1       7.235   5.870  16.327  0.00  0.00    +0.000 OA
ATOM     19  H   UNL     1       4.815   3.919  15.888  0.00  0.00    +0.000 HD
BRANCH  17  20
ATOM     20  C   UNL     1       6.648   4.790  14.321  0.00  0.00    +0.000 A 
ATOM     21  C   UNL     1       7.623   5.410  13.543  0.00  0.00    +0.000 A 
ATOM     22  C   UNL     1       7.788   4.969  12.241  0.00  0.00    +0.000 A 
ATOM     23  N   UNL     1       7.062   3.969  11.696  0.00  0.00    +0.000 NA
ATOM     24  C   UNL     1       6.141   3.372  12.478  0.00  0.00    +0.000 A 
ATOM     25  C   UNL     1       5.903   3.738  13.794  0.00  0.00    +0.000 A 
ENDBRANCH  17  20
ENDBRANCH  15  16
ENDBRANCH  11  15
TORSDOF 3
ENDMDL
MODEL 5
REMARK VINA RESULT:      -7.6      2.816      6.179
REMARK  Name = 
REMARK  4 active torsions:
REMARK  status: ('A' for Active; 'I' for Inactive)
REMARK    1  A    between atoms: C_1  and  C_2
REMARK    2  A    between atoms: C_11  and  C_12
REMARK    3  A    between atoms: C_12  and  N_13
REMARK    4  A    between atoms: C_14  and  C_16
REMARK                            x       y       z     vdW  Elec       q    Type
REMARK                         _______ _______ _______ _____ _____    ______ ____
ROOT
ATOM      1  C   UNL     1       2.160   9.090  17.526  0.00  0.00    +0.000 C 
ATOM      2  C   UNL     1       2.050   7.973  18.523  0.00  0.00    +0.000 A 
ATOM      3  C   UNL     1       1.911   8.228  19.892  0.00  0.00    +0.000 A 
ATOM      4  C   UNL     1       1.832   7.178  20.817  0.00  0.00    +0.000 A 
ATOM      5  C   UNL     1       1.927   5.857  20.357  0.00  0.00    +0.000 A 
ATOM      6  N   UNL     1       1.888   4.681  21.065  0.00  0.00    +0.000 NA
ATOM      7  C   UNL     1       2.013   3.724  20.169  0.00  0.00    +0.000 A 
ATOM      8  N   UNL     1       2.203   4.251  18.910  0.00  0.00    +0.000 N 
ATOM      9  C   UNL     1       2.086   5.616  18.994  0.00  0.00    +0.000 A 
ATOM     10  C   UNL     1       2.112   6.652  18.055  0.00  0.00    +0.000 A 
ATOM     11  C   UNL     1       2.419   3.418  17.734  0.00  0.00    +0.000 C 
ATOM     12  C   UNL     1       2.732   1.978  18.173  0.00  0.00    +0.000 C 
ATOM     13  O   UNL     1       1.804   1.555  19.177  0.00  0.00    +0.000 OA
ATOM     14  C   UNL     1       2.016   2.253  20.415  0.00  0.00    +0.000 C 
ENDROOT
BRANCH  11  15
ATOM     15  C   UNL     1       3.501   3.914  16.761  0.00  0.00    +0.000 C 
BRANCH  15  16
ATOM     16  N   UNL     1       4.655   4.531  17.395  0.00  0.00    +0.000 N 
ATOM     17  C   UNL     1       5.394   5.473  16.701  0.00  0.00    +0.000 C 
ATOM     18  O   UNL     1       5.177   5.777  15.535  0.00  0.00    +0.000 OA
ATOM     19  H   UNL     1       4.639   4.627  18.407  0.00  0.00    +0.000 HD
BRANCH  17  20
ATOM     20  C   UNL     1       6.480   6.139  17.459  0.00  0.00    +0.000 A 
ATOM     21  C   UNL     1       6.894   7.433  17.148  0.00  0.00    +0.000 A 
ATOM     22  C   UNL     1       7.913   7.984  17.907  0.00  0.00    +0.000 A 
ATOM     23  N   UNL     1       8.513   7.340  18.930  0.00  0.00    +0.000 NA
ATOM     24  C   UNL     1       8.077   6.098  19.223  0.00  0.00    +0.000 A 
ATOM     25  C   UNL     1       7.062   5.460  18.527  0.00  0.00    +0.000 A 
ENDBRANCH  17  20
ENDBRANCH  15  16
ENDBRANCH  11  15
TORSDOF 3
ENDMDL
MODEL 6
REMARK VINA RESULT:      -7.3      1.778      2.161
REMARK  Name = 
REMARK  4 active torsions:
REMARK  status: ('A' for Active; 'I' for Inactive)
REMARK    1  A    between atoms: C_1  and  C_2
REMARK    2  A    between atoms: C_11  and  C_12
REMARK    3  A    between atoms: C_12  and  N_13
REMARK    4  A    between atoms: C_14  and  C_16
REMARK                            x       y       z     vdW  Elec       q    Type
REMARK                         _______ _______ _______ _____ _____    ______ ____
ROOT
ATOM      1  C   UNL     1       7.616   6.107  18.558  0.00  0.00    +0.000 C 
ATOM      2  C   UNL     1       6.428   5.314  18.097  0.00  0.00    +0.000 A 
ATOM      3  C   UNL     1       6.356   4.794  16.800  0.00  0.00    +0.000 A 
ATOM      4  C   UNL     1       5.233   4.074  16.371  0.00  0.00    +0.000 A 
ATOM      5  C   UNL     1       4.156   3.904  17.254  0.00  0.00    +0.000 A 
ATOM      6  N   UNL     1       2.961   3.256  17.058  0.00  0.00    +0.000 NA
ATOM      7  C   UNL     1       2.303   3.379  18.192  0.00  0.00    +0.000 A 
ATOM      8  N   UNL     1       3.009   4.149  19.090  0.00  0.00    +0.000 N 
ATOM      9  C   UNL     1       4.229   4.444  18.536  0.00  0.00    +0.000 A 
ATOM     10  C   UNL     1       5.367   5.118  18.994  0.00  0.00    +0.000 A 
ATOM     11  C   UNL     1       2.494   4.488  20.411  0.00  0.00    +0.000 C 
ATOM     12  C   UNL     1       0.992   4.162  20.476  0.00  0.00    +0.000 C 
ATOM     13  O   UNL     1       0.746   2.860  19.936  0.00  0.00    +0.000 OA
ATOM     14  C   UNL     1       0.951   2.835  18.514  0.00  0.00    +0.000 C 
ENDROOT
BRANCH  11  15
ATOM     15  C   UNL     1       2.733   5.938  20.863  0.00  0.00    +0.000 C 
BRANCH  15  16
ATOM     16  N   UNL     1       1.969   6.938  20.132  0.00  0.00    +0.000 N 
ATOM     17  C   UNL     1       1.500   8.058  20.796  0.00  0.00    +0.000 C 
ATOM     18  O   UNL     1       1.628   8.233  22.001  0.00  0.00    +0.000 OA
ATOM     19  H   UNL     1       2.170   7.052  19.143  0.00  0.00    +0.000 HD
BRANCH  17  20
ATOM     20  C   UNL     1       0.835   9.083  19.957  0.00  0.00    +0.000 A 
ATOM     21  C   UNL     1       1.216   9.297  18.633  0.00  0.00    +0.000 A 
ATOM     22  C   UNL     1       0.542  10.271  17.917  0.00  0.00    +0.000 A 
ATOM     23  N   UNL     1      -0.463  11.013  18.429  0.00  0.00    +0.000 NA
ATOM     24  C   UNL     1      -0.826  10.770  19.705  0.00  0.00    +0.000 A 
ATOM     25  C   UNL     1      -0.217   9.815  20.504  0.00  0.00    +0.000 A 
ENDBRANCH  17  20
ENDBRANCH  15  16
ENDBRANCH  11  15
TORSDOF 3
ENDMDL
MODEL 7
REMARK VINA RESULT:      -7.3      1.100      1.484
REMARK  Name = 
REMARK  4 active torsions:
REMARK  status: ('A' for Active; 'I' for Inactive)
REMARK    1  A    between atoms: C_1  and  C_2
REMARK    2  A    between atoms: C_11  and  C_12
REMARK    3  A    between atoms: C_12  and  N_13
REMARK    4  A    between atoms: C_14  and  C_16
REMARK                            x       y       z     vdW  Elec       q    Type
REMARK                         _______ _______ _______ _____ _____    ______ ____
ROOT
ATOM      1  C   UNL     1       5.733   6.702  15.322  0.00  0.00    +0.000 C 
ATOM      2  C   UNL     1       5.179   5.528  16.075  0.00  0.00    +0.000 A 
ATOM      3  C   UNL     1       5.215   4.235  15.540  0.00  0.00    +0.000 A 
ATOM      4  C   UNL     1       4.674   3.149  16.241  0.00  0.00    +0.000 A 
ATOM      5  C   UNL     1       4.063   3.376  17.483  0.00  0.00    +0.000 A 
ATOM      6  N   UNL     1       3.463   2.483  18.336  0.00  0.00    +0.000 NA
ATOM      7  C   UNL     1       3.054   3.197  19.364  0.00  0.00    +0.000 A 
ATOM      8  N   UNL     1       3.310   4.537  19.166  0.00  0.00    +0.000 N 
ATOM      9  C   UNL     1       4.015   4.670  17.997  0.00  0.00    +0.000 A 
ATOM     10  C   UNL     1       4.599   5.754  17.332  0.00  0.00    +0.000 A 
ATOM     11  C   UNL     1       2.918   5.563  20.124  0.00  0.00    +0.000 C 
ATOM     12  C   UNL     1       1.928   4.967  21.140  0.00  0.00    +0.000 C 
ATOM     13  O   UNL     1       2.407   3.704  21.614  0.00  0.00    +0.000 OA
ATOM     14  C   UNL     1       2.352   2.703  20.584  0.00  0.00    +0.000 C 
ENDROOT
BRANCH  11  15
ATOM     15  C   UNL     1       2.332   6.848  19.517  0.00  0.00    +0.000 C 
BRANCH  15  16
ATOM     16  N   UNL     1       1.790   7.787  20.486  0.00  0.00    +0.000 N 
ATOM     17  C   UNL     1       1.132   8.921  20.042  0.00  0.00    +0.000 C 
ATOM     18  O   UNL     1       1.035   9.228  18.861  0.00  0.00    +0.000 OA
ATOM     19  H   UNL     1       1.495   7.417  21.385  0.00  0.00    +0.000 HD
BRANCH  17  20
ATOM     20  C   UNL     1       0.507   9.765  21.089  0.00  0.00    +0.000 A 
ATOM     21  C   UNL     1       0.467  11.153  20.976  0.00  0.00    +0.000 A 
ATOM     22  C   UNL     1      -0.138  11.867  21.995  0.00  0.00    +0.000 A 
ATOM     23  N   UNL     1      -0.695  11.290  23.081  0.00  0.00    +0.000 NA
ATOM     24  C   UNL     1      -0.663   9.944  23.155  0.00  0.00    +0.000 A 
ATOM     25  C   UNL     1      -0.084   9.140  22.185  0.00  0.00    +0.000 A 
ENDBRANCH  17  20
ENDBRANCH  15  16
ENDBRANCH  11  15
TORSDOF 3
ENDMDL
MODEL 8
REMARK VINA RESULT:      -7.2      2.119      4.085
REMARK  Name = 
REMARK  4 active torsions:
REMARK  status: ('A' for Active; 'I' for Inactive)
REMARK    1  A    between atoms: C_1  and  C_2
REMARK    2  A    between atoms: C_11  and  C_12
REMARK    3  A    between atoms: C_12  and  N_13
REMARK    4  A    between atoms: C_14  and  C_16
REMARK                            x       y       z     vdW  Elec       q    Type
REMARK                         _______ _______ _______ _____ _____    ______ ____
ROOT
ATOM      1  C   UNL     1       0.547   3.250  20.282  0.00  0.00    +0.000 C 
ATOM      2  C   UNL     1       1.703   3.161  19.328  0.00  0.00    +0.000 A 
ATOM      3  C   UNL     1       2.357   1.948  19.086  0.00  0.00    +0.000 A 
ATOM      4  C   UNL     1       3.449   1.879  18.211  0.00  0.00    +0.000 A 
ATOM      5  C   UNL     1       3.906   3.055  17.598  0.00  0.00    +0.000 A 
ATOM      6  N   UNL     1       4.950   3.235  16.725  0.00  0.00    +0.000 NA
ATOM      7  C   UNL     1       4.956   4.522  16.442  0.00  0.00    +0.000 A 
ATOM      8  N   UNL     1       3.990   5.189  17.163  0.00  0.00    +0.000 N 
ATOM      9  C   UNL     1       3.260   4.261  17.863  0.00  0.00    +0.000 A 
ATOM     10  C   UNL     1       2.135   4.334  18.692  0.00  0.00    +0.000 A 
ATOM     11  C   UNL     1       3.805   6.632  17.083  0.00  0.00    +0.000 C 
ATOM     12  C   UNL     1       5.018   7.268  16.383  0.00  0.00    +0.000 C 
ATOM     13  O   UNL     1       5.348   6.532  15.201  0.00  0.00    +0.000 OA
ATOM     14  C   UNL     1       5.886   5.239  15.522  0.00  0.00    +0.000 C 
ENDROOT
BRANCH  11  15
ATOM     15  C   UNL     1       3.544   7.342  18.421  0.00  0.00    +0.000 C 
BRANCH  15  16
ATOM     16  N   UNL     1       2.437   8.286  18.405  0.00  0.00    +0.000 N 
ATOM     17  C   UNL     1       1.681   8.472  19.549  0.00  0.00    +0.000 C 
ATOM     18  O   UNL     1       1.842   7.828  20.577  0.00  0.00    +0.000 OA
ATOM     19  H   UNL     1       2.508   9.082  17.777  0.00  0.00    +0.000 HD
BRANCH  17  20
ATOM     20  C   UNL     1       0.649   9.535  19.484  0.00  0.00    +0.000 A 
ATOM     21  C   UNL     1       0.079   9.920  18.273  0.00  0.00    +0.000 A 
ATOM     22  C   UNL     1      -0.880  10.918  18.299  0.00  0.00    +0.000 A 
ATOM     23  N   UNL     1      -1.293  11.526  19.432  0.00  0.00    +0.000 NA
ATOM     24  C   UNL     1      -0.741  11.118  20.593  0.00  0.00    +0.000 A 
ATOM     25  C   UNL     1       0.224  10.125  20.672  0.00  0.00    +0.000 A 
ENDBRANCH  17  20
ENDBRANCH  15  16
ENDBRANCH  11  15
TORSDOF 3
ENDMDL
MODEL 9
REMARK VINA RESULT:      -7.2      1.223      1.338
REMARK  Name = 
REMARK  4 active torsions:
REMARK  status: ('A' for Active; 'I' for Inactive)
REMARK    1  A    between atoms: C_1  and  C_2
REMARK    2  A    between atoms: C_11  and  C_12
REMARK    3  A    between atoms: C_12  and  N_13
REMARK    4  A    between atoms: C_14  and  C_16
REMARK                            x       y       z     vdW  Elec       q    Type
REMARK                         _______ _______ _______ _____ _____    ______ ____
ROOT
ATOM      1  C   UNL     1       7.810   8.076  17.557  0.00  0.00    +0.000 C 
ATOM      2  C   UNL     1       7.099   6.777  17.313  0.00  0.00    +0.000 A 
ATOM      3  C   UNL     1       7.700   5.741  16.589  0.00  0.00    +0.000 A 
ATOM      4  C   UNL     1       7.019   4.540  16.348  0.00  0.00    +0.000 A 
ATOM      5  C   UNL     1       5.704   4.396  16.816  0.00  0.00    +0.000 A 
ATOM      6  N   UNL     1       4.845   3.332  16.693  0.00  0.00    +0.000 NA
ATOM      7  C   UNL     1       3.740   3.698  17.308  0.00  0.00    +0.000 A 
ATOM      8  N   UNL     1       3.835   4.995  17.764  0.00  0.00    +0.000 N 
ATOM      9  C   UNL     1       5.109   5.443  17.518  0.00  0.00    +0.000 A 
ATOM     10  C   UNL     1       5.797   6.625  17.813  0.00  0.00    +0.000 A 
ATOM     11  C   UNL     1       2.738   5.674  18.441  0.00  0.00    +0.000 C 
ATOM     12  C   UNL     1       1.439   4.871  18.247  0.00  0.00    +0.000 C 
ATOM     13  O   UNL     1       1.675   3.483  18.502  0.00  0.00    +0.000 OA
ATOM     14  C   UNL     1       2.495   2.894  17.480  0.00  0.00    +0.000 C 
ENDROOT
BRANCH  11  15
ATOM     15  C   UNL     1       2.512   7.138  18.031  0.00  0.00    +0.000 C 
BRANCH  15  16
ATOM     16  N   UNL     1       1.817   7.947  19.020  0.00  0.00    +0.000 N 
ATOM     17  C   UNL     1       1.450   9.244  18.706  0.00  0.00    +0.000 C 
ATOM     18  O   UNL     1       1.741   9.792  17.650  0.00  0.00    +0.000 OA
ATOM     19  H   UNL     1       1.230   7.463  19.694  0.00  0.00    +0.000 HD
BRANCH  17  20
ATOM     20  C   UNL     1       0.643   9.959  19.723  0.00  0.00    +0.000 A 
ATOM     21  C   UNL     1       0.781   9.687  21.083  0.00  0.00    +0.000 A 
ATOM     22  C   UNL     1      -0.007  10.401  21.968  0.00  0.00    +0.000 A 
ATOM     23  N   UNL     1      -0.890  11.347  21.584  0.00  0.00    +0.000 NA
ATOM     24  C   UNL     1      -0.988  11.607  20.264  0.00  0.00    +0.000 A 
ATOM     25  C   UNL     1      -0.241  10.949  19.299  0.00  0.00    +0.000 A 
ENDBRANCH  17  20
ENDBRANCH  15  16
ENDBRANCH  11  15
TORSDOF 3
ENDMDL
