MODEL 1
REMARK VINA RESULT:      -8.7      0.000      0.000
REMARK  Name = 
REMARK  4 active torsions:
REMARK  status: ('A' for Active; 'I' for Inactive)
REMARK    1  A    between atoms: C_2  and  C_3
REMARK    2  A    between atoms: C_8  and  O_9
REMARK    3  A    between atoms: O_9  and  C_10
REMARK    4  A    between atoms: C_15  and  N_16
REMARK                            x       y       z     vdW  Elec       q    Type
REMARK                         _______ _______ _______ _____ _____    ______ ____
ROOT
ATOM      1  C   UNL     1       2.340   6.666  19.993  0.00  0.00    +0.000 A 
ATOM      2  C   UNL     1       2.602   6.893  18.644  0.00  0.00    +0.000 A 
ATOM      3  C   UNL     1       2.279   8.132  18.093  0.00  0.00    +0.000 A 
ATOM      4  F   UNL     1       2.547   8.367  16.802  0.00  0.00    +0.000 F 
ATOM      5  C   UNL     1       1.701   9.138  18.859  0.00  0.00    +0.000 A 
ATOM      6  C   UNL     1       1.377   8.878  20.185  0.00  0.00    +0.000 A 
ATOM      7  C   UNL     1       1.659   7.634  20.745  0.00  0.00    +0.000 A 
ENDROOT
BRANCH   6   8
ATOM      8  N   UNL     1       0.750   9.891  20.948  0.00  0.00    +0.000 N 
ATOM      9  C   UNL     1       0.321  11.157  20.336  0.00  0.00    +0.000 C 
ATOM     10  C   UNL     1      -0.721  11.761  21.230  0.00  0.00    +0.000 A 
ATOM     11  C   UNL     1      -1.407  12.951  21.010  0.00  0.00    +0.000 A 
ATOM     12  C   UNL     1      -2.364  13.357  21.942  0.00  0.00    +0.000 A 
ATOM     13  C   UNL     1      -2.631  12.581  23.083  0.00  0.00    +0.000 A 
ATOM     14  C   UNL     1      -1.944  11.385  23.312  0.00  0.00    +0.000 A 
ATOM     15  C   UNL     1      -0.997  11.009  22.374  0.00  0.00    +0.000 A 
ATOM     16  S   UNL     1      -0.025   9.549  22.410  0.00  0.00    +0.000 S 
ATOM     17  O   UNL     1      -0.907   8.414  22.257  0.00  0.00    +0.000 OA
ATOM     18  O   UNL     1       0.938   9.667  23.481  0.00  0.00    +0.000 OA
ENDBRANCH   6   8
BRANCH   1  19
ATOM     19  O   UNL     1       2.808   5.487  20.551  0.00  0.00    +0.000 OA
BRANCH  19  25
ATOM     20  C   UNL     1       3.298   3.509  19.274  0.00  0.00    +0.000 A 
ATOM     21  C   UNL     1       2.838   2.379  18.572  0.00  0.00    +0.000 A 
ATOM     22  C   UNL     1       1.482   2.046  18.570  0.00  0.00    +0.000 A 
ATOM     23  C   UNL     1       0.585   2.795  19.322  0.00  0.00    +0.000 A 
ATOM     24  C   UNL     1       1.037   3.888  20.054  0.00  0.00    +0.000 A 
ATOM     25  C   UNL     1       2.379   4.305  19.970  0.00  0.00    +0.000 A 
BRANCH  20  27
ATOM     26  N   UNL     1       5.828   4.079  19.165  0.00  0.00    +0.000 NA
ATOM     27  C   UNL     1       4.702   3.808  19.245  0.00  0.00    +0.000 C 
ENDBRANCH  20  27
ENDBRANCH  19  25
ENDBRANCH   1  19
TORSDOF 4
ENDMDL
MODEL 2
REMARK VINA RESULT:      -8.2      3.508      8.592
REMARK  Name = 
REMARK  4 active torsions:
REMARK  status: ('A' for Active; 'I' for Inactive)
REMARK    1  A    between atoms: C_2  and  C_3
REMARK    2  A    between atoms: C_8  and  O_9
REMARK    3  A    between atoms: O_9  and  C_10
REMARK    4  A    between atoms: C_15  and  N_16
REMARK                            x       y       z     vdW  Elec       q    Type
REMARK                         _______ _______ _______ _____ _____    ______ ____
ROOT
ATOM      1  C   UNL     1       2.201   6.531  20.295  0.00  0.00    +0.000 A 
ATOM      2  C   UNL     1       1.353   5.545  20.793  0.00  0.00    +0.000 A 
ATOM      3  C   UNL     1       1.535   4.226  20.382  0.00  0.00    +0.000 A 
ATOM      4  F   UNL     1       0.739   3.268  20.873  0.00  0.00    +0.000 F 
ATOM      5  C   UNL     1       2.540   3.878  19.485  0.00  0.00    +0.000 A 
ATOM      6  C   UNL     1       3.334   4.878  18.937  0.00  0.00    +0.000 A 
ATOM      7  C   UNL     1       3.144   6.208  19.309  0.00  0.00    +0.000 A 
ENDROOT
BRANCH   6   8
ATOM      8  N   UNL     1       4.326   4.523  17.993  0.00  0.00    +0.000 N 
ATOM      9  C   UNL     1       3.972   3.946  16.689  0.00  0.00    +0.000 C 
ATOM     10  C   UNL     1       5.136   4.164  15.767  0.00  0.00    +0.000 A 
ATOM     11  C   UNL     1       5.208   3.790  14.429  0.00  0.00    +0.000 A 
ATOM     12  C   UNL     1       6.367   4.090  13.711  0.00  0.00    +0.000 A 
ATOM     13  C   UNL     1       7.442   4.756  14.324  0.00  0.00    +0.000 A 
ATOM     14  C   UNL     1       7.377   5.132  15.669  0.00  0.00    +0.000 A 
ATOM     15  C   UNL     1       6.218   4.818  16.359  0.00  0.00    +0.000 A 
ATOM     16  S   UNL     1       5.874   5.203  18.036  0.00  0.00    +0.000 S 
ATOM     17  O   UNL     1       5.787   6.640  18.161  0.00  0.00    +0.000 OA
ATOM     18  O   UNL     1       6.715   4.381  18.876  0.00  0.00    +0.000 OA
ENDBRANCH   6   8
BRANCH   1  19
ATOM     19  O   UNL     1       2.098   7.803  20.833  0.00  0.00    +0.000 OA
BRANCH  19  25
ATOM     20  C   UNL     1       0.492   9.593  20.797  0.00  0.00    +0.000 A 
ATOM     21  C   UNL     1      -0.354  10.442  20.060  0.00  0.00    +0.000 A 
ATOM     22  C   UNL     1      -0.330  10.434  18.663  0.00  0.00    +0.000 A 
ATOM     23  C   UNL     1       0.584   9.632  17.993  0.00  0.00    +0.000 A 
ATOM     24  C   UNL     1       1.455   8.821  18.714  0.00  0.00    +0.000 A 
ATOM     25  C   UNL     1       1.361   8.731  20.115  0.00  0.00    +0.000 A 
BRANCH  20  27
ATOM     26  N   UNL     1       0.333   9.630  23.388  0.00  0.00    +0.000 NA
ATOM     27  C   UNL     1       0.428   9.639  22.231  0.00  0.00    +0.000 C 
ENDBRANCH  20  27
ENDBRANCH  19  25
ENDBRANCH   1  19
TORSDOF 4
ENDMDL
MODEL 3
REMARK VINA RESULT:      -7.9      2.535      4.047
REMARK  Name = 
REMARK  4 active torsions:
REMARK  status: ('A' for Active; 'I' for Inactive)
REMARK    1  A    between atoms: C_2  and  C_3
REMARK    2  A    between atoms: C_8  and  O_9
REMARK    3  A    between atoms: O_9  and  C_10
REMARK    4  A    between atoms: C_15  and  N_16
REMARK                            x       y       z     vdW  Elec       q    Type
REMARK                         _______ _______ _______ _____ _____    ______ ____
ROOT
ATOM      1  C   UNL     1       3.734   4.288  19.714  0.00  0.00    +0.000 A 
ATOM      2  C   UNL     1       2.791   3.406  20.237  0.00  0.00    +0.000 A 
ATOM      3  C   UNL     1       1.563   3.907  20.665  0.00  0.00    +0.000 A 
ATOM      4  F   UNL     1       0.642   3.063  21.149  0.00  0.00    +0.000 F 
ATOM      5  C   UNL     1       1.264   5.262  20.584  0.00  0.00    +0.000 A 
ATOM      6  C   UNL     1       2.237   6.144  20.129  0.00  0.00    +0.000 A 
ATOM      7  C   UNL     1       3.484   5.667  19.730  0.00  0.00    +0.000 A 
ENDROOT
BRANCH   6   8
ATOM      8  N   UNL     1       1.942   7.527  20.089  0.00  0.00    +0.000 N 
ATOM      9  C   UNL     1       2.013   8.289  18.835  0.00  0.00    +0.000 C 
ATOM     10  C   UNL     1       1.181   9.525  19.008  0.00  0.00    +0.000 A 
ATOM     11  C   UNL     1       0.959  10.511  18.052  0.00  0.00    +0.000 A 
ATOM     12  C   UNL     1       0.136  11.590  18.380  0.00  0.00    +0.000 A 
ATOM     13  C   UNL     1      -0.457  11.684  19.651  0.00  0.00    +0.000 A 
ATOM     14  C   UNL     1      -0.236  10.698  20.617  0.00  0.00    +0.000 A 
ATOM     15  C   UNL     1       0.588   9.641  20.267  0.00  0.00    +0.000 A 
ATOM     16  S   UNL     1       0.999   8.268  21.280  0.00  0.00    +0.000 S 
ATOM     17  O   UNL     1      -0.205   7.503  21.515  0.00  0.00    +0.000 OA
ATOM     18  O   UNL     1       1.869   8.726  22.339  0.00  0.00    +0.000 OA
ENDBRANCH   6   8
BRANCH   1  19
ATOM     19  O   UNL     1       4.882   3.749  19.157  0.00  0.00    +0.000 OA
BRANCH  19  25
ATOM     20  C   UNL     1       6.431   5.160  17.977  0.00  0.00    +0.000 A 
ATOM     21  C   UNL     1       6.796   5.828  16.794  0.00  0.00    +0.000 A 
ATOM     22  C   UNL     1       6.069   5.640  15.616  0.00  0.00    +0.000 A 
ATOM     23  C   UNL     1       5.017   4.734  15.591  0.00  0.00    +0.000 A 
ATOM     24  C   UNL     1       4.675   4.036  16.746  0.00  0.00    +0.000 A 
ATOM     25  C   UNL     1       5.322   4.303  17.966  0.00  0.00    +0.000 A 
BRANCH  20  27
ATOM     26  N   UNL     1       7.806   5.528  20.148  0.00  0.00    +0.000 NA
ATOM     27  C   UNL     1       7.211   5.388  19.161  0.00  0.00    +0.000 C 
ENDBRANCH  20  27
ENDBRANCH  19  25
ENDBRANCH   1  19
TORSDOF 4
ENDMDL
MODEL 4
REMARK VINA RESULT:      -7.8      1.638      2.004
REMARK  Name = 
REMARK  4 active torsions:
REMARK  status: ('A' for Active; 'I' for Inactive)
REMARK    1  A    between atoms: C_2  and  C_3
REMARK    2  A    between atoms: C_8  and  O_9
REMARK    3  A    between atoms: O_9  and  C_10
REMARK    4  A    between atoms: C_15  and  N_16
REMARK                            x       y       z     vdW  Elec       q    Type
REMARK                         _______ _______ _______ _____ _____    ______ ____
ROOT
ATOM      1  C   UNL     1       2.513   6.590  19.724  0.00  0.00    +0.000 A 
ATOM      2  C   UNL     1       3.104   6.784  18.478  0.00  0.00    +0.000 A 
ATOM      3  C   UNL     1       2.837   7.960  17.780  0.00  0.00    +0.000 A 
ATOM      4  F   UNL     1       3.418   8.166  16.591  0.00  0.00    +0.000 F 
ATOM      5  C   UNL     1       1.993   8.937  18.299  0.00  0.00    +0.000 A 
ATOM      6  C   UNL     1       1.351   8.702  19.509  0.00  0.00    +0.000 A 
ATOM      7  C   UNL     1       1.577   7.516  20.205  0.00  0.00    +0.000 A 
ENDROOT
BRANCH   6   8
ATOM      8  N   UNL     1       0.461   9.680  20.012  0.00  0.00    +0.000 N 
ATOM      9  C   UNL     1      -0.088   9.590  21.372  0.00  0.00    +0.000 C 
ATOM     10  C   UNL     1      -0.543  10.963  21.769  0.00  0.00    +0.000 A 
ATOM     11  C   UNL     1      -1.104  11.325  22.990  0.00  0.00    +0.000 A 
ATOM     12  C   UNL     1      -1.453  12.660  23.197  0.00  0.00    +0.000 A 
ATOM     13  C   UNL     1      -1.247  13.623  22.194  0.00  0.00    +0.000 A 
ATOM     14  C   UNL     1      -0.686  13.265  20.965  0.00  0.00    +0.000 A 
ATOM     15  C   UNL     1      -0.352  11.934  20.784  0.00  0.00    +0.000 A 
ATOM     16  S   UNL     1       0.388  11.236  19.354  0.00  0.00    +0.000 S 
ATOM     17  O   UNL     1       1.717  11.786  19.219  0.00  0.00    +0.000 OA
ATOM     18  O   UNL     1      -0.587  11.240  18.287  0.00  0.00    +0.000 OA
ENDBRANCH   6   8
BRANCH   1  19
ATOM     19  O   UNL     1       2.912   5.488  20.462  0.00  0.00    +0.000 OA
BRANCH  19  25
ATOM     20  C   UNL     1       3.426   3.408  19.369  0.00  0.00    +0.000 A 
ATOM     21  C   UNL     1       2.981   2.206  18.789  0.00  0.00    +0.000 A 
ATOM     22  C   UNL     1       1.634   1.842  18.849  0.00  0.00    +0.000 A 
ATOM     23  C   UNL     1       0.734   2.638  19.547  0.00  0.00    +0.000 A 
ATOM     24  C   UNL     1       1.173   3.807  20.161  0.00  0.00    +0.000 A 
ATOM     25  C   UNL     1       2.502   4.245  20.007  0.00  0.00    +0.000 A 
BRANCH  20  27
ATOM     26  N   UNL     1       5.933   4.056  19.176  0.00  0.00    +0.000 NA
ATOM     27  C   UNL     1       4.821   3.736  19.279  0.00  0.00    +0.000 C 
ENDBRANCH  20  27
ENDBRANCH  19  25
ENDBRANCH   1  19
TORSDOF 4
ENDMDL
MODEL 5
REMARK VINA RESULT:      -7.8      2.654      4.012
REMARK  Name = 
REMARK  4 active torsions:
REMARK  status: ('A' for Active; 'I' for Inactive)
REMARK    1  A    between atoms: C_2  and  C_3
REMARK    2  A    between atoms: C_8  and  O_9
REMARK    3  A    between atoms: O_9  and  C_10
REMARK    4  A    between atoms: C_15  and  N_16
REMARK                            x       y       z     vdW  Elec       q    Type
REMARK                         _______ _______ _______ _____ _____    ______ ____
ROOT
ATOM      1  C   UNL     1       3.348   5.382  19.051  0.00  0.00    +0.000 A 
ATOM      2  C   UNL     1       2.664   4.373  19.725  0.00  0.00    +0.000 A 
ATOM      3  C   UNL     1       1.566   4.711  20.514  0.00  0.00    +0.000 A 
ATOM      4  F   UNL     1       0.890   3.746  21.148  0.00  0.00    +0.000 F 
ATOM      5  C   UNL     1       1.144   6.030  20.643  0.00  0.00    +0.000 A 
ATOM      6  C   UNL     1       1.875   7.038  20.026  0.00  0.00    +0.000 A 
ATOM      7  C   UNL     1       2.998   6.723  19.261  0.00  0.00    +0.000 A 
ENDROOT
BRANCH   6   8
ATOM      8  N   UNL     1       1.467   8.382  20.194  0.00  0.00    +0.000 N 
ATOM      9  C   UNL     1       1.330   9.291  19.048  0.00  0.00    +0.000 C 
ATOM     10  C   UNL     1       0.425  10.413  19.466  0.00  0.00    +0.000 A 
ATOM     11  C   UNL     1       0.015  11.480  18.673  0.00  0.00    +0.000 A 
ATOM     12  C   UNL     1      -0.849  12.429  19.221  0.00  0.00    +0.000 A 
ATOM     13  C   UNL     1      -1.297  12.314  20.548  0.00  0.00    +0.000 A 
ATOM     14  C   UNL     1      -0.886  11.246  21.351  0.00  0.00    +0.000 A 
ATOM     15  C   UNL     1      -0.025  10.322  20.784  0.00  0.00    +0.000 A 
ATOM     16  S   UNL     1       0.610   8.883  21.563  0.00  0.00    +0.000 S 
ATOM     17  O   UNL     1      -0.492   7.985  21.822  0.00  0.00    +0.000 OA
ATOM     18  O   UNL     1       1.557   9.292  22.575  0.00  0.00    +0.000 OA
ENDBRANCH   6   8
BRANCH   1  19
ATOM     19  O   UNL     1       4.336   5.005  18.157  0.00  0.00    +0.000 OA
BRANCH  19  25
ATOM     20  C   UNL     1       6.133   6.366  17.319  0.00  0.00    +0.000 A 
ATOM     21  C   UNL     1       7.457   6.826  17.439  0.00  0.00    +0.000 A 
ATOM     22  C   UNL     1       8.227   6.497  18.558  0.00  0.00    +0.000 A 
ATOM     23  C   UNL     1       7.660   5.767  19.596  0.00  0.00    +0.000 A 
ATOM     24  C   UNL     1       6.338   5.345  19.505  0.00  0.00    +0.000 A 
ATOM     25  C   UNL     1       5.590   5.567  18.334  0.00  0.00    +0.000 A 
BRANCH  20  27
ATOM     26  N   UNL     1       4.828   7.004  15.168  0.00  0.00    +0.000 NA
ATOM     27  C   UNL     1       5.385   6.732  16.149  0.00  0.00    +0.000 C 
ENDBRANCH  20  27
ENDBRANCH  19  25
ENDBRANCH   1  19
TORSDOF 4
ENDMDL
MODEL 6
REMARK VINA RESULT:      -7.7      3.341      8.411
REMARK  Name = 
REMARK  4 active torsions:
REMARK  status: ('A' for Active; 'I' for Inactive)
REMARK    1  A    between atoms: C_2  and  C_3
REMARK    2  A    between atoms: C_8  and  O_9
REMARK    3  A    between atoms: O_9  and  C_10
REMARK    4  A    between atoms: C_15  and  N_16
REMARK                            x       y       z     vdW  Elec       q    Type
REMARK                         _______ _______ _______ _____ _____    ______ ____
ROOT
ATOM      1  C   UNL     1       0.507   9.963  19.077  0.00  0.00    +0.000 A 
ATOM      2  C   UNL     1       0.441   9.758  20.453  0.00  0.00    +0.000 A 
ATOM      3  C   UNL     1       1.141   8.691  21.012  0.00  0.00    +0.000 A 
ATOM      4  F   UNL     1       1.101   8.499  22.336  0.00  0.00    +0.000 F 
ATOM      5  C   UNL     1       1.898   7.829  20.225  0.00  0.00    +0.000 A 
ATOM      6  C   UNL     1       1.900   7.997  18.846  0.00  0.00    +0.000 A 
ATOM      7  C   UNL     1       1.176   9.037  18.265  0.00  0.00    +0.000 A 
ENDROOT
BRANCH   6   8
ATOM      8  N   UNL     1       2.637   7.091  18.047  0.00  0.00    +0.000 N 
ATOM      9  C   UNL     1       3.779   7.538  17.238  0.00  0.00    +0.000 C 
ATOM     10  C   UNL     1       4.625   6.334  16.945  0.00  0.00    +0.000 A 
ATOM     11  C   UNL     1       5.815   6.318  16.224  0.00  0.00    +0.000 A 
ATOM     12  C   UNL     1       6.485   5.105  16.064  0.00  0.00    +0.000 A 
ATOM     13  C   UNL     1       5.970   3.919  16.615  0.00  0.00    +0.000 A 
ATOM     14  C   UNL     1       4.773   3.928  17.338  0.00  0.00    +0.000 A 
ATOM     15  C   UNL     1       4.127   5.144  17.479  0.00  0.00    +0.000 A 
ATOM     16  S   UNL     1       2.636   5.430  18.358  0.00  0.00    +0.000 S 
ATOM     17  O   UNL     1       2.883   5.182  19.760  0.00  0.00    +0.000 OA
ATOM     18  O   UNL     1       1.548   4.824  17.624  0.00  0.00    +0.000 OA
ENDBRANCH   6   8
BRANCH   1  19
ATOM     19  O   UNL     1      -0.071  11.114  18.568  0.00  0.00    +0.000 OA
BRANCH  19  25
ATOM     20  C   UNL     1      -2.321  11.876  18.945  0.00  0.00    +0.000 A 
ATOM     21  C   UNL     1      -3.702  11.721  18.723  0.00  0.00    +0.000 A 
ATOM     22  C   UNL     1      -4.175  10.764  17.821  0.00  0.00    +0.000 A 
ATOM     23  C   UNL     1      -3.275  10.004  17.085  0.00  0.00    +0.000 A 
ATOM     24  C   UNL     1      -1.907  10.180  17.266  0.00  0.00    +0.000 A 
ATOM     25  C   UNL     1      -1.419  11.055  18.255  0.00  0.00    +0.000 A 
BRANCH  20  27
ATOM     26  N   UNL     1      -1.481  13.687  20.603  0.00  0.00    +0.000 NA
ATOM     27  C   UNL     1      -1.886  12.873  19.881  0.00  0.00    +0.000 C 
ENDBRANCH  20  27
ENDBRANCH  19  25
ENDBRANCH   1  19
TORSDOF 4
ENDMDL
MODEL 7
REMARK VINA RESULT:      -7.7      1.218      1.329
REMARK  Name = 
REMARK  4 active torsions:
REMARK  status: ('A' for Active; 'I' for Inactive)
REMARK    1  A    between atoms: C_2  and  C_3
REMARK    2  A    between atoms: C_8  and  O_9
REMARK    3  A    between atoms: O_9  and  C_10
REMARK    4  A    between atoms: C_15  and  N_16
REMARK                            x       y       z     vdW  Elec       q    Type
REMARK                         _______ _______ _______ _____ _____    ______ ____
ROOT
ATOM      1  C   UNL     1       2.534   6.702  19.578  0.00  0.00    +0.000 A 
ATOM      2  C   UNL     1       3.168   6.723  18.338  0.00  0.00    +0.000 A 
ATOM      3  C   UNL     1       3.027   7.847  17.526  0.00  0.00    +0.000 A 
ATOM      4  F   UNL     1       3.650   7.885  16.342  0.00  0.00    +0.000 F 
ATOM      5  C   UNL     1       2.267   8.941  17.927  0.00  0.00    +0.000 A 
ATOM      6  C   UNL     1       1.580   8.882  19.133  0.00  0.00    +0.000 A 
ATOM      7  C   UNL     1       1.679   7.751  19.943  0.00  0.00    +0.000 A 
ENDROOT
BRANCH   6   8
ATOM      8  N   UNL     1       0.774   9.980  19.516  0.00  0.00    +0.000 N 
ATOM      9  C   UNL     1      -0.312  10.470  18.657  0.00  0.00    +0.000 C 
ATOM     10  C   UNL     1      -1.259  11.246  19.524  0.00  0.00    +0.000 A 
ATOM     11  C   UNL     1      -2.436  11.863  19.112  0.00  0.00    +0.000 A 
ATOM     12  C   UNL     1      -3.211  12.530  20.062  0.00  0.00    +0.000 A 
ATOM     13  C   UNL     1      -2.813  12.582  21.409  0.00  0.00    +0.000 A 
ATOM     14  C   UNL     1      -1.630  11.967  21.829  0.00  0.00    +0.000 A 
ATOM     15  C   UNL     1      -0.878  11.316  20.865  0.00  0.00    +0.000 A 
ATOM     16  S   UNL     1       0.621  10.445  21.134  0.00  0.00    +0.000 S 
ATOM     17  O   UNL     1       0.334   9.296  21.962  0.00  0.00    +0.000 OA
ATOM     18  O   UNL     1       1.659  11.404  21.438  0.00  0.00    +0.000 OA
ENDBRANCH   6   8
BRANCH   1  19
ATOM     19  O   UNL     1       2.813   5.643  20.426  0.00  0.00    +0.000 OA
BRANCH  19  25
ATOM     20  C   UNL     1       3.281   3.498  19.444  0.00  0.00    +0.000 A 
ATOM     21  C   UNL     1       2.809   2.280  18.922  0.00  0.00    +0.000 A 
ATOM     22  C   UNL     1       1.452   1.954  18.990  0.00  0.00    +0.000 A 
ATOM     23  C   UNL     1       0.568   2.807  19.639  0.00  0.00    +0.000 A 
ATOM     24  C   UNL     1       1.033   3.994  20.196  0.00  0.00    +0.000 A 
ATOM     25  C   UNL     1       2.374   4.390  20.032  0.00  0.00    +0.000 A 
BRANCH  20  27
ATOM     26  N   UNL     1       5.814   4.051  19.327  0.00  0.00    +0.000 NA
ATOM     27  C   UNL     1       4.684   3.786  19.349  0.00  0.00    +0.000 C 
ENDBRANCH  20  27
ENDBRANCH  19  25
ENDBRANCH   1  19
TORSDOF 4
ENDMDL
MODEL 8
REMARK VINA RESULT:      -7.6      1.293      1.592
REMARK  Name = 
REMARK  4 active torsions:
REMARK  status: ('A' for Active; 'I' for Inactive)
REMARK    1  A    between atoms: C_2  and  C_3
REMARK    2  A    between atoms: C_8  and  O_9
REMARK    3  A    between atoms: O_9  and  C_10
REMARK    4  A    between atoms: C_15  and  N_16
REMARK                            x       y       z     vdW  Elec       q    Type
REMARK                         _______ _______ _______ _____ _____    ______ ____
ROOT
ATOM      1  C   UNL     1       2.259   6.654  19.782  0.00  0.00    +0.000 A 
ATOM      2  C   UNL     1       2.596   6.966  18.468  0.00  0.00    +0.000 A 
ATOM      3  C   UNL     1       2.368   8.258  18.000  0.00  0.00    +0.000 A 
ATOM      4  F   UNL     1       2.709   8.573  16.744  0.00  0.00    +0.000 F 
ATOM      5  C   UNL     1       1.811   9.237  18.816  0.00  0.00    +0.000 A 
ATOM      6  C   UNL     1       1.411   8.899  20.103  0.00  0.00    +0.000 A 
ATOM      7  C   UNL     1       1.597   7.601  20.577  0.00  0.00    +0.000 A 
ENDROOT
BRANCH   6   8
ATOM      8  N   UNL     1       0.806   9.887  20.914  0.00  0.00    +0.000 N 
ATOM      9  C   UNL     1       0.405  11.190  20.365  0.00  0.00    +0.000 C 
ATOM     10  C   UNL     1      -0.625  11.772  21.288  0.00  0.00    +0.000 A 
ATOM     11  C   UNL     1      -1.284  12.986  21.126  0.00  0.00    +0.000 A 
ATOM     12  C   UNL     1      -2.233  13.366  22.077  0.00  0.00    +0.000 A 
ATOM     13  C   UNL     1      -2.517  12.542  23.180  0.00  0.00    +0.000 A 
ATOM     14  C   UNL     1      -1.856  11.323  23.350  0.00  0.00    +0.000 A 
ATOM     15  C   UNL     1      -0.917  10.972  22.394  0.00  0.00    +0.000 A 
ATOM     16  S   UNL     1       0.023   9.491  22.360  0.00  0.00    +0.000 S 
ATOM     17  O   UNL     1      -0.883   8.384  22.152  0.00  0.00    +0.000 OA
ATOM     18  O   UNL     1       0.988   9.537  23.434  0.00  0.00    +0.000 OA
ENDBRANCH   6   8
BRANCH   1  19
ATOM     19  O   UNL     1       2.634   5.412  20.267  0.00  0.00    +0.000 OA
BRANCH  19  25
ATOM     20  C   UNL     1       2.114   3.091  19.907  0.00  0.00    +0.000 A 
ATOM     21  C   UNL     1       2.117   1.971  19.056  0.00  0.00    +0.000 A 
ATOM     22  C   UNL     1       2.505   2.092  17.719  0.00  0.00    +0.000 A 
ATOM     23  C   UNL     1       2.825   3.342  17.204  0.00  0.00    +0.000 A 
ATOM     24  C   UNL     1       2.783   4.463  18.027  0.00  0.00    +0.000 A 
ATOM     25  C   UNL     1       2.509   4.337  19.402  0.00  0.00    +0.000 A 
BRANCH  20  27
ATOM     26  N   UNL     1       1.413   2.715  22.378  0.00  0.00    +0.000 NA
ATOM     27  C   UNL     1       1.707   2.913  21.272  0.00  0.00    +0.000 C 
ENDBRANCH  20  27
ENDBRANCH  19  25
ENDBRANCH   1  19
TORSDOF 4
ENDMDL
MODEL 9
REMARK VINA RESULT:      -7.6      2.464      3.719
REMARK  Name = 
REMARK  4 active torsions:
REMARK  status: ('A' for Active; 'I' for Inactive)
REMARK    1  A    between atoms: C_2  and  C_3
REMARK    2  A    between atoms: C_8  and  O_9
REMARK    3  A    between atoms: O_9  and  C_10
REMARK    4  A    between atoms: C_15  and  N_16
REMARK                            x       y       z     vdW  Elec       q    Type
REMARK                         _______ _______ _______ _____ _____    ______ ____
ROOT
ATOM      1  C   UNL     1       3.144   5.597  18.738  0.00  0.00    +0.000 A 
ATOM      2  C   UNL     1       2.688   4.586  19.580  0.00  0.00    +0.000 A 
ATOM      3  C   UNL     1       1.780   4.905  20.588  0.00  0.00    +0.000 A 
ATOM      4  F   UNL     1       1.319   3.936  21.389  0.00  0.00    +0.000 F 
ATOM      5  C   UNL     1       1.326   6.207  20.770  0.00  0.00    +0.000 A 
ATOM      6  C   UNL     1       1.841   7.221  19.972  0.00  0.00    +0.000 A 
ATOM      7  C   UNL     1       2.777   6.928  18.982  0.00  0.00    +0.000 A 
ENDROOT
BRANCH   6   8
ATOM      8  N   UNL     1       1.407   8.550  20.190  0.00  0.00    +0.000 N 
ATOM      9  C   UNL     1       1.250   9.497  19.076  0.00  0.00    +0.000 C 
ATOM     10  C   UNL     1       0.325  10.585  19.535  0.00  0.00    +0.000 A 
ATOM     11  C   UNL     1      -0.107  11.672  18.781  0.00  0.00    +0.000 A 
ATOM     12  C   UNL     1      -0.988  12.584  19.364  0.00  0.00    +0.000 A 
ATOM     13  C   UNL     1      -1.430  12.414  20.687  0.00  0.00    +0.000 A 
ATOM     14  C   UNL     1      -0.997  11.326  21.451  0.00  0.00    +0.000 A 
ATOM     15  C   UNL     1      -0.121  10.438  20.850  0.00  0.00    +0.000 A 
ATOM     16  S   UNL     1       0.544   8.986  21.576  0.00  0.00    +0.000 S 
ATOM     17  O   UNL     1      -0.540   8.058  21.805  0.00  0.00    +0.000 OA
ATOM     18  O   UNL     1       1.485   9.377  22.601  0.00  0.00    +0.000 OA
ENDBRANCH   6   8
BRANCH   1  19
ATOM     19  O   UNL     1       3.924   5.230  17.653  0.00  0.00    +0.000 OA
BRANCH  19  25
ATOM     20  C   UNL     1       6.127   4.767  16.807  0.00  0.00    +0.000 A 
ATOM     21  C   UNL     1       7.504   4.611  17.046  0.00  0.00    +0.000 A 
ATOM     22  C   UNL     1       8.045   4.889  18.303  0.00  0.00    +0.000 A 
ATOM     23  C   UNL     1       7.230   5.391  19.310  0.00  0.00    +0.000 A 
ATOM     24  C   UNL     1       5.874   5.590  19.070  0.00  0.00    +0.000 A 
ATOM     25  C   UNL     1       5.295   5.202  17.847  0.00  0.00    +0.000 A 
BRANCH  20  27
ATOM     26  N   UNL     1       5.222   4.286  14.422  0.00  0.00    +0.000 NA
ATOM     27  C   UNL     1       5.621   4.467  15.497  0.00  0.00    +0.000 C 
ENDBRANCH  20  27
ENDBRANCH  19  25
ENDBRANCH   1  19
TORSDOF 4
ENDMDL
