MODEL 1
REMARK VINA RESULT:      -8.5      0.000      0.000
REMARK  Name = 
REMARK  6 active torsions:
REMARK  status: ('A' for Active; 'I' for Inactive)
REMARK    1  A    between atoms: C_1  and  O_2
REMARK    2  A    between atoms: O_2  and  C_3
REMARK    3  A    between atoms: C_9  and  C_10
REMARK    4  A    between atoms: C_16  and  C_17
REMARK    5  A    between atoms: C_21  and  C_23
REMARK    6  A    between atoms: C_23  and  N_24
REMARK                            x       y       z     vdW  Elec       q    Type
REMARK                         _______ _______ _______ _____ _____    ______ ____
ROOT
ATOM      1  C   UNL     1       3.883   5.226  18.702  0.00  0.00    +0.000 A 
ATOM      2  C   UNL     1       3.590   4.340  19.760  0.00  0.00    +0.000 A 
ATOM      3  C   UNL     1       2.635   4.660  20.716  0.00  0.00    +0.000 A 
ATOM      4  N   UNL     1       1.879   5.771  20.718  0.00  0.00    +0.000 NA
ATOM      5  C   UNL     1       2.163   6.589  19.693  0.00  0.00    +0.000 A 
ATOM      6  N   UNL     1       1.490   7.752  19.466  0.00  0.00    +0.000 N 
ATOM      7  C   UNL     1       1.997   8.406  18.371  0.00  0.00    +0.000 A 
ATOM      8  C   UNL     1       3.033   7.611  17.899  0.00  0.00    +0.000 A 
ATOM      9  C   UNL     1       3.119   6.425  18.693  0.00  0.00    +0.000 A 
ATOM     10  H   UNL     1       0.720   8.043  20.050  0.00  0.00    +0.000 HD
ENDROOT
BRANCH   7  11
ATOM     11  C   UNL     1       1.462   9.709  17.829  0.00  0.00    +0.000 C 
ATOM     12  C   UNL     1       2.095  10.919  18.539  0.00  0.00    +0.000 C 
ATOM     13  C   UNL     1       1.502  11.134  19.929  0.00  0.00    +0.000 C 
ATOM     14  N   UNL     1       0.049  11.256  19.839  0.00  0.00    +0.000 N 
ATOM     15  C   UNL     1      -0.578  12.396  20.320  0.00  0.00    +0.000 C 
ATOM     16  O   UNL     1       0.062  13.339  20.798  0.00  0.00    +0.000 OA
ATOM     17  C   UNL     1      -0.631  10.112  19.244  0.00  0.00    +0.000 C 
ATOM     18  C   UNL     1      -0.073   9.823  17.848  0.00  0.00    +0.000 C 
BRANCH  15  19
ATOM     19  C   UNL     1      -2.106  12.506  20.208  0.00  0.00    +0.000 C 
BRANCH  19  20
ATOM     20  N   UNL     1      -2.737  13.155  21.389  0.00  0.00    +0.000 NA
ATOM     21  C   UNL     1      -4.104  13.603  21.071  0.00  0.00    +0.000 C 
ATOM     22  C   UNL     1      -4.801  14.213  22.289  0.00  0.00    +0.000 C 
ATOM     23  C   UNL     1      -4.821  13.235  23.458  0.00  0.00    +0.000 C 
ATOM     24  C   UNL     1      -3.407  12.761  23.760  0.00  0.00    +0.000 C 
ATOM     25  C   UNL     1      -2.738  12.195  22.507  0.00  0.00    +0.000 C 
ENDBRANCH  19  20
ENDBRANCH  15  19
ENDBRANCH   7  11
BRANCH   1  32
ATOM     26  C   UNL     1       6.308   4.967  17.911  0.00  0.00    +0.000 A 
ATOM     27  C   UNL     1       7.229   4.735  16.874  0.00  0.00    +0.000 A 
ATOM     28  C   UNL     1       6.789   4.500  15.573  0.00  0.00    +0.000 A 
ATOM     29  C   UNL     1       5.431   4.457  15.318  0.00  0.00    +0.000 A 
ATOM     30  F   UNL     1       4.999   4.229  14.071  0.00  0.00    +0.000 F 
ATOM     31  C   UNL     1       4.507   4.648  16.339  0.00  0.00    +0.000 A 
ATOM     32  C   UNL     1       4.909   4.945  17.659  0.00  0.00    +0.000 A 
BRANCH  26  34
ATOM     33  C   UNL     1       7.966   5.793  19.437  0.00  0.00    +0.000 C 
ATOM     34  O   UNL     1       6.706   5.178  19.209  0.00  0.00    +0.000 OA
ENDBRANCH  26  34
ENDBRANCH   1  32
TORSDOF 5
ENDMDL
MODEL 2
REMARK VINA RESULT:      -8.2      4.052     10.668
REMARK  Name = 
REMARK  6 active torsions:
REMARK  status: ('A' for Active; 'I' for Inactive)
REMARK    1  A    between atoms: C_1  and  O_2
REMARK    2  A    between atoms: O_2  and  C_3
REMARK    3  A    between atoms: C_9  and  C_10
REMARK    4  A    between atoms: C_16  and  C_17
REMARK    5  A    between atoms: C_21  and  C_23
REMARK    6  A    between atoms: C_23  and  N_24
REMARK                            x       y       z     vdW  Elec       q    Type
REMARK                         _______ _______ _______ _____ _____    ______ ____
ROOT
ATOM      1  C   UNL     1      -4.197  12.249  19.092  0.00  0.00    +0.000 A 
ATOM      2  C   UNL     1      -4.974  11.997  17.941  0.00  0.00    +0.000 A 
ATOM      3  C   UNL     1      -4.402  11.447  16.800  0.00  0.00    +0.000 A 
ATOM      4  N   UNL     1      -3.121  11.061  16.681  0.00  0.00    +0.000 NA
ATOM      5  C   UNL     1      -2.408  11.293  17.793  0.00  0.00    +0.000 A 
ATOM      6  N   UNL     1      -1.097  10.940  17.919  0.00  0.00    +0.000 N 
ATOM      7  C   UNL     1      -0.604  11.315  19.144  0.00  0.00    +0.000 A 
ATOM      8  C   UNL     1      -1.658  11.930  19.806  0.00  0.00    +0.000 A 
ATOM      9  C   UNL     1      -2.828  11.877  18.986  0.00  0.00    +0.000 A 
ATOM     10  H   UNL     1      -0.604  10.459  17.181  0.00  0.00    +0.000 HD
ENDROOT
BRANCH   7  11
ATOM     11  C   UNL     1       0.804  11.049  19.616  0.00  0.00    +0.000 C 
ATOM     12  C   UNL     1       1.777  10.887  18.434  0.00  0.00    +0.000 C 
ATOM     13  C   UNL     1       1.633   9.523  17.765  0.00  0.00    +0.000 C 
ATOM     14  N   UNL     1       1.800   8.462  18.754  0.00  0.00    +0.000 N 
ATOM     15  C   UNL     1       2.787   7.503  18.576  0.00  0.00    +0.000 C 
ATOM     16  O   UNL     1       3.562   7.536  17.614  0.00  0.00    +0.000 OA
ATOM     17  C   UNL     1       0.863   8.504  19.870  0.00  0.00    +0.000 C 
ATOM     18  C   UNL     1       0.937   9.857  20.581  0.00  0.00    +0.000 C 
BRANCH  15  19
ATOM     19  C   UNL     1       2.950   6.401  19.633  0.00  0.00    +0.000 C 
BRANCH  19  20
ATOM     20  N   UNL     1       2.029   5.250  19.429  0.00  0.00    +0.000 NA
ATOM     21  C   UNL     1       2.559   4.332  18.406  0.00  0.00    +0.000 C 
ATOM     22  C   UNL     1       1.664   3.103  18.225  0.00  0.00    +0.000 C 
ATOM     23  C   UNL     1       1.466   2.369  19.546  0.00  0.00    +0.000 C 
ATOM     24  C   UNL     1       0.942   3.333  20.600  0.00  0.00    +0.000 C 
ATOM     25  C   UNL     1       1.846   4.561  20.719  0.00  0.00    +0.000 C 
ENDBRANCH  19  20
ENDBRANCH  15  19
ENDBRANCH   7  11
BRANCH   1  32
ATOM     26  C   UNL     1      -5.801  12.265  21.091  0.00  0.00    +0.000 A 
ATOM     27  C   UNL     1      -6.308  12.906  22.236  0.00  0.00    +0.000 A 
ATOM     28  C   UNL     1      -5.804  14.139  22.642  0.00  0.00    +0.000 A 
ATOM     29  C   UNL     1      -4.768  14.711  21.928  0.00  0.00    +0.000 A 
ATOM     30  F   UNL     1      -4.274  15.896  22.313  0.00  0.00    +0.000 F 
ATOM     31  C   UNL     1      -4.230  14.074  20.816  0.00  0.00    +0.000 A 
ATOM     32  C   UNL     1      -4.748  12.852  20.336  0.00  0.00    +0.000 A 
BRANCH  26  34
ATOM     33  C   UNL     1      -7.661  10.835  20.591  0.00  0.00    +0.000 C 
ATOM     34  O   UNL     1      -6.259  11.038  20.676  0.00  0.00    +0.000 OA
ENDBRANCH  26  34
ENDBRANCH   1  32
TORSDOF 5
ENDMDL
MODEL 3
REMARK VINA RESULT:      -8.2      1.427      1.872
REMARK  Name = 
REMARK  6 active torsions:
REMARK  status: ('A' for Active; 'I' for Inactive)
REMARK    1  A    between atoms: C_1  and  O_2
REMARK    2  A    between atoms: O_2  and  C_3
REMARK    3  A    between atoms: C_9  and  C_10
REMARK    4  A    between atoms: C_16  and  C_17
REMARK    5  A    between atoms: C_21  and  C_23
REMARK    6  A    between atoms: C_23  and  N_24
REMARK                            x       y       z     vdW  Elec       q    Type
REMARK                         _______ _______ _______ _____ _____    ______ ____
ROOT
ATOM      1  C   UNL     1       3.408   5.681  18.961  0.00  0.00    +0.000 A 
ATOM      2  C   UNL     1       3.150   4.815  20.044  0.00  0.00    +0.000 A 
ATOM      3  C   UNL     1       2.265   5.175  21.052  0.00  0.00    +0.000 A 
ATOM      4  N   UNL     1       1.547   6.310  21.087  0.00  0.00    +0.000 NA
ATOM      5  C   UNL     1       1.795   7.109  20.038  0.00  0.00    +0.000 A 
ATOM      6  N   UNL     1       1.147   8.292  19.839  0.00  0.00    +0.000 N 
ATOM      7  C   UNL     1       1.609   8.918  18.708  0.00  0.00    +0.000 A 
ATOM      8  C   UNL     1       2.589   8.086  18.184  0.00  0.00    +0.000 A 
ATOM      9  C   UNL     1       2.683   6.905  18.984  0.00  0.00    +0.000 A 
ATOM     10  H   UNL     1       0.424   8.613  20.465  0.00  0.00    +0.000 HD
ENDROOT
BRANCH   7  11
ATOM     11  C   UNL     1       1.085  10.233  18.185  0.00  0.00    +0.000 C 
ATOM     12  C   UNL     1       1.701  11.427  18.936  0.00  0.00    +0.000 C 
ATOM     13  C   UNL     1       1.078  11.610  20.317  0.00  0.00    +0.000 C 
ATOM     14  N   UNL     1      -0.372  11.734  20.199  0.00  0.00    +0.000 N 
ATOM     15  C   UNL     1      -1.010  12.863  20.692  0.00  0.00    +0.000 C 
ATOM     16  O   UNL     1      -0.381  13.795  21.205  0.00  0.00    +0.000 OA
ATOM     17  C   UNL     1      -1.039  10.604  19.563  0.00  0.00    +0.000 C 
ATOM     18  C   UNL     1      -0.450  10.347  18.174  0.00  0.00    +0.000 C 
BRANCH  15  19
ATOM     19  C   UNL     1      -2.535  12.974  20.550  0.00  0.00    +0.000 C 
BRANCH  19  20
ATOM     20  N   UNL     1      -3.217  13.368  21.813  0.00  0.00    +0.000 NA
ATOM     21  C   UNL     1      -4.648  13.623  21.577  0.00  0.00    +0.000 C 
ATOM     22  C   UNL     1      -5.386  13.964  22.874  0.00  0.00    +0.000 C 
ATOM     23  C   UNL     1      -5.208  12.863  23.913  0.00  0.00    +0.000 C 
ATOM     24  C   UNL     1      -3.726  12.592  24.129  0.00  0.00    +0.000 C 
ATOM     25  C   UNL     1      -3.023  12.294  22.804  0.00  0.00    +0.000 C 
ENDBRANCH  19  20
ENDBRANCH  15  19
ENDBRANCH   7  11
BRANCH   1  32
ATOM     26  C   UNL     1       4.154   4.296  16.937  0.00  0.00    +0.000 A 
ATOM     27  C   UNL     1       5.111   4.014  15.945  0.00  0.00    +0.000 A 
ATOM     28  C   UNL     1       6.289   4.752  15.862  0.00  0.00    +0.000 A 
ATOM     29  C   UNL     1       6.491   5.798  16.743  0.00  0.00    +0.000 A 
ATOM     30  F   UNL     1       7.619   6.517  16.669  0.00  0.00    +0.000 F 
ATOM     31  C   UNL     1       5.538   6.116  17.705  0.00  0.00    +0.000 A 
ATOM     32  C   UNL     1       4.359   5.357  17.862  0.00  0.00    +0.000 A 
BRANCH  26  34
ATOM     33  C   UNL     1       3.008   2.274  17.529  0.00  0.00    +0.000 C 
ATOM     34  O   UNL     1       2.972   3.603  17.032  0.00  0.00    +0.000 OA
ENDBRANCH  26  34
ENDBRANCH   1  32
TORSDOF 5
ENDMDL
MODEL 4
REMARK VINA RESULT:      -7.9      4.652     10.280
REMARK  Name = 
REMARK  6 active torsions:
REMARK  status: ('A' for Active; 'I' for Inactive)
REMARK    1  A    between atoms: C_1  and  O_2
REMARK    2  A    between atoms: O_2  and  C_3
REMARK    3  A    between atoms: C_9  and  C_10
REMARK    4  A    between atoms: C_16  and  C_17
REMARK    5  A    between atoms: C_21  and  C_23
REMARK    6  A    between atoms: C_23  and  N_24
REMARK                            x       y       z     vdW  Elec       q    Type
REMARK                         _______ _______ _______ _____ _____    ______ ____
ROOT
ATOM      1  C   UNL     1       1.472  15.809  19.855  0.00  0.00    +0.000 A 
ATOM      2  C   UNL     1       2.313  16.247  20.900  0.00  0.00    +0.000 A 
ATOM      3  C   UNL     1       2.727  15.372  21.897  0.00  0.00    +0.000 A 
ATOM      4  N   UNL     1       2.434  14.062  21.952  0.00  0.00    +0.000 NA
ATOM      5  C   UNL     1       1.649  13.666  20.940  0.00  0.00    +0.000 A 
ATOM      6  N   UNL     1       1.262  12.371  20.765  0.00  0.00    +0.000 N 
ATOM      7  C   UNL     1       0.445  12.247  19.670  0.00  0.00    +0.000 A 
ATOM      8  C   UNL     1       0.318  13.525  19.143  0.00  0.00    +0.000 A 
ATOM      9  C   UNL     1       1.120  14.432  19.903  0.00  0.00    +0.000 A 
ATOM     10  H   UNL     1       1.573  11.636  21.384  0.00  0.00    +0.000 HD
ENDROOT
BRANCH   7  11
ATOM     11  C   UNL     1      -0.136  10.943  19.180  0.00  0.00    +0.000 C 
ATOM     12  C   UNL     1      -0.398   9.968  20.343  0.00  0.00    +0.000 C 
ATOM     13  C   UNL     1       0.891   9.324  20.843  0.00  0.00    +0.000 C 
ATOM     14  N   UNL     1       1.588   8.674  19.736  0.00  0.00    +0.000 N 
ATOM     15  C   UNL     1       1.880   7.319  19.807  0.00  0.00    +0.000 C 
ATOM     16  O   UNL     1       1.538   6.628  20.772  0.00  0.00    +0.000 OA
ATOM     17  C   UNL     1       1.937   9.551  18.626  0.00  0.00    +0.000 C 
ATOM     18  C   UNL     1       0.690  10.250  18.082  0.00  0.00    +0.000 C 
BRANCH  15  19
ATOM     19  C   UNL     1       2.606   6.656  18.628  0.00  0.00    +0.000 C 
BRANCH  19  20
ATOM     20  N   UNL     1       2.726   5.179  18.767  0.00  0.00    +0.000 NA
ATOM     21  C   UNL     1       1.623   4.497  18.069  0.00  0.00    +0.000 C 
ATOM     22  C   UNL     1       1.760   2.974  18.139  0.00  0.00    +0.000 C 
ATOM     23  C   UNL     1       3.103   2.517  17.582  0.00  0.00    +0.000 C 
ATOM     24  C   UNL     1       4.233   3.247  18.294  0.00  0.00    +0.000 C 
ATOM     25  C   UNL     1       4.034   4.762  18.231  0.00  0.00    +0.000 C 
ENDBRANCH  19  20
ENDBRANCH  15  19
ENDBRANCH   7  11
BRANCH   1  32
ATOM     26  C   UNL     1       1.830  17.266  17.776  0.00  0.00    +0.000 A 
ATOM     27  C   UNL     1       1.313  18.138  16.801  0.00  0.00    +0.000 A 
ATOM     28  C   UNL     1      -0.036  18.486  16.802  0.00  0.00    +0.000 A 
ATOM     29  C   UNL     1      -0.874  17.931  17.750  0.00  0.00    +0.000 A 
ATOM     30  F   UNL     1      -2.174  18.256  17.756  0.00  0.00    +0.000 F 
ATOM     31  C   UNL     1      -0.387  17.037  18.698  0.00  0.00    +0.000 A 
ATOM     32  C   UNL     1       0.981  16.703  18.769  0.00  0.00    +0.000 A 
BRANCH  26  34
ATOM     33  C   UNL     1       3.513  15.693  17.108  0.00  0.00    +0.000 C 
ATOM     34  O   UNL     1       3.149  16.884  17.791  0.00  0.00    +0.000 OA
ENDBRANCH  26  34
ENDBRANCH   1  32
TORSDOF 5
ENDMDL
MODEL 5
REMARK VINA RESULT:      -7.9      1.693      2.065
REMARK  Name = 
REMARK  6 active torsions:
REMARK  status: ('A' for Active; 'I' for Inactive)
REMARK    1  A    between atoms: C_1  and  O_2
REMARK    2  A    between atoms: O_2  and  C_3
REMARK    3  A    between atoms: C_9  and  C_10
REMARK    4  A    between atoms: C_16  and  C_17
REMARK    5  A    between atoms: C_21  and  C_23
REMARK    6  A    between atoms: C_23  and  N_24
REMARK                            x       y       z     vdW  Elec       q    Type
REMARK                         _______ _______ _______ _____ _____    ______ ____
ROOT
ATOM      1  C   UNL     1       3.719   5.124  18.858  0.00  0.00    +0.000 A 
ATOM      2  C   UNL     1       3.290   4.163  19.799  0.00  0.00    +0.000 A 
ATOM      3  C   UNL     1       2.305   4.467  20.730  0.00  0.00    +0.000 A 
ATOM      4  N   UNL     1       1.643   5.632  20.809  0.00  0.00    +0.000 NA
ATOM      5  C   UNL     1       2.054   6.522  19.895  0.00  0.00    +0.000 A 
ATOM      6  N   UNL     1       1.493   7.756  19.757  0.00  0.00    +0.000 N 
ATOM      7  C   UNL     1       2.118   8.472  18.766  0.00  0.00    +0.000 A 
ATOM      8  C   UNL     1       3.115   7.643  18.270  0.00  0.00    +0.000 A 
ATOM      9  C   UNL     1       3.055   6.380  18.936  0.00  0.00    +0.000 A 
ATOM     10  H   UNL     1       0.713   8.052  20.326  0.00  0.00    +0.000 HD
ENDROOT
BRANCH   7  11
ATOM     11  C   UNL     1       1.724   9.864  18.338  0.00  0.00    +0.000 C 
ATOM     12  C   UNL     1       1.528  10.795  19.549  0.00  0.00    +0.000 C 
ATOM     13  C   UNL     1       0.205  10.527  20.261  0.00  0.00    +0.000 C 
ATOM     14  N   UNL     1      -0.902  10.630  19.313  0.00  0.00    +0.000 N 
ATOM     15  C   UNL     1      -1.929  11.532  19.548  0.00  0.00    +0.000 C 
ATOM     16  O   UNL     1      -1.923  12.286  20.527  0.00  0.00    +0.000 OA
ATOM     17  C   UNL     1      -0.825   9.724  18.173  0.00  0.00    +0.000 C 
ATOM     18  C   UNL     1       0.492   9.923  17.418  0.00  0.00    +0.000 C 
BRANCH  15  19
ATOM     19  C   UNL     1      -3.078  11.629  18.533  0.00  0.00    +0.000 C 
BRANCH  19  20
ATOM     20  N   UNL     1      -4.420  11.433  19.144  0.00  0.00    +0.000 NA
ATOM     21  C   UNL     1      -4.949  12.706  19.664  0.00  0.00    +0.000 C 
ATOM     22  C   UNL     1      -6.359  12.545  20.237  0.00  0.00    +0.000 C 
ATOM     23  C   UNL     1      -7.310  11.959  19.201  0.00  0.00    +0.000 C 
ATOM     24  C   UNL     1      -6.741  10.658  18.653  0.00  0.00    +0.000 C 
ATOM     25  C   UNL     1      -5.319  10.859  18.127  0.00  0.00    +0.000 C 
ENDBRANCH  19  20
ENDBRANCH  15  19
ENDBRANCH   7  11
BRANCH   1  32
ATOM     26  C   UNL     1       6.172   4.979  18.128  0.00  0.00    +0.000 A 
ATOM     27  C   UNL     1       7.128   4.760  17.119  0.00  0.00    +0.000 A 
ATOM     28  C   UNL     1       6.732   4.449  15.820  0.00  0.00    +0.000 A 
ATOM     29  C   UNL     1       5.385   4.315  15.540  0.00  0.00    +0.000 A 
ATOM     30  F   UNL     1       4.995   4.013  14.295  0.00  0.00    +0.000 F 
ATOM     31  C   UNL     1       4.429   4.491  16.534  0.00  0.00    +0.000 A 
ATOM     32  C   UNL     1       4.782   4.864  17.848  0.00  0.00    +0.000 A 
BRANCH  26  34
ATOM     33  C   UNL     1       7.894   5.534  19.704  0.00  0.00    +0.000 C 
ATOM     34  O   UNL     1       6.528   5.264  19.424  0.00  0.00    +0.000 OA
ENDBRANCH  26  34
ENDBRANCH   1  32
TORSDOF 5
ENDMDL
MODEL 6
REMARK VINA RESULT:      -7.8      3.821     10.747
REMARK  Name = 
REMARK  6 active torsions:
REMARK  status: ('A' for Active; 'I' for Inactive)
REMARK    1  A    between atoms: C_1  and  O_2
REMARK    2  A    between atoms: O_2  and  C_3
REMARK    3  A    between atoms: C_9  and  C_10
REMARK    4  A    between atoms: C_16  and  C_17
REMARK    5  A    between atoms: C_21  and  C_23
REMARK    6  A    between atoms: C_23  and  N_24
REMARK                            x       y       z     vdW  Elec       q    Type
REMARK                         _______ _______ _______ _____ _____    ______ ____
ROOT
ATOM      1  C   UNL     1      -3.942  12.756  20.341  0.00  0.00    +0.000 A 
ATOM      2  C   UNL     1      -4.949  12.508  19.384  0.00  0.00    +0.000 A 
ATOM      3  C   UNL     1      -4.651  11.881  18.180  0.00  0.00    +0.000 A 
ATOM      4  N   UNL     1      -3.442  11.416  17.825  0.00  0.00    +0.000 NA
ATOM      5  C   UNL     1      -2.506  11.647  18.757  0.00  0.00    +0.000 A 
ATOM      6  N   UNL     1      -1.217  11.222  18.633  0.00  0.00    +0.000 N 
ATOM      7  C   UNL     1      -0.466  11.613  19.714  0.00  0.00    +0.000 A 
ATOM      8  C   UNL     1      -1.330  12.314  20.544  0.00  0.00    +0.000 A 
ATOM      9  C   UNL     1      -2.644  12.300  19.980  0.00  0.00    +0.000 A 
ATOM     10  H   UNL     1      -0.909  10.685  17.836  0.00  0.00    +0.000 HD
ENDROOT
BRANCH   7  11
ATOM     11  C   UNL     1       0.994  11.282  19.905  0.00  0.00    +0.000 C 
ATOM     12  C   UNL     1       1.711  11.085  18.557  0.00  0.00    +0.000 C 
ATOM     13  C   UNL     1       1.380   9.733  17.932  0.00  0.00    +0.000 C 
ATOM     14  N   UNL     1       1.688   8.659  18.872  0.00  0.00    +0.000 N 
ATOM     15  C   UNL     1       2.578   7.659  18.509  0.00  0.00    +0.000 C 
ATOM     16  O   UNL     1       3.153   7.664  17.415  0.00  0.00    +0.000 OA
ATOM     17  C   UNL     1       0.987   8.736  20.149  0.00  0.00    +0.000 C 
ATOM     18  C   UNL     1       1.258  10.080  20.829  0.00  0.00    +0.000 C 
BRANCH  15  19
ATOM     19  C   UNL     1       2.892   6.544  19.517  0.00  0.00    +0.000 C 
BRANCH  19  20
ATOM     20  N   UNL     1       2.140   5.287  19.257  0.00  0.00    +0.000 NA
ATOM     21  C   UNL     1       2.999   4.290  18.595  0.00  0.00    +0.000 C 
ATOM     22  C   UNL     1       2.268   2.963  18.379  0.00  0.00    +0.000 C 
ATOM     23  C   UNL     1       1.730   2.410  19.693  0.00  0.00    +0.000 C 
ATOM     24  C   UNL     1       0.865   3.458  20.378  0.00  0.00    +0.000 C 
ATOM     25  C   UNL     1       1.622   4.777  20.539  0.00  0.00    +0.000 C 
ENDBRANCH  19  20
ENDBRANCH  15  19
ENDBRANCH   7  11
BRANCH   1  32
ATOM     26  C   UNL     1      -4.250  14.853  21.783  0.00  0.00    +0.000 A 
ATOM     27  C   UNL     1      -4.453  15.439  23.046  0.00  0.00    +0.000 A 
ATOM     28  C   UNL     1      -4.584  14.647  24.184  0.00  0.00    +0.000 A 
ATOM     29  C   UNL     1      -4.553  13.272  24.055  0.00  0.00    +0.000 A 
ATOM     30  F   UNL     1      -4.681  12.502  25.144  0.00  0.00    +0.000 F 
ATOM     31  C   UNL     1      -4.391  12.675  22.810  0.00  0.00    +0.000 A 
ATOM     32  C   UNL     1      -4.197  13.439  21.640  0.00  0.00    +0.000 A 
BRANCH  26  34
ATOM     33  C   UNL     1      -3.121  16.589  20.572  0.00  0.00    +0.000 C 
ATOM     34  O   UNL     1      -4.140  15.602  20.637  0.00  0.00    +0.000 OA
ENDBRANCH  26  34
ENDBRANCH   1  32
TORSDOF 5
ENDMDL
MODEL 7
REMARK VINA RESULT:      -7.8      4.009     10.895
REMARK  Name = 
REMARK  6 active torsions:
REMARK  status: ('A' for Active; 'I' for Inactive)
REMARK    1  A    between atoms: C_1  and  O_2
REMARK    2  A    between atoms: O_2  and  C_3
REMARK    3  A    between atoms: C_9  and  C_10
REMARK    4  A    between atoms: C_16  and  C_17
REMARK    5  A    between atoms: C_21  and  C_23
REMARK    6  A    between atoms: C_23  and  N_24
REMARK                            x       y       z     vdW  Elec       q    Type
REMARK                         _______ _______ _______ _____ _____    ______ ____
ROOT
ATOM      1  C   UNL     1      -5.326  13.011  20.872  0.00  0.00    +0.000 A 
ATOM      2  C   UNL     1      -6.125  12.966  22.034  0.00  0.00    +0.000 A 
ATOM      3  C   UNL     1      -5.569  12.666  23.271  0.00  0.00    +0.000 A 
ATOM      4  N   UNL     1      -4.265  12.445  23.504  0.00  0.00    +0.000 NA
ATOM      5  C   UNL     1      -3.523  12.511  22.389  0.00  0.00    +0.000 A 
ATOM      6  N   UNL     1      -2.168  12.367  22.390  0.00  0.00    +0.000 N 
ATOM      7  C   UNL     1      -1.664  12.453  21.116  0.00  0.00    +0.000 A 
ATOM      8  C   UNL     1      -2.759  12.657  20.287  0.00  0.00    +0.000 A 
ATOM      9  C   UNL     1      -3.943  12.752  21.082  0.00  0.00    +0.000 A 
ATOM     10  H   UNL     1      -1.650  12.228  23.245  0.00  0.00    +0.000 HD
ENDROOT
BRANCH   7  11
ATOM     11  C   UNL     1      -0.199  12.364  20.769  0.00  0.00    +0.000 C 
ATOM     12  C   UNL     1       0.024  12.380  19.246  0.00  0.00    +0.000 C 
ATOM     13  C   UNL     1      -0.314  11.035  18.609  0.00  0.00    +0.000 C 
ATOM     14  N   UNL     1       0.446   9.970  19.257  0.00  0.00    +0.000 N 
ATOM     15  C   UNL     1       1.283   9.162  18.500  0.00  0.00    +0.000 C 
ATOM     16  O   UNL     1       1.434   9.337  17.286  0.00  0.00    +0.000 OA
ATOM     17  C   UNL     1       0.231   9.843  20.693  0.00  0.00    +0.000 C 
ATOM     18  C   UNL     1       0.533  11.166  21.400  0.00  0.00    +0.000 C 
BRANCH  15  19
ATOM     19  C   UNL     1       2.079   8.054  19.205  0.00  0.00    +0.000 C 
BRANCH  19  20
ATOM     20  N   UNL     1       2.470   6.942  18.295  0.00  0.00    +0.000 NA
ATOM     21  C   UNL     1       3.887   7.058  17.908  0.00  0.00    +0.000 C 
ATOM     22  C   UNL     1       4.333   5.889  17.027  0.00  0.00    +0.000 C 
ATOM     23  C   UNL     1       4.079   4.553  17.716  0.00  0.00    +0.000 C 
ATOM     24  C   UNL     1       2.618   4.457  18.134  0.00  0.00    +0.000 C 
ATOM     25  C   UNL     1       2.208   5.663  18.979  0.00  0.00    +0.000 C 
ENDBRANCH  19  20
ENDBRANCH  15  19
ENDBRANCH   7  11
BRANCH   1  32
ATOM     26  C   UNL     1      -6.010  12.326  18.498  0.00  0.00    +0.000 A 
ATOM     27  C   UNL     1      -6.489  12.678  17.223  0.00  0.00    +0.000 A 
ATOM     28  C   UNL     1      -6.813  14.000  16.925  0.00  0.00    +0.000 A 
ATOM     29  C   UNL     1      -6.697  14.960  17.912  0.00  0.00    +0.000 A 
ATOM     30  F   UNL     1      -7.009  16.234  17.637  0.00  0.00    +0.000 F 
ATOM     31  C   UNL     1      -6.261  14.623  19.189  0.00  0.00    +0.000 A 
ATOM     32  C   UNL     1      -5.868  13.308  19.517  0.00  0.00    +0.000 A 
BRANCH  26  34
ATOM     33  C   UNL     1      -6.770  10.105  18.993  0.00  0.00    +0.000 C 
ATOM     34  O   UNL     1      -5.704  11.029  18.832  0.00  0.00    +0.000 OA
ENDBRANCH  26  34
ENDBRANCH   1  32
TORSDOF 5
ENDMDL
MODEL 8
REMARK VINA RESULT:      -7.7      4.338     10.463
REMARK  Name = 
REMARK  6 active torsions:
REMARK  status: ('A' for Active; 'I' for Inactive)
REMARK    1  A    between atoms: C_1  and  O_2
REMARK    2  A    between atoms: O_2  and  C_3
REMARK    3  A    between atoms: C_9  and  C_10
REMARK    4  A    between atoms: C_16  and  C_17
REMARK    5  A    between atoms: C_21  and  C_23
REMARK    6  A    between atoms: C_23  and  N_24
REMARK                            x       y       z     vdW  Elec       q    Type
REMARK                         _______ _______ _______ _____ _____    ______ ____
ROOT
ATOM      1  C   UNL     1       1.520  15.641  19.862  0.00  0.00    +0.000 A 
ATOM      2  C   UNL     1       2.587  16.052  20.688  0.00  0.00    +0.000 A 
ATOM      3  C   UNL     1       3.275  15.136  21.475  0.00  0.00    +0.000 A 
ATOM      4  N   UNL     1       3.051  13.812  21.500  0.00  0.00    +0.000 NA
ATOM      5  C   UNL     1       2.046  13.443  20.694  0.00  0.00    +0.000 A 
ATOM      6  N   UNL     1       1.671  12.144  20.523  0.00  0.00    +0.000 N 
ATOM      7  C   UNL     1       0.603  12.050  19.666  0.00  0.00    +0.000 A 
ATOM      8  C   UNL     1       0.301  13.352  19.291  0.00  0.00    +0.000 A 
ATOM      9  C   UNL     1       1.240  14.247  19.890  0.00  0.00    +0.000 A 
ATOM     10  H   UNL     1       2.157  11.387  20.981  0.00  0.00    +0.000 HD
ENDROOT
BRANCH   7  11
ATOM     11  C   UNL     1      -0.040  10.752  19.240  0.00  0.00    +0.000 C 
ATOM     12  C   UNL     1      -0.289   9.823  20.442  0.00  0.00    +0.000 C 
ATOM     13  C   UNL     1       0.997   9.151  20.914  0.00  0.00    +0.000 C 
ATOM     14  N   UNL     1       1.628   8.443  19.803  0.00  0.00    +0.000 N 
ATOM     15  C   UNL     1       1.878   7.082  19.905  0.00  0.00    +0.000 C 
ATOM     16  O   UNL     1       1.550   6.433  20.904  0.00  0.00    +0.000 OA
ATOM     17  C   UNL     1       1.964   9.274  18.653  0.00  0.00    +0.000 C 
ATOM     18  C   UNL     1       0.720   9.999  18.134  0.00  0.00    +0.000 C 
BRANCH  15  19
ATOM     19  C   UNL     1       2.535   6.358  18.721  0.00  0.00    +0.000 C 
BRANCH  19  20
ATOM     20  N   UNL     1       2.615   4.884  18.905  0.00  0.00    +0.000 NA
ATOM     21  C   UNL     1       1.711   4.191  17.971  0.00  0.00    +0.000 C 
ATOM     22  C   UNL     1       1.824   2.669  18.092  0.00  0.00    +0.000 C 
ATOM     23  C   UNL     1       3.261   2.207  17.881  0.00  0.00    +0.000 C 
ATOM     24  C   UNL     1       4.188   2.948  18.834  0.00  0.00    +0.000 C 
ATOM     25  C   UNL     1       4.013   4.462  18.704  0.00  0.00    +0.000 C 
ENDBRANCH  19  20
ENDBRANCH  15  19
ENDBRANCH   7  11
BRANCH   1  32
ATOM     26  C   UNL     1      -0.626  16.911  19.263  0.00  0.00    +0.000 A 
ATOM     27  C   UNL     1      -1.327  17.771  18.399  0.00  0.00    +0.000 A 
ATOM     28  C   UNL     1      -0.710  18.298  17.266  0.00  0.00    +0.000 A 
ATOM     29  C   UNL     1       0.617  17.998  17.021  0.00  0.00    +0.000 A 
ATOM     30  F   UNL     1       1.220  18.503  15.937  0.00  0.00    +0.000 F 
ATOM     31  C   UNL     1       1.336  17.180  17.886  0.00  0.00    +0.000 A 
ATOM     32  C   UNL     1       0.735  16.579  19.012  0.00  0.00    +0.000 A 
BRANCH  26  34
ATOM     33  C   UNL     1      -1.363  17.248  21.521  0.00  0.00    +0.000 C 
ATOM     34  O   UNL     1      -1.196  16.392  20.401  0.00  0.00    +0.000 OA
ENDBRANCH  26  34
ENDBRANCH   1  32
TORSDOF 5
ENDMDL
MODEL 9
REMARK VINA RESULT:      -7.7      3.989     10.771
REMARK  Name = 
REMARK  6 active torsions:
REMARK  status: ('A' for Active; 'I' for Inactive)
REMARK    1  A    between atoms: C_1  and  O_2
REMARK    2  A    between atoms: O_2  and  C_3
REMARK    3  A    between atoms: C_9  and  C_10
REMARK    4  A    between atoms: C_16  and  C_17
REMARK    5  A    between atoms: C_21  and  C_23
REMARK    6  A    between atoms: C_23  and  N_24
REMARK                            x       y       z     vdW  Elec       q    Type
REMARK                         _______ _______ _______ _____ _____    ______ ____
ROOT
ATOM      1  C   UNL     1      -4.384  11.885  18.699  0.00  0.00    +0.000 A 
ATOM      2  C   UNL     1      -5.037  11.765  17.454  0.00  0.00    +0.000 A 
ATOM      3  C   UNL     1      -4.330  11.437  16.305  0.00  0.00    +0.000 A 
ATOM      4  N   UNL     1      -3.016  11.159  16.254  0.00  0.00    +0.000 NA
ATOM      5  C   UNL     1      -2.421  11.261  17.451  0.00  0.00    +0.000 A 
ATOM      6  N   UNL     1      -1.102  10.979  17.648  0.00  0.00    +0.000 N 
ATOM      7  C   UNL     1      -0.747  11.189  18.957  0.00  0.00    +0.000 A 
ATOM      8  C   UNL     1      -1.898  11.624  19.599  0.00  0.00    +0.000 A 
ATOM      9  C   UNL     1      -2.986  11.624  18.672  0.00  0.00    +0.000 A 
ATOM     10  H   UNL     1      -0.511  10.651  16.899  0.00  0.00    +0.000 HD
ENDROOT
BRANCH   7  11
ATOM     11  C   UNL     1       0.633  10.945  19.518  0.00  0.00    +0.000 C 
ATOM     12  C   UNL     1       1.688  10.839  18.402  0.00  0.00    +0.000 C 
ATOM     13  C   UNL     1       1.625   9.490  17.691  0.00  0.00    +0.000 C 
ATOM     14  N   UNL     1       1.752   8.407  18.662  0.00  0.00    +0.000 N 
ATOM     15  C   UNL     1       2.774   7.477  18.529  0.00  0.00    +0.000 C 
ATOM     16  O   UNL     1       3.611   7.555  17.623  0.00  0.00    +0.000 OA
ATOM     17  C   UNL     1       0.741   8.397  19.712  0.00  0.00    +0.000 C 
ATOM     18  C   UNL     1       0.731   9.732  20.460  0.00  0.00    +0.000 C 
BRANCH  15  19
ATOM     19  C   UNL     1       2.893   6.352  19.567  0.00  0.00    +0.000 C 
BRANCH  19  20
ATOM     20  N   UNL     1       2.978   4.997  18.957  0.00  0.00    +0.000 NA
ATOM     21  C   UNL     1       3.862   4.122  19.748  0.00  0.00    +0.000 C 
ATOM     22  C   UNL     1       3.913   2.702  19.180  0.00  0.00    +0.000 C 
ATOM     23  C   UNL     1       2.517   2.098  19.084  0.00  0.00    +0.000 C 
ATOM     24  C   UNL     1       1.608   3.022  18.286  0.00  0.00    +0.000 C 
ATOM     25  C   UNL     1       1.618   4.437  18.866  0.00  0.00    +0.000 C 
ENDBRANCH  19  20
ENDBRANCH  15  19
ENDBRANCH   7  11
BRANCH   1  32
ATOM     26  C   UNL     1      -6.393  11.798  20.289  0.00  0.00    +0.000 A 
ATOM     27  C   UNL     1      -7.020  12.213  21.477  0.00  0.00    +0.000 A 
ATOM     28  C   UNL     1      -6.381  13.094  22.348  0.00  0.00    +0.000 A 
ATOM     29  C   UNL     1      -5.102  13.526  22.050  0.00  0.00    +0.000 A 
ATOM     30  F   UNL     1      -4.479  14.370  22.883  0.00  0.00    +0.000 F 
ATOM     31  C   UNL     1      -4.454  13.095  20.898  0.00  0.00    +0.000 A 
ATOM     32  C   UNL     1      -5.085  12.251  19.961  0.00  0.00    +0.000 A 
BRANCH  26  34
ATOM     33  C   UNL     1      -7.123   9.560  19.827  0.00  0.00    +0.000 C 
ATOM     34  O   UNL     1      -6.984  10.913  19.420  0.00  0.00    +0.000 OA
ENDBRANCH  26  34
ENDBRANCH   1  32
TORSDOF 5
ENDMDL
