MODEL 1
REMARK VINA RESULT:      -8.4      0.000      0.000
REMARK  Name = 
REMARK  4 active torsions:
REMARK  status: ('A' for Active; 'I' for Inactive)
REMARK    1  A    between atoms: C_2  and  C_3
REMARK    2  A    between atoms: C_3  and  S_4
REMARK    3  A    between atoms: S_4  and  C_5
REMARK    4  A    between atoms: N_18  and  C_19
REMARK                            x       y       z     vdW  Elec       q    Type
REMARK                         _______ _______ _______ _____ _____    ______ ____
ROOT
ATOM      1  C   UNL     1       2.778   7.484  18.192  0.00  0.00    +0.000 A 
ATOM      2  N   UNL     1       2.378   8.552  17.550  0.00  0.00    +0.000 NA
ATOM      3  N   UNL     1       1.526   9.416  18.174  0.00  0.00    +0.000 N 
ATOM      4  C   UNL     1       1.176   9.249  19.465  0.00  0.00    +0.000 A 
ATOM      5  C   UNL     1       0.503   9.901  20.406  0.00  0.00    +0.000 A 
ATOM      6  C   UNL     1      -0.178  11.152  20.469  0.00  0.00    +0.000 A 
ATOM      7  C   UNL     1      -0.759  11.506  21.629  0.00  0.00    +0.000 A 
ATOM      8  C   UNL     1      -0.708  10.642  22.799  0.00  0.00    +0.000 A 
ATOM      9  C   UNL     1      -0.089   9.450  22.804  0.00  0.00    +0.000 A 
ATOM     10  C   UNL     1       0.579   8.995  21.567  0.00  0.00    +0.000 A 
ATOM     11  N   UNL     1       1.230   7.894  21.362  0.00  0.00    +0.000 NA
ATOM     12  C   UNL     1       1.669   7.997  20.071  0.00  0.00    +0.000 A 
ATOM     13  N   UNL     1       2.410   7.127  19.480  0.00  0.00    +0.000 NA
ATOM     14  H   UNL     1       1.292  10.291  17.710  0.00  0.00    +0.000 HD
ENDROOT
BRANCH   1  15
ATOM     15  S   UNL     1       3.941   6.485  17.335  0.00  0.00    +0.000 S 
BRANCH  15  16
ATOM     16  C   UNL     1       5.173   6.162  18.612  0.00  0.00    +0.000 C 
BRANCH  16  18
ATOM     17  O   UNL     1       6.077   3.975  19.091  0.00  0.00    +0.000 OA
ATOM     18  C   UNL     1       5.105   4.722  19.103  0.00  0.00    +0.000 C 
ATOM     19  N   UNL     1       3.862   4.357  19.574  0.00  0.00    +0.000 N 
ATOM     20  H   UNL     1       3.094   4.982  19.338  0.00  0.00    +0.000 HD
BRANCH  19  21
ATOM     21  C   UNL     1       3.515   3.020  20.056  0.00  0.00    +0.000 C 
ATOM     22  C   UNL     1       2.344   3.024  21.052  0.00  0.00    +0.000 C 
ATOM     23  C   UNL     1       1.078   3.577  20.399  0.00  0.00    +0.000 C 
ATOM     24  C   UNL     1       0.680   2.724  19.197  0.00  0.00    +0.000 C 
ATOM     25  C   UNL     1       1.826   2.552  18.200  0.00  0.00    +0.000 C 
ATOM     26  C   UNL     1       3.137   2.120  18.868  0.00  0.00    +0.000 C 
ENDBRANCH  19  21
ENDBRANCH  16  18
ENDBRANCH  15  16
ENDBRANCH   1  15
TORSDOF 4
ENDMDL
MODEL 2
REMARK VINA RESULT:      -8.3      0.756      1.810
REMARK  Name = 
REMARK  4 active torsions:
REMARK  status: ('A' for Active; 'I' for Inactive)
REMARK    1  A    between atoms: C_2  and  C_3
REMARK    2  A    between atoms: C_3  and  S_4
REMARK    3  A    between atoms: S_4  and  C_5
REMARK    4  A    between atoms: N_18  and  C_19
REMARK                            x       y       z     vdW  Elec       q    Type
REMARK                         _______ _______ _______ _____ _____    ______ ____
ROOT
ATOM      1  C   UNL     1       2.538   7.308  18.829  0.00  0.00    +0.000 A 
ATOM      2  N   UNL     1       2.418   6.688  19.975  0.00  0.00    +0.000 NA
ATOM      3  N   UNL     1       1.779   7.319  21.003  0.00  0.00    +0.000 N 
ATOM      4  C   UNL     1       1.180   8.514  20.830  0.00  0.00    +0.000 A 
ATOM      5  C   UNL     1       0.402   9.345  21.514  0.00  0.00    +0.000 A 
ATOM      6  C   UNL     1      -0.188   9.330  22.811  0.00  0.00    +0.000 A 
ATOM      7  C   UNL     1      -0.951  10.374  23.180  0.00  0.00    +0.000 A 
ATOM      8  C   UNL     1      -1.174  11.504  22.290  0.00  0.00    +0.000 A 
ATOM      9  C   UNL     1      -0.641  11.583  21.058  0.00  0.00    +0.000 A 
ATOM     10  C   UNL     1       0.203  10.469  20.580  0.00  0.00    +0.000 A 
ATOM     11  N   UNL     1       0.801  10.345  19.438  0.00  0.00    +0.000 NA
ATOM     12  C   UNL     1       1.407   9.121  19.504  0.00  0.00    +0.000 A 
ATOM     13  N   UNL     1       2.071   8.582  18.543  0.00  0.00    +0.000 NA
ATOM     14  H   UNL     1       1.605   6.800  21.861  0.00  0.00    +0.000 HD
ENDROOT
BRANCH   1  15
ATOM     15  S   UNL     1       3.296   6.376  17.547  0.00  0.00    +0.000 S 
BRANCH  15  16
ATOM     16  C   UNL     1       4.908   5.997  18.261  0.00  0.00    +0.000 C 
BRANCH  16  18
ATOM     17  O   UNL     1       5.998   4.040  19.163  0.00  0.00    +0.000 OA
ATOM     18  C   UNL     1       4.951   4.584  18.826  0.00  0.00    +0.000 C 
ATOM     19  N   UNL     1       3.710   3.996  18.939  0.00  0.00    +0.000 N 
ATOM     20  H   UNL     1       2.952   4.454  18.437  0.00  0.00    +0.000 HD
BRANCH  19  21
ATOM     21  C   UNL     1       3.476   2.629  19.406  0.00  0.00    +0.000 C 
ATOM     22  C   UNL     1       3.430   2.515  20.938  0.00  0.00    +0.000 C 
ATOM     23  C   UNL     1       2.290   3.356  21.511  0.00  0.00    +0.000 C 
ATOM     24  C   UNL     1       0.948   2.886  20.957  0.00  0.00    +0.000 C 
ATOM     25  C   UNL     1       0.932   2.842  19.428  0.00  0.00    +0.000 C 
ATOM     26  C   UNL     1       2.144   2.107  18.841  0.00  0.00    +0.000 C 
ENDBRANCH  19  21
ENDBRANCH  16  18
ENDBRANCH  15  16
ENDBRANCH   1  15
TORSDOF 4
ENDMDL
MODEL 3
REMARK VINA RESULT:      -7.4      2.152      4.052
REMARK  Name = 
REMARK  4 active torsions:
REMARK  status: ('A' for Active; 'I' for Inactive)
REMARK    1  A    between atoms: C_2  and  C_3
REMARK    2  A    between atoms: C_3  and  S_4
REMARK    3  A    between atoms: S_4  and  C_5
REMARK    4  A    between atoms: N_18  and  C_19
REMARK                            x       y       z     vdW  Elec       q    Type
REMARK                         _______ _______ _______ _____ _____    ______ ____
ROOT
ATOM      1  C   UNL     1       2.603   5.164  19.216  0.00  0.00    +0.000 A 
ATOM      2  N   UNL     1       2.294   5.277  20.483  0.00  0.00    +0.000 NA
ATOM      3  N   UNL     1       1.933   6.501  20.968  0.00  0.00    +0.000 N 
ATOM      4  C   UNL     1       1.785   7.564  20.152  0.00  0.00    +0.000 A 
ATOM      5  C   UNL     1       1.358   8.819  20.222  0.00  0.00    +0.000 A 
ATOM      6  C   UNL     1       0.823   9.642  21.255  0.00  0.00    +0.000 A 
ATOM      7  C   UNL     1       0.478  10.906  20.953  0.00  0.00    +0.000 A 
ATOM      8  C   UNL     1       0.647  11.439  19.609  0.00  0.00    +0.000 A 
ATOM      9  C   UNL     1       1.152  10.719  18.593  0.00  0.00    +0.000 A 
ATOM     10  C   UNL     1       1.547   9.318  18.847  0.00  0.00    +0.000 A 
ATOM     11  N   UNL     1       2.043   8.458  18.015  0.00  0.00    +0.000 NA
ATOM     12  C   UNL     1       2.186   7.316  18.754  0.00  0.00    +0.000 A 
ATOM     13  N   UNL     1       2.604   6.192  18.287  0.00  0.00    +0.000 NA
ATOM     14  H   UNL     1       1.604   6.568  21.929  0.00  0.00    +0.000 HD
ENDROOT
BRANCH   1  15
ATOM     15  S   UNL     1       2.966   3.532  18.676  0.00  0.00    +0.000 S 
BRANCH  15  16
ATOM     16  C   UNL     1       4.527   3.197  19.512  0.00  0.00    +0.000 C 
BRANCH  16  18
ATOM     17  O   UNL     1       6.172   4.942  19.797  0.00  0.00    +0.000 OA
ATOM     18  C   UNL     1       5.626   4.142  19.045  0.00  0.00    +0.000 C 
ATOM     19  N   UNL     1       5.954   3.994  17.714  0.00  0.00    +0.000 N 
ATOM     20  H   UNL     1       5.297   3.458  17.150  0.00  0.00    +0.000 HD
BRANCH  19  21
ATOM     21  C   UNL     1       6.940   4.809  17.004  0.00  0.00    +0.000 C 
ATOM     22  C   UNL     1       7.076   4.432  15.520  0.00  0.00    +0.000 C 
ATOM     23  C   UNL     1       5.754   4.637  14.784  0.00  0.00    +0.000 C 
ATOM     24  C   UNL     1       5.315   6.097  14.868  0.00  0.00    +0.000 C 
ATOM     25  C   UNL     1       5.270   6.609  16.308  0.00  0.00    +0.000 C 
ATOM     26  C   UNL     1       6.549   6.293  17.093  0.00  0.00    +0.000 C 
ENDBRANCH  19  21
ENDBRANCH  16  18
ENDBRANCH  15  16
ENDBRANCH   1  15
TORSDOF 4
ENDMDL
MODEL 4
REMARK VINA RESULT:      -7.3      1.338      2.297
REMARK  Name = 
REMARK  4 active torsions:
REMARK  status: ('A' for Active; 'I' for Inactive)
REMARK    1  A    between atoms: C_2  and  C_3
REMARK    2  A    between atoms: C_3  and  S_4
REMARK    3  A    between atoms: S_4  and  C_5
REMARK    4  A    between atoms: N_18  and  C_19
REMARK                            x       y       z     vdW  Elec       q    Type
REMARK                         _______ _______ _______ _____ _____    ______ ____
ROOT
ATOM      1  C   UNL     1       3.901   6.733  17.694  0.00  0.00    +0.000 A 
ATOM      2  N   UNL     1       3.685   6.246  18.890  0.00  0.00    +0.000 NA
ATOM      3  N   UNL     1       2.851   6.918  19.735  0.00  0.00    +0.000 N 
ATOM      4  C   UNL     1       2.166   8.007  19.328  0.00  0.00    +0.000 A 
ATOM      5  C   UNL     1       1.223   8.818  19.791  0.00  0.00    +0.000 A 
ATOM      6  C   UNL     1       0.463   8.892  20.995  0.00  0.00    +0.000 A 
ATOM      7  C   UNL     1      -0.443   9.878  21.120  0.00  0.00    +0.000 A 
ATOM      8  C   UNL     1      -0.650  10.858  20.065  0.00  0.00    +0.000 A 
ATOM      9  C   UNL     1       0.038  10.849  18.911  0.00  0.00    +0.000 A 
ATOM     10  C   UNL     1       1.046   9.790  18.697  0.00  0.00    +0.000 A 
ATOM     11  N   UNL     1       1.806   9.600  17.665  0.00  0.00    +0.000 NA
ATOM     12  C   UNL     1       2.514   8.471  17.971  0.00  0.00    +0.000 A 
ATOM     13  N   UNL     1       3.356   7.900  17.183  0.00  0.00    +0.000 NA
ATOM     14  H   UNL     1       2.611   6.490  20.626  0.00  0.00    +0.000 HD
ENDROOT
BRANCH   1  15
ATOM     15  S   UNL     1       4.919   5.747  16.655  0.00  0.00    +0.000 S 
BRANCH  15  16
ATOM     16  C   UNL     1       5.586   4.541  17.817  0.00  0.00    +0.000 C 
BRANCH  16  18
ATOM     17  O   UNL     1       4.271   2.625  17.160  0.00  0.00    +0.000 OA
ATOM     18  C   UNL     1       4.614   3.394  18.053  0.00  0.00    +0.000 C 
ATOM     19  N   UNL     1       4.180   3.296  19.358  0.00  0.00    +0.000 N 
ATOM     20  H   UNL     1       4.361   4.104  19.950  0.00  0.00    +0.000 HD
BRANCH  19  21
ATOM     21  C   UNL     1       3.207   2.314  19.840  0.00  0.00    +0.000 C 
ATOM     22  C   UNL     1       2.763   2.568  21.289  0.00  0.00    +0.000 C 
ATOM     23  C   UNL     1       2.085   3.930  21.419  0.00  0.00    +0.000 C 
ATOM     24  C   UNL     1       0.852   4.002  20.523  0.00  0.00    +0.000 C 
ATOM     25  C   UNL     1       1.165   3.639  19.071  0.00  0.00    +0.000 C 
ATOM     26  C   UNL     1       1.959   2.334  18.941  0.00  0.00    +0.000 C 
ENDBRANCH  19  21
ENDBRANCH  16  18
ENDBRANCH  15  16
ENDBRANCH   1  15
TORSDOF 4
ENDMDL
MODEL 5
REMARK VINA RESULT:      -7.3      2.244      4.383
REMARK  Name = 
REMARK  4 active torsions:
REMARK  status: ('A' for Active; 'I' for Inactive)
REMARK    1  A    between atoms: C_2  and  C_3
REMARK    2  A    between atoms: C_3  and  S_4
REMARK    3  A    between atoms: S_4  and  C_5
REMARK    4  A    between atoms: N_18  and  C_19
REMARK                            x       y       z     vdW  Elec       q    Type
REMARK                         _______ _______ _______ _____ _____    ______ ____
ROOT
ATOM      1  C   UNL     1       3.114   4.870  19.492  0.00  0.00    +0.000 A 
ATOM      2  N   UNL     1       2.583   4.852  20.689  0.00  0.00    +0.000 NA
ATOM      3  N   UNL     1       1.998   5.988  21.167  0.00  0.00    +0.000 N 
ATOM      4  C   UNL     1       1.861   7.086  20.397  0.00  0.00    +0.000 A 
ATOM      5  C   UNL     1       1.278   8.277  20.458  0.00  0.00    +0.000 A 
ATOM      6  C   UNL     1       0.478   8.955  21.424  0.00  0.00    +0.000 A 
ATOM      7  C   UNL     1       0.037  10.193  21.134  0.00  0.00    +0.000 A 
ATOM      8  C   UNL     1       0.366  10.841  19.873  0.00  0.00    +0.000 A 
ATOM      9  C   UNL     1       1.121  10.260  18.925  0.00  0.00    +0.000 A 
ATOM     10  C   UNL     1       1.635   8.896  19.169  0.00  0.00    +0.000 A 
ATOM     11  N   UNL     1       2.368   8.162  18.392  0.00  0.00    +0.000 NA
ATOM     12  C   UNL     1       2.522   6.991  19.081  0.00  0.00    +0.000 A 
ATOM     13  N   UNL     1       3.148   5.959  18.636  0.00  0.00    +0.000 NA
ATOM     14  H   UNL     1       1.504   5.945  22.056  0.00  0.00    +0.000 HD
ENDROOT
BRANCH   1  15
ATOM     15  S   UNL     1       3.762   3.334  18.936  0.00  0.00    +0.000 S 
BRANCH  15  16
ATOM     16  C   UNL     1       3.528   3.451  17.152  0.00  0.00    +0.000 C 
BRANCH  16  18
ATOM     17  O   UNL     1       4.892   3.963  15.227  0.00  0.00    +0.000 OA
ATOM     18  C   UNL     1       4.811   3.869  16.447  0.00  0.00    +0.000 C 
ATOM     19  N   UNL     1       5.850   4.147  17.309  0.00  0.00    +0.000 N 
ATOM     20  H   UNL     1       5.730   3.832  18.269  0.00  0.00    +0.000 HD
BRANCH  19  21
ATOM     21  C   UNL     1       7.201   4.522  16.890  0.00  0.00    +0.000 C 
ATOM     22  C   UNL     1       7.260   5.900  16.211  0.00  0.00    +0.000 C 
ATOM     23  C   UNL     1       6.797   6.997  17.167  0.00  0.00    +0.000 C 
ATOM     24  C   UNL     1       7.687   7.037  18.406  0.00  0.00    +0.000 C 
ATOM     25  C   UNL     1       7.797   5.673  19.089  0.00  0.00    +0.000 C 
ATOM     26  C   UNL     1       8.137   4.543  18.110  0.00  0.00    +0.000 C 
ENDBRANCH  19  21
ENDBRANCH  16  18
ENDBRANCH  15  16
ENDBRANCH   1  15
TORSDOF 4
ENDMDL
MODEL 6
REMARK VINA RESULT:      -7.3      4.733      8.037
REMARK  Name = 
REMARK  4 active torsions:
REMARK  status: ('A' for Active; 'I' for Inactive)
REMARK    1  A    between atoms: C_2  and  C_3
REMARK    2  A    between atoms: C_3  and  S_4
REMARK    3  A    between atoms: S_4  and  C_5
REMARK    4  A    between atoms: N_18  and  C_19
REMARK                            x       y       z     vdW  Elec       q    Type
REMARK                         _______ _______ _______ _____ _____    ______ ____
ROOT
ATOM      1  C   UNL     1       6.099   6.080  17.601  0.00  0.00    +0.000 A 
ATOM      2  N   UNL     1       5.022   6.818  17.520  0.00  0.00    +0.000 NA
ATOM      3  N   UNL     1       3.868   6.365  18.090  0.00  0.00    +0.000 N 
ATOM      4  C   UNL     1       3.842   5.233  18.821  0.00  0.00    +0.000 A 
ATOM      5  C   UNL     1       2.990   4.564  19.590  0.00  0.00    +0.000 A 
ATOM      6  C   UNL     1       1.646   4.771  20.015  0.00  0.00    +0.000 A 
ATOM      7  C   UNL     1       1.084   3.859  20.828  0.00  0.00    +0.000 A 
ATOM      8  C   UNL     1       1.815   2.680  21.267  0.00  0.00    +0.000 A 
ATOM      9  C   UNL     1       3.081   2.423  20.897  0.00  0.00    +0.000 A 
ATOM     10  C   UNL     1       3.768   3.384  20.010  0.00  0.00    +0.000 A 
ATOM     11  N   UNL     1       4.976   3.329  19.545  0.00  0.00    +0.000 NA
ATOM     12  C   UNL     1       5.110   4.479  18.817  0.00  0.00    +0.000 A 
ATOM     13  N   UNL     1       6.191   4.845  18.223  0.00  0.00    +0.000 NA
ATOM     14  H   UNL     1       3.057   6.981  18.108  0.00  0.00    +0.000 HD
ENDROOT
BRANCH   1  15
ATOM     15  S   UNL     1       7.551   6.793  16.914  0.00  0.00    +0.000 S 
BRANCH  15  16
ATOM     16  C   UNL     1       8.189   7.756  18.299  0.00  0.00    +0.000 C 
BRANCH  16  18
ATOM     17  O   UNL     1       7.144   9.765  17.462  0.00  0.00    +0.000 OA
ATOM     18  C   UNL     1       8.104   9.251  18.027  0.00  0.00    +0.000 C 
ATOM     19  N   UNL     1       9.190   9.961  18.492  0.00  0.00    +0.000 N 
ATOM     20  H   UNL     1      10.007   9.409  18.747  0.00  0.00    +0.000 HD
BRANCH  19  21
ATOM     21  C   UNL     1       9.380  11.401  18.318  0.00  0.00    +0.000 C 
ATOM     22  C   UNL     1       9.188  12.196  19.619  0.00  0.00    +0.000 C 
ATOM     23  C   UNL     1      10.203  11.763  20.675  0.00  0.00    +0.000 C 
ATOM     24  C   UNL     1      11.627  11.999  20.177  0.00  0.00    +0.000 C 
ATOM     25  C   UNL     1      11.884  11.350  18.817  0.00  0.00    +0.000 C 
ATOM     26  C   UNL     1      10.797  11.678  17.786  0.00  0.00    +0.000 C 
ENDBRANCH  19  21
ENDBRANCH  16  18
ENDBRANCH  15  16
ENDBRANCH   1  15
TORSDOF 4
ENDMDL
MODEL 7
REMARK VINA RESULT:      -7.3      4.814      8.300
REMARK  Name = 
REMARK  4 active torsions:
REMARK  status: ('A' for Active; 'I' for Inactive)
REMARK    1  A    between atoms: C_2  and  C_3
REMARK    2  A    between atoms: C_3  and  S_4
REMARK    3  A    between atoms: S_4  and  C_5
REMARK    4  A    between atoms: N_18  and  C_19
REMARK                            x       y       z     vdW  Elec       q    Type
REMARK                         _______ _______ _______ _____ _____    ______ ____
ROOT
ATOM      1  C   UNL     1       6.239   6.023  17.969  0.00  0.00    +0.000 A 
ATOM      2  N   UNL     1       6.590   5.426  19.080  0.00  0.00    +0.000 NA
ATOM      3  N   UNL     1       5.652   4.718  19.773  0.00  0.00    +0.000 N 
ATOM      4  C   UNL     1       4.408   4.534  19.285  0.00  0.00    +0.000 A 
ATOM      5  C   UNL     1       3.313   3.848  19.588  0.00  0.00    +0.000 A 
ATOM      6  C   UNL     1       2.953   2.937  20.623  0.00  0.00    +0.000 A 
ATOM      7  C   UNL     1       1.715   2.409  20.610  0.00  0.00    +0.000 A 
ATOM      8  C   UNL     1       0.753   2.755  19.575  0.00  0.00    +0.000 A 
ATOM      9  C   UNL     1       1.027   3.612  18.576  0.00  0.00    +0.000 A 
ATOM     10  C   UNL     1       2.370   4.226  18.520  0.00  0.00    +0.000 A 
ATOM     11  N   UNL     1       2.835   5.064  17.648  0.00  0.00    +0.000 NA
ATOM     12  C   UNL     1       4.128   5.277  18.041  0.00  0.00    +0.000 A 
ATOM     13  N   UNL     1       4.972   6.014  17.409  0.00  0.00    +0.000 NA
ATOM     14  H   UNL     1       5.948   4.178  20.583  0.00  0.00    +0.000 HD
ENDROOT
BRANCH   1  15
ATOM     15  S   UNL     1       7.540   6.832  17.109  0.00  0.00    +0.000 S 
BRANCH  15  16
ATOM     16  C   UNL     1       8.289   7.830  18.410  0.00  0.00    +0.000 C 
BRANCH  16  18
ATOM     17  O   UNL     1       7.315   9.789  17.389  0.00  0.00    +0.000 OA
ATOM     18  C   UNL     1       8.199   9.317  18.097  0.00  0.00    +0.000 C 
ATOM     19  N   UNL     1       9.184  10.070  18.699  0.00  0.00    +0.000 N 
ATOM     20  H   UNL     1       9.972   9.550  19.080  0.00  0.00    +0.000 HD
BRANCH  19  21
ATOM     21  C   UNL     1       9.354  11.513  18.523  0.00  0.00    +0.000 C 
ATOM     22  C   UNL     1       9.362  12.285  19.851  0.00  0.00    +0.000 C 
ATOM     23  C   UNL     1      10.522  11.830  20.736  0.00  0.00    +0.000 C 
ATOM     24  C   UNL     1      11.856  12.072  20.035  0.00  0.00    +0.000 C 
ATOM     25  C   UNL     1      11.903  11.446  18.641  0.00  0.00    +0.000 C 
ATOM     26  C   UNL     1      10.676  11.795  17.789  0.00  0.00    +0.000 C 
ENDBRANCH  19  21
ENDBRANCH  16  18
ENDBRANCH  15  16
ENDBRANCH   1  15
TORSDOF 4
ENDMDL
MODEL 8
REMARK VINA RESULT:      -7.1      4.734      8.170
REMARK  Name = 
REMARK  4 active torsions:
REMARK  status: ('A' for Active; 'I' for Inactive)
REMARK    1  A    between atoms: C_2  and  C_3
REMARK    2  A    between atoms: C_3  and  S_4
REMARK    3  A    between atoms: S_4  and  C_5
REMARK    4  A    between atoms: N_18  and  C_19
REMARK                            x       y       z     vdW  Elec       q    Type
REMARK                         _______ _______ _______ _____ _____    ______ ____
ROOT
ATOM      1  C   UNL     1       6.390   5.724  17.791  0.00  0.00    +0.000 A 
ATOM      2  N   UNL     1       6.490   4.443  17.542  0.00  0.00    +0.000 NA
ATOM      3  N   UNL     1       5.556   3.595  18.064  0.00  0.00    +0.000 N 
ATOM      4  C   UNL     1       4.482   4.059  18.735  0.00  0.00    +0.000 A 
ATOM      5  C   UNL     1       3.358   3.588  19.261  0.00  0.00    +0.000 A 
ATOM      6  C   UNL     1       2.750   2.301  19.342  0.00  0.00    +0.000 A 
ATOM      7  C   UNL     1       1.562   2.194  19.965  0.00  0.00    +0.000 A 
ATOM      8  C   UNL     1       0.904   3.351  20.552  0.00  0.00    +0.000 A 
ATOM      9  C   UNL     1       1.428   4.588  20.516  0.00  0.00    +0.000 A 
ATOM     10  C   UNL     1       2.728   4.787  19.843  0.00  0.00    +0.000 A 
ATOM     11  N   UNL     1       3.396   5.886  19.693  0.00  0.00    +0.000 NA
ATOM     12  C   UNL     1       4.497   5.516  18.971  0.00  0.00    +0.000 A 
ATOM     13  N   UNL     1       5.406   6.327  18.557  0.00  0.00    +0.000 NA
ATOM     14  H   UNL     1       5.581   2.615  17.793  0.00  0.00    +0.000 HD
ENDROOT
BRANCH   1  15
ATOM     15  S   UNL     1       7.589   6.736  17.000  0.00  0.00    +0.000 S 
BRANCH  15  16
ATOM     16  C   UNL     1       8.172   7.763  18.362  0.00  0.00    +0.000 C 
BRANCH  16  18
ATOM     17  O   UNL     1       7.430   9.685  17.102  0.00  0.00    +0.000 OA
ATOM     18  C   UNL     1       8.135   9.242  18.003  0.00  0.00    +0.000 C 
ATOM     19  N   UNL     1       8.947  10.024  18.796  0.00  0.00    +0.000 N 
ATOM     20  H   UNL     1       9.635   9.527  19.359  0.00  0.00    +0.000 HD
BRANCH  19  21
ATOM     21  C   UNL     1       9.132  11.467  18.631  0.00  0.00    +0.000 C 
ATOM     22  C   UNL     1       9.291  12.211  19.966  0.00  0.00    +0.000 C 
ATOM     23  C   UNL     1      10.521  11.713  20.722  0.00  0.00    +0.000 C 
ATOM     24  C   UNL     1      11.785  11.940  19.897  0.00  0.00    +0.000 C 
ATOM     25  C   UNL     1      11.679  11.342  18.493  0.00  0.00    +0.000 C 
ATOM     26  C   UNL     1      10.382  11.736  17.775  0.00  0.00    +0.000 C 
ENDBRANCH  19  21
ENDBRANCH  16  18
ENDBRANCH  15  16
ENDBRANCH   1  15
TORSDOF 4
ENDMDL
MODEL 9
REMARK VINA RESULT:      -7.1      2.169      4.405
REMARK  Name = 
REMARK  4 active torsions:
REMARK  status: ('A' for Active; 'I' for Inactive)
REMARK    1  A    between atoms: C_2  and  C_3
REMARK    2  A    between atoms: C_3  and  S_4
REMARK    3  A    between atoms: S_4  and  C_5
REMARK    4  A    between atoms: N_18  and  C_19
REMARK                            x       y       z     vdW  Elec       q    Type
REMARK                         _______ _______ _______ _____ _____    ______ ____
ROOT
ATOM      1  C   UNL     1       2.065   3.944  19.604  0.00  0.00    +0.000 A 
ATOM      2  N   UNL     1       1.843   4.369  20.822  0.00  0.00    +0.000 NA
ATOM      3  N   UNL     1       1.773   5.713  21.049  0.00  0.00    +0.000 N 
ATOM      4  C   UNL     1       1.819   6.600  20.035  0.00  0.00    +0.000 A 
ATOM      5  C   UNL     1       1.673   7.907  19.849  0.00  0.00    +0.000 A 
ATOM      6  C   UNL     1       1.370   9.014  20.694  0.00  0.00    +0.000 A 
ATOM      7  C   UNL     1       1.290  10.238  20.142  0.00  0.00    +0.000 A 
ATOM      8  C   UNL     1       1.510  10.445  18.719  0.00  0.00    +0.000 A 
ATOM      9  C   UNL     1       1.806   9.446  17.870  0.00  0.00    +0.000 A 
ATOM     10  C   UNL     1       1.903   8.071  18.402  0.00  0.00    +0.000 A 
ATOM     11  N   UNL     1       2.169   6.977  17.761  0.00  0.00    +0.000 NA
ATOM     12  C   UNL     1       2.097   6.000  18.715  0.00  0.00    +0.000 A 
ATOM     13  N   UNL     1       2.245   4.743  18.486  0.00  0.00    +0.000 NA
ATOM     14  H   UNL     1       1.507   6.038  21.976  0.00  0.00    +0.000 HD
ENDROOT
BRANCH   1  15
ATOM     15  S   UNL     1       2.048   2.198  19.405  0.00  0.00    +0.000 S 
BRANCH  15  16
ATOM     16  C   UNL     1       3.577   1.909  18.494  0.00  0.00    +0.000 C 
BRANCH  16  18
ATOM     17  O   UNL     1       5.139   2.830  20.089  0.00  0.00    +0.000 OA
ATOM     18  C   UNL     1       4.685   2.849  18.950  0.00  0.00    +0.000 C 
ATOM     19  N   UNL     1       5.134   3.696  17.959  0.00  0.00    +0.000 N 
ATOM     20  H   UNL     1       4.546   3.765  17.131  0.00  0.00    +0.000 HD
BRANCH  19  21
ATOM     21  C   UNL     1       6.156   4.727  18.146  0.00  0.00    +0.000 C 
ATOM     22  C   UNL     1       7.421   4.480  17.309  0.00  0.00    +0.000 C 
ATOM     23  C   UNL     1       7.094   4.477  15.817  0.00  0.00    +0.000 C 
ATOM     24  C   UNL     1       6.499   5.819  15.397  0.00  0.00    +0.000 C 
ATOM     25  C   UNL     1       5.301   6.220  16.259  0.00  0.00    +0.000 C 
ATOM     26  C   UNL     1       5.582   6.102  17.762  0.00  0.00    +0.000 C 
ENDBRANCH  19  21
ENDBRANCH  16  18
ENDBRANCH  15  16
ENDBRANCH   1  15
TORSDOF 4
ENDMDL
