MODEL 1
REMARK VINA RESULT:      -9.0      0.000      0.000
REMARK  Name = 
REMARK  8 active torsions:
REMARK  status: ('A' for Active; 'I' for Inactive)
REMARK    1  A    between atoms: C_1  and  C_2
REMARK    2  A    between atoms: C_2  and  C_3
REMARK    3  A    between atoms: C_7  and  C_8
REMARK    4  A    between atoms: C_8  and  C_10
REMARK    5  A    between atoms: C_14  and  O_15
REMARK    6  A    between atoms: O_15  and  C_16
REMARK    7  A    between atoms: C_16  and  C_17
REMARK    8  A    between atoms: C_25  and  O_26
REMARK                            x       y       z     vdW  Elec       q    Type
REMARK                         _______ _______ _______ _____ _____    ______ ____
ROOT
ATOM      1  C   UNL     1       6.362   6.468  17.413  0.00  0.00    +0.000 A 
ATOM      2  C   UNL     1       6.976   5.638  18.361  0.00  0.00    +0.000 A 
ATOM      3  C   UNL     1       8.067   6.097  19.093  0.00  0.00    +0.000 A 
ATOM      4  C   UNL     1       8.526   7.400  18.915  0.00  0.00    +0.000 A 
ATOM      5  C   UNL     1       7.899   8.251  17.999  0.00  0.00    +0.000 A 
ATOM      6  C   UNL     1       6.788   7.797  17.277  0.00  0.00    +0.000 A 
ENDROOT
BRANCH   1   7
ATOM      7  C   UNL     1       5.287   5.949  16.521  0.00  0.00    +0.000 C 
ATOM      8  O   UNL     1       5.274   6.249  15.328  0.00  0.00    +0.000 OA
BRANCH   7  15
ATOM      9  C   UNL     1       0.954   2.539  18.628  0.00  0.00    +0.000 C 
ATOM     10  C   UNL     1       2.218   3.409  18.507  0.00  0.00    +0.000 C 
ATOM     11  C   UNL     1       2.893   3.476  19.892  0.00  0.00    +0.000 C 
ATOM     12  C   UNL     1       1.815   4.810  18.040  0.00  0.00    +0.000 C 
ATOM     13  C   UNL     1       3.035   5.674  17.839  0.00  0.00    +0.000 C 
ATOM     14  O   UNL     1       3.054   6.831  18.261  0.00  0.00    +0.000 OA
ATOM     15  C   UNL     1       4.199   5.097  17.107  0.00  0.00    +0.000 C 
ATOM     16  C   UNL     1       4.268   3.748  16.998  0.00  0.00    +0.000 C 
ATOM     17  C   UNL     1       3.182   2.803  17.466  0.00  0.00    +0.000 C 
BRANCH  16  18
ATOM     18  O   UNL     1       5.349   3.084  16.439  0.00  0.00    +0.000 OA
ATOM     19  H   UNL     1       5.939   2.773  17.165  0.00  0.00    +0.000 HD
ENDBRANCH  16  18
ENDBRANCH   7  15
ENDBRANCH   1   7
BRANCH   5  20
ATOM     20  O   UNL     1       8.317   9.528  17.725  0.00  0.00    +0.000 OA
BRANCH  20  21
ATOM     21  C   UNL     1       9.057  10.154  18.780  0.00  0.00    +0.000 C 
BRANCH  21  22
ATOM     22  C   UNL     1       9.592  11.484  18.311  0.00  0.00    +0.000 A 
ATOM     23  C   UNL     1      10.871  11.581  17.744  0.00  0.00    +0.000 A 
ATOM     24  C   UNL     1      11.362  12.818  17.320  0.00  0.00    +0.000 A 
ATOM     25  C   UNL     1      10.577  13.961  17.464  0.00  0.00    +0.000 A 
ATOM     26 BR   UNL     1      11.253  15.642  16.923  0.00  0.00    +0.000 Br
ATOM     27  C   UNL     1       9.300  13.879  18.014  0.00  0.00    +0.000 A 
ATOM     28  C   UNL     1       8.810  12.642  18.436  0.00  0.00    +0.000 A 
ENDBRANCH  21  22
ENDBRANCH  20  21
ENDBRANCH   5  20
TORSDOF 6
ENDMDL
MODEL 2
REMARK VINA RESULT:      -8.3      5.243      6.422
REMARK  Name = 
REMARK  8 active torsions:
REMARK  status: ('A' for Active; 'I' for Inactive)
REMARK    1  A    between atoms: C_1  and  C_2
REMARK    2  A    between atoms: C_2  and  C_3
REMARK    3  A    between atoms: C_7  and  C_8
REMARK    4  A    between atoms: C_8  and  C_10
REMARK    5  A    between atoms: C_14  and  O_15
REMARK    6  A    between atoms: O_15  and  C_16
REMARK    7  A    between atoms: C_16  and  C_17
REMARK    8  A    between atoms: C_25  and  O_26
REMARK                            x       y       z     vdW  Elec       q    Type
REMARK                         _______ _______ _______ _____ _____    ______ ____
ROOT
ATOM      1  C   UNL     1       4.483   4.364  16.842  0.00  0.00    +0.000 A 
ATOM      2  C   UNL     1       5.247   4.511  15.675  0.00  0.00    +0.000 A 
ATOM      3  C   UNL     1       5.542   5.779  15.185  0.00  0.00    +0.000 A 
ATOM      4  C   UNL     1       5.113   6.909  15.877  0.00  0.00    +0.000 A 
ATOM      5  C   UNL     1       4.382   6.777  17.062  0.00  0.00    +0.000 A 
ATOM      6  C   UNL     1       4.103   5.501  17.568  0.00  0.00    +0.000 A 
ENDROOT
BRANCH   1   7
ATOM      7  C   UNL     1       4.039   3.018  17.303  0.00  0.00    +0.000 C 
ATOM      8  O   UNL     1       4.278   2.021  16.623  0.00  0.00    +0.000 OA
BRANCH   7  15
ATOM      9  C   UNL     1       1.016   2.362  22.330  0.00  0.00    +0.000 C 
ATOM     10  C   UNL     1       1.760   2.967  21.127  0.00  0.00    +0.000 C 
ATOM     11  C   UNL     1       1.766   4.502  21.284  0.00  0.00    +0.000 C 
ATOM     12  C   UNL     1       1.036   2.564  19.839  0.00  0.00    +0.000 C 
ATOM     13  C   UNL     1       1.776   3.077  18.629  0.00  0.00    +0.000 C 
ATOM     14  O   UNL     1       1.162   3.614  17.707  0.00  0.00    +0.000 OA
ATOM     15  C   UNL     1       3.256   2.904  18.578  0.00  0.00    +0.000 C 
ATOM     16  C   UNL     1       3.901   2.655  19.744  0.00  0.00    +0.000 C 
ATOM     17  C   UNL     1       3.204   2.426  21.067  0.00  0.00    +0.000 C 
BRANCH  16  18
ATOM     18  O   UNL     1       5.282   2.582  19.849  0.00  0.00    +0.000 OA
ATOM     19  H   UNL     1       5.568   1.663  19.635  0.00  0.00    +0.000 HD
ENDBRANCH  16  18
ENDBRANCH   7  15
ENDBRANCH   1   7
BRANCH   5  20
ATOM     20  O   UNL     1       3.879   7.834  17.777  0.00  0.00    +0.000 OA
BRANCH  20  21
ATOM     21  C   UNL     1       2.503   8.134  17.512  0.00  0.00    +0.000 C 
BRANCH  21  22
ATOM     22  C   UNL     1       1.814   8.549  18.787  0.00  0.00    +0.000 A 
ATOM     23  C   UNL     1       1.034   9.713  18.833  0.00  0.00    +0.000 A 
ATOM     24  C   UNL     1       0.405  10.094  20.021  0.00  0.00    +0.000 A 
ATOM     25  C   UNL     1       0.557   9.314  21.166  0.00  0.00    +0.000 A 
ATOM     26 BR   UNL     1      -0.264   9.848  22.783  0.00  0.00    +0.000 Br
ATOM     27  C   UNL     1       1.319   8.149  21.133  0.00  0.00    +0.000 A 
ATOM     28  C   UNL     1       1.945   7.769  19.946  0.00  0.00    +0.000 A 
ENDBRANCH  21  22
ENDBRANCH  20  21
ENDBRANCH   5  20
TORSDOF 6
ENDMDL
MODEL 3
REMARK VINA RESULT:      -8.3      1.058      1.239
REMARK  Name = 
REMARK  8 active torsions:
REMARK  status: ('A' for Active; 'I' for Inactive)
REMARK    1  A    between atoms: C_1  and  C_2
REMARK    2  A    between atoms: C_2  and  C_3
REMARK    3  A    between atoms: C_7  and  C_8
REMARK    4  A    between atoms: C_8  and  C_10
REMARK    5  A    between atoms: C_14  and  O_15
REMARK    6  A    between atoms: O_15  and  C_16
REMARK    7  A    between atoms: C_16  and  C_17
REMARK    8  A    between atoms: C_25  and  O_26
REMARK                            x       y       z     vdW  Elec       q    Type
REMARK                         _______ _______ _______ _____ _____    ______ ____
ROOT
ATOM      1  C   UNL     1       6.349   6.393  17.467  0.00  0.00    +0.000 A 
ATOM      2  C   UNL     1       6.950   5.547  18.411  0.00  0.00    +0.000 A 
ATOM      3  C   UNL     1       8.044   5.986  19.150  0.00  0.00    +0.000 A 
ATOM      4  C   UNL     1       8.520   7.284  18.983  0.00  0.00    +0.000 A 
ATOM      5  C   UNL     1       7.907   8.151  18.074  0.00  0.00    +0.000 A 
ATOM      6  C   UNL     1       6.793   7.717  17.344  0.00  0.00    +0.000 A 
ENDROOT
BRANCH   1   7
ATOM      7  C   UNL     1       5.270   5.895  16.568  0.00  0.00    +0.000 C 
ATOM      8  O   UNL     1       5.266   6.204  15.378  0.00  0.00    +0.000 OA
BRANCH   7  15
ATOM      9  C   UNL     1       0.883   2.532  18.637  0.00  0.00    +0.000 C 
ATOM     10  C   UNL     1       2.151   3.396  18.529  0.00  0.00    +0.000 C 
ATOM     11  C   UNL     1       2.798   3.483  19.927  0.00  0.00    +0.000 C 
ATOM     12  C   UNL     1       1.763   4.791  18.032  0.00  0.00    +0.000 C 
ATOM     13  C   UNL     1       2.990   5.648  17.842  0.00  0.00    +0.000 C 
ATOM     14  O   UNL     1       3.003   6.811  18.246  0.00  0.00    +0.000 OA
ATOM     15  C   UNL     1       4.168   5.056  17.145  0.00  0.00    +0.000 C 
ATOM     16  C   UNL     1       4.234   3.705  17.058  0.00  0.00    +0.000 C 
ATOM     17  C   UNL     1       3.136   2.771  17.519  0.00  0.00    +0.000 C 
BRANCH  16  18
ATOM     18  O   UNL     1       5.325   3.030  16.534  0.00  0.00    +0.000 OA
ATOM     19  H   UNL     1       5.793   3.626  15.903  0.00  0.00    +0.000 HD
ENDBRANCH  16  18
ENDBRANCH   7  15
ENDBRANCH   1   7
BRANCH   5  20
ATOM     20  O   UNL     1       8.343   9.425  17.812  0.00  0.00    +0.000 OA
BRANCH  20  21
ATOM     21  C   UNL     1       9.322   9.923  18.731  0.00  0.00    +0.000 C 
BRANCH  21  22
ATOM     22  C   UNL     1       9.165  11.414  18.889  0.00  0.00    +0.000 A 
ATOM     23  C   UNL     1       8.768  12.210  17.805  0.00  0.00    +0.000 A 
ATOM     24  C   UNL     1       8.633  13.593  17.957  0.00  0.00    +0.000 A 
ATOM     25  C   UNL     1       8.896  14.182  19.193  0.00  0.00    +0.000 A 
ATOM     26 BR   UNL     1       8.748  16.056  19.392  0.00  0.00    +0.000 Br
ATOM     27  C   UNL     1       9.279  13.403  20.282  0.00  0.00    +0.000 A 
ATOM     28  C   UNL     1       9.413  12.022  20.129  0.00  0.00    +0.000 A 
ENDBRANCH  21  22
ENDBRANCH  20  21
ENDBRANCH   5  20
TORSDOF 6
ENDMDL
MODEL 4
REMARK VINA RESULT:      -8.2      1.779      2.378
REMARK  Name = 
REMARK  8 active torsions:
REMARK  status: ('A' for Active; 'I' for Inactive)
REMARK    1  A    between atoms: C_1  and  C_2
REMARK    2  A    between atoms: C_2  and  C_3
REMARK    3  A    between atoms: C_7  and  C_8
REMARK    4  A    between atoms: C_8  and  C_10
REMARK    5  A    between atoms: C_14  and  O_15
REMARK    6  A    between atoms: O_15  and  C_16
REMARK    7  A    between atoms: C_16  and  C_17
REMARK    8  A    between atoms: C_25  and  O_26
REMARK                            x       y       z     vdW  Elec       q    Type
REMARK                         _______ _______ _______ _____ _____    ______ ____
ROOT
ATOM      1  C   UNL     1       6.338   5.294  18.106  0.00  0.00    +0.000 A 
ATOM      2  C   UNL     1       6.236   4.662  16.858  0.00  0.00    +0.000 A 
ATOM      3  C   UNL     1       6.711   5.293  15.712  0.00  0.00    +0.000 A 
ATOM      4  C   UNL     1       7.326   6.538  15.808  0.00  0.00    +0.000 A 
ATOM      5  C   UNL     1       7.468   7.163  17.051  0.00  0.00    +0.000 A 
ATOM      6  C   UNL     1       7.010   6.520  18.208  0.00  0.00    +0.000 A 
ENDROOT
BRANCH   1   7
ATOM      7  C   UNL     1       5.710   4.699  19.320  0.00  0.00    +0.000 C 
ATOM      8  O   UNL     1       6.335   4.649  20.378  0.00  0.00    +0.000 OA
BRANCH   7  15
ATOM      9  C   UNL     1       0.343   2.308  18.755  0.00  0.00    +0.000 C 
ATOM     10  C   UNL     1       1.578   3.042  19.305  0.00  0.00    +0.000 C 
ATOM     11  C   UNL     1       1.261   3.513  20.739  0.00  0.00    +0.000 C 
ATOM     12  C   UNL     1       1.887   4.241  18.405  0.00  0.00    +0.000 C 
ATOM     13  C   UNL     1       3.137   4.947  18.869  0.00  0.00    +0.000 C 
ATOM     14  O   UNL     1       3.166   6.175  18.942  0.00  0.00    +0.000 OA
ATOM     15  C   UNL     1       4.329   4.121  19.219  0.00  0.00    +0.000 C 
ATOM     16  C   UNL     1       4.130   2.804  19.471  0.00  0.00    +0.000 C 
ATOM     17  C   UNL     1       2.800   2.100  19.305  0.00  0.00    +0.000 C 
BRANCH  16  18
ATOM     18  O   UNL     1       5.132   1.954  19.911  0.00  0.00    +0.000 OA
ATOM     19  H   UNL     1       4.878   1.026  19.696  0.00  0.00    +0.000 HD
ENDBRANCH  16  18
ENDBRANCH   7  15
ENDBRANCH   1   7
BRANCH   5  20
ATOM     20  O   UNL     1       8.014   8.409  17.228  0.00  0.00    +0.000 OA
BRANCH  20  21
ATOM     21  C   UNL     1       8.523   8.657  18.544  0.00  0.00    +0.000 C 
BRANCH  21  22
ATOM     22  C   UNL     1       8.920  10.106  18.675  0.00  0.00    +0.000 A 
ATOM     23  C   UNL     1       9.652  10.549  19.786  0.00  0.00    +0.000 A 
ATOM     24  C   UNL     1      10.009  11.895  19.904  0.00  0.00    +0.000 A 
ATOM     25  C   UNL     1       9.632  12.800  18.913  0.00  0.00    +0.000 A 
ATOM     26 BR   UNL     1      10.084  14.628  19.088  0.00  0.00    +0.000 Br
ATOM     27  C   UNL     1       8.916  12.373  17.798  0.00  0.00    +0.000 A 
ATOM     28  C   UNL     1       8.561  11.028  17.681  0.00  0.00    +0.000 A 
ENDBRANCH  21  22
ENDBRANCH  20  21
ENDBRANCH   5  20
TORSDOF 6
ENDMDL
MODEL 5
REMARK VINA RESULT:      -8.0      6.136      8.301
REMARK  Name = 
REMARK  8 active torsions:
REMARK  status: ('A' for Active; 'I' for Inactive)
REMARK    1  A    between atoms: C_1  and  C_2
REMARK    2  A    between atoms: C_2  and  C_3
REMARK    3  A    between atoms: C_7  and  C_8
REMARK    4  A    between atoms: C_8  and  C_10
REMARK    5  A    between atoms: C_14  and  O_15
REMARK    6  A    between atoms: O_15  and  C_16
REMARK    7  A    between atoms: C_16  and  C_17
REMARK    8  A    between atoms: C_25  and  O_26
REMARK                            x       y       z     vdW  Elec       q    Type
REMARK                         _______ _______ _______ _____ _____    ______ ____
ROOT
ATOM      1  C   UNL     1       2.368   7.644  18.835  0.00  0.00    +0.000 A 
ATOM      2  C   UNL     1       2.067   7.319  20.165  0.00  0.00    +0.000 A 
ATOM      3  C   UNL     1       1.265   8.161  20.929  0.00  0.00    +0.000 A 
ATOM      4  C   UNL     1       0.725   9.311  20.360  0.00  0.00    +0.000 A 
ATOM      5  C   UNL     1       0.986   9.629  19.023  0.00  0.00    +0.000 A 
ATOM      6  C   UNL     1       1.776   8.771  18.247  0.00  0.00    +0.000 A 
ENDROOT
BRANCH   1   7
ATOM      7  C   UNL     1       3.337   6.831  18.047  0.00  0.00    +0.000 C 
ATOM      8  O   UNL     1       4.049   7.367  17.199  0.00  0.00    +0.000 OA
BRANCH   7  15
ATOM      9  C   UNL     1       3.745   0.991  18.795  0.00  0.00    +0.000 C 
ATOM     10  C   UNL     1       3.370   2.474  18.957  0.00  0.00    +0.000 C 
ATOM     11  C   UNL     1       2.438   2.605  20.180  0.00  0.00    +0.000 C 
ATOM     12  C   UNL     1       2.657   2.950  17.689  0.00  0.00    +0.000 C 
ATOM     13  C   UNL     1       2.337   4.421  17.778  0.00  0.00    +0.000 C 
ATOM     14  O   UNL     1       1.228   4.837  17.441  0.00  0.00    +0.000 OA
ATOM     15  C   UNL     1       3.397   5.348  18.269  0.00  0.00    +0.000 C 
ATOM     16  C   UNL     1       4.433   4.811  18.957  0.00  0.00    +0.000 C 
ATOM     17  C   UNL     1       4.641   3.325  19.155  0.00  0.00    +0.000 C 
BRANCH  16  18
ATOM     18  O   UNL     1       5.423   5.573  19.557  0.00  0.00    +0.000 OA
ATOM     19  H   UNL     1       5.872   6.113  18.865  0.00  0.00    +0.000 HD
ENDBRANCH  16  18
ENDBRANCH   7  15
ENDBRANCH   1   7
BRANCH   5  20
ATOM     20  O   UNL     1       0.537  10.765  18.400  0.00  0.00    +0.000 OA
BRANCH  20  21
ATOM     21  C   UNL     1      -0.148  11.687  19.258  0.00  0.00    +0.000 C 
BRANCH  21  22
ATOM     22  C   UNL     1      -1.622  11.681  18.944  0.00  0.00    +0.000 A 
ATOM     23  C   UNL     1      -2.540  12.296  19.806  0.00  0.00    +0.000 A 
ATOM     24  C   UNL     1      -3.906  12.279  19.512  0.00  0.00    +0.000 A 
ATOM     25  C   UNL     1      -4.357  11.645  18.356  0.00  0.00    +0.000 A 
ATOM     26 BR   UNL     1      -6.208  11.590  17.973  0.00  0.00    +0.000 Br
ATOM     27  C   UNL     1      -3.456  11.040  17.482  0.00  0.00    +0.000 A 
ATOM     28  C   UNL     1      -2.092  11.059  17.777  0.00  0.00    +0.000 A 
ENDBRANCH  21  22
ENDBRANCH  20  21
ENDBRANCH   5  20
TORSDOF 6
ENDMDL
MODEL 6
REMARK VINA RESULT:      -8.0      5.213      7.629
REMARK  Name = 
REMARK  8 active torsions:
REMARK  status: ('A' for Active; 'I' for Inactive)
REMARK    1  A    between atoms: C_1  and  C_2
REMARK    2  A    between atoms: C_2  and  C_3
REMARK    3  A    between atoms: C_7  and  C_8
REMARK    4  A    between atoms: C_8  and  C_10
REMARK    5  A    between atoms: C_14  and  O_15
REMARK    6  A    between atoms: O_15  and  C_16
REMARK    7  A    between atoms: C_16  and  C_17
REMARK    8  A    between atoms: C_25  and  O_26
REMARK                            x       y       z     vdW  Elec       q    Type
REMARK                         _______ _______ _______ _____ _____    ______ ____
ROOT
ATOM      1  C   UNL     1       3.161   3.913  19.705  0.00  0.00    +0.000 A 
ATOM      2  C   UNL     1       2.004   3.124  19.784  0.00  0.00    +0.000 A 
ATOM      3  C   UNL     1       0.824   3.658  20.291  0.00  0.00    +0.000 A 
ATOM      4  C   UNL     1       0.777   4.994  20.683  0.00  0.00    +0.000 A 
ATOM      5  C   UNL     1       1.912   5.803  20.573  0.00  0.00    +0.000 A 
ATOM      6  C   UNL     1       3.095   5.271  20.044  0.00  0.00    +0.000 A 
ENDROOT
BRANCH   1   7
ATOM      7  C   UNL     1       4.467   3.321  19.300  0.00  0.00    +0.000 C 
ATOM      8  O   UNL     1       4.996   2.456  19.995  0.00  0.00    +0.000 OA
BRANCH   7  15
ATOM      9  C   UNL     1       7.164   5.115  14.366  0.00  0.00    +0.000 C 
ATOM     10  C   UNL     1       6.338   5.079  15.663  0.00  0.00    +0.000 C 
ATOM     11  C   UNL     1       5.766   6.490  15.911  0.00  0.00    +0.000 C 
ATOM     12  C   UNL     1       7.246   4.659  16.821  0.00  0.00    +0.000 C 
ATOM     13  C   UNL     1       6.457   4.541  18.101  0.00  0.00    +0.000 C 
ATOM     14  O   UNL     1       6.897   5.013  19.149  0.00  0.00    +0.000 OA
ATOM     15  C   UNL     1       5.147   3.829  18.062  0.00  0.00    +0.000 C 
ATOM     16  C   UNL     1       4.556   3.663  16.853  0.00  0.00    +0.000 C 
ATOM     17  C   UNL     1       5.195   4.049  15.537  0.00  0.00    +0.000 C 
BRANCH  16  18
ATOM     18  O   UNL     1       3.292   3.118  16.693  0.00  0.00    +0.000 OA
ATOM     19  H   UNL     1       3.308   2.183  17.008  0.00  0.00    +0.000 HD
ENDBRANCH  16  18
ENDBRANCH   7  15
ENDBRANCH   1   7
BRANCH   5  20
ATOM     20  O   UNL     1       1.967   7.111  20.983  0.00  0.00    +0.000 OA
BRANCH  20  21
ATOM     21  C   UNL     1       1.480   8.058  20.025  0.00  0.00    +0.000 C 
BRANCH  21  22
ATOM     22  C   UNL     1       0.762   9.179  20.733  0.00  0.00    +0.000 A 
ATOM     23  C   UNL     1       0.702  10.461  20.167  0.00  0.00    +0.000 A 
ATOM     24  C   UNL     1       0.041  11.496  20.833  0.00  0.00    +0.000 A 
ATOM     25  C   UNL     1      -0.559  11.252  22.067  0.00  0.00    +0.000 A 
ATOM     26 BR   UNL     1      -1.424  12.660  22.987  0.00  0.00    +0.000 Br
ATOM     27  C   UNL     1      -0.520   9.982  22.636  0.00  0.00    +0.000 A 
ATOM     28  C   UNL     1       0.140   8.949  21.969  0.00  0.00    +0.000 A 
ENDBRANCH  21  22
ENDBRANCH  20  21
ENDBRANCH   5  20
TORSDOF 6
ENDMDL
MODEL 7
REMARK VINA RESULT:      -8.0      4.987      7.131
REMARK  Name = 
REMARK  8 active torsions:
REMARK  status: ('A' for Active; 'I' for Inactive)
REMARK    1  A    between atoms: C_1  and  C_2
REMARK    2  A    between atoms: C_2  and  C_3
REMARK    3  A    between atoms: C_7  and  C_8
REMARK    4  A    between atoms: C_8  and  C_10
REMARK    5  A    between atoms: C_14  and  O_15
REMARK    6  A    between atoms: O_15  and  C_16
REMARK    7  A    between atoms: C_16  and  C_17
REMARK    8  A    between atoms: C_25  and  O_26
REMARK                            x       y       z     vdW  Elec       q    Type
REMARK                         _______ _______ _______ _____ _____    ______ ____
ROOT
ATOM      1  C   UNL     1       3.342   4.128  19.716  0.00  0.00    +0.000 A 
ATOM      2  C   UNL     1       2.280   3.377  20.239  0.00  0.00    +0.000 A 
ATOM      3  C   UNL     1       1.161   4.015  20.765  0.00  0.00    +0.000 A 
ATOM      4  C   UNL     1       1.075   5.405  20.736  0.00  0.00    +0.000 A 
ATOM      5  C   UNL     1       2.110   6.165  20.182  0.00  0.00    +0.000 A 
ATOM      6  C   UNL     1       3.227   5.523  19.634  0.00  0.00    +0.000 A 
ENDROOT
BRANCH   1   7
ATOM      7  C   UNL     1       4.605   3.470  19.279  0.00  0.00    +0.000 C 
ATOM      8  O   UNL     1       5.129   2.609  19.984  0.00  0.00    +0.000 OA
BRANCH   7  15
ATOM      9  C   UNL     1       7.160   4.977  14.176  0.00  0.00    +0.000 C 
ATOM     10  C   UNL     1       6.383   5.020  15.504  0.00  0.00    +0.000 C 
ATOM     11  C   UNL     1       5.862   6.456  15.713  0.00  0.00    +0.000 C 
ATOM     12  C   UNL     1       7.324   4.621  16.644  0.00  0.00    +0.000 C 
ATOM     13  C   UNL     1       6.581   4.579  17.956  0.00  0.00    +0.000 C 
ATOM     14  O   UNL     1       7.075   5.081  18.966  0.00  0.00    +0.000 OA
ATOM     15  C   UNL     1       5.251   3.906  17.996  0.00  0.00    +0.000 C 
ATOM     16  C   UNL     1       4.610   3.708  16.819  0.00  0.00    +0.000 C 
ATOM     17  C   UNL     1       5.208   4.020  15.464  0.00  0.00    +0.000 C 
BRANCH  16  18
ATOM     18  O   UNL     1       3.326   3.194  16.729  0.00  0.00    +0.000 OA
ATOM     19  H   UNL     1       3.383   2.215  16.626  0.00  0.00    +0.000 HD
ENDBRANCH  16  18
ENDBRANCH   7  15
ENDBRANCH   1   7
BRANCH   5  20
ATOM     20  O   UNL     1       2.129   7.537  20.159  0.00  0.00    +0.000 OA
BRANCH  20  21
ATOM     21  C   UNL     1       1.235   8.163  21.086  0.00  0.00    +0.000 C 
BRANCH  21  22
ATOM     22  C   UNL     1       0.825   9.518  20.567  0.00  0.00    +0.000 A 
ATOM     23  C   UNL     1       1.081   9.882  19.237  0.00  0.00    +0.000 A 
ATOM     24  C   UNL     1       0.705  11.143  18.766  0.00  0.00    +0.000 A 
ATOM     25  C   UNL     1       0.074  12.042  19.624  0.00  0.00    +0.000 A 
ATOM     26 BR   UNL     1      -0.404  13.761  18.999  0.00  0.00    +0.000 Br
ATOM     27  C   UNL     1      -0.198  11.691  20.944  0.00  0.00    +0.000 A 
ATOM     28  C   UNL     1       0.177  10.431  21.413  0.00  0.00    +0.000 A 
ENDBRANCH  21  22
ENDBRANCH  20  21
ENDBRANCH   5  20
TORSDOF 6
ENDMDL
MODEL 8
REMARK VINA RESULT:      -8.0      5.298      6.341
REMARK  Name = 
REMARK  8 active torsions:
REMARK  status: ('A' for Active; 'I' for Inactive)
REMARK    1  A    between atoms: C_1  and  C_2
REMARK    2  A    between atoms: C_2  and  C_3
REMARK    3  A    between atoms: C_7  and  C_8
REMARK    4  A    between atoms: C_8  and  C_10
REMARK    5  A    between atoms: C_14  and  O_15
REMARK    6  A    between atoms: O_15  and  C_16
REMARK    7  A    between atoms: C_16  and  C_17
REMARK    8  A    between atoms: C_25  and  O_26
REMARK                            x       y       z     vdW  Elec       q    Type
REMARK                         _______ _______ _______ _____ _____    ______ ____
ROOT
ATOM      1  C   UNL     1       4.473   4.176  16.806  0.00  0.00    +0.000 A 
ATOM      2  C   UNL     1       5.301   4.271  15.679  0.00  0.00    +0.000 A 
ATOM      3  C   UNL     1       5.592   5.514  15.125  0.00  0.00    +0.000 A 
ATOM      4  C   UNL     1       5.092   6.672  15.716  0.00  0.00    +0.000 A 
ATOM      5  C   UNL     1       4.296   6.594  16.862  0.00  0.00    +0.000 A 
ATOM      6  C   UNL     1       4.020   5.345  17.432  0.00  0.00    +0.000 A 
ENDROOT
BRANCH   1   7
ATOM      7  C   UNL     1       4.036   2.849  17.327  0.00  0.00    +0.000 C 
ATOM      8  O   UNL     1       4.285   1.824  16.694  0.00  0.00    +0.000 OA
BRANCH   7  15
ATOM      9  C   UNL     1       1.000   2.403  22.368  0.00  0.00    +0.000 C 
ATOM     10  C   UNL     1       1.746   2.957  21.143  0.00  0.00    +0.000 C 
ATOM     11  C   UNL     1       1.752   4.497  21.236  0.00  0.00    +0.000 C 
ATOM     12  C   UNL     1       1.026   2.501  19.872  0.00  0.00    +0.000 C 
ATOM     13  C   UNL     1       1.770   2.964  18.644  0.00  0.00    +0.000 C 
ATOM     14  O   UNL     1       1.159   3.461  17.698  0.00  0.00    +0.000 OA
ATOM     15  C   UNL     1       3.250   2.789  18.604  0.00  0.00    +0.000 C 
ATOM     16  C   UNL     1       3.892   2.588  19.781  0.00  0.00    +0.000 C 
ATOM     17  C   UNL     1       3.191   2.414  21.110  0.00  0.00    +0.000 C 
BRANCH  16  18
ATOM     18  O   UNL     1       5.272   2.519  19.892  0.00  0.00    +0.000 OA
ATOM     19  H   UNL     1       5.577   1.656  19.525  0.00  0.00    +0.000 HD
ENDBRANCH  16  18
ENDBRANCH   7  15
ENDBRANCH   1   7
BRANCH   5  20
ATOM     20  O   UNL     1       3.723   7.679  17.476  0.00  0.00    +0.000 OA
BRANCH  20  21
ATOM     21  C   UNL     1       3.028   7.379  18.693  0.00  0.00    +0.000 C 
BRANCH  21  22
ATOM     22  C   UNL     1       1.940   8.397  18.925  0.00  0.00    +0.000 A 
ATOM     23  C   UNL     1       1.467   9.192  17.872  0.00  0.00    +0.000 A 
ATOM     24  C   UNL     1       0.464  10.138  18.097  0.00  0.00    +0.000 A 
ATOM     25  C   UNL     1      -0.067  10.292  19.377  0.00  0.00    +0.000 A 
ATOM     26 BR   UNL     1      -1.400  11.596  19.691  0.00  0.00    +0.000 Br
ATOM     27  C   UNL     1       0.383   9.501  20.431  0.00  0.00    +0.000 A 
ATOM     28  C   UNL     1       1.384   8.556  20.204  0.00  0.00    +0.000 A 
ENDBRANCH  21  22
ENDBRANCH  20  21
ENDBRANCH   5  20
TORSDOF 6
ENDMDL
MODEL 9
REMARK VINA RESULT:      -7.8      1.392      2.400
REMARK  Name = 
REMARK  8 active torsions:
REMARK  status: ('A' for Active; 'I' for Inactive)
REMARK    1  A    between atoms: C_1  and  C_2
REMARK    2  A    between atoms: C_2  and  C_3
REMARK    3  A    between atoms: C_7  and  C_8
REMARK    4  A    between atoms: C_8  and  C_10
REMARK    5  A    between atoms: C_14  and  O_15
REMARK    6  A    between atoms: O_15  and  C_16
REMARK    7  A    between atoms: C_16  and  C_17
REMARK    8  A    between atoms: C_25  and  O_26
REMARK                            x       y       z     vdW  Elec       q    Type
REMARK                         _______ _______ _______ _____ _____    ______ ____
ROOT
ATOM      1  C   UNL     1       6.045   5.715  17.936  0.00  0.00    +0.000 A 
ATOM      2  C   UNL     1       6.768   5.081  18.957  0.00  0.00    +0.000 A 
ATOM      3  C   UNL     1       7.974   5.615  19.398  0.00  0.00    +0.000 A 
ATOM      4  C   UNL     1       8.448   6.806  18.854  0.00  0.00    +0.000 A 
ATOM      5  C   UNL     1       7.719   7.469  17.862  0.00  0.00    +0.000 A 
ATOM      6  C   UNL     1       6.494   6.944  17.432  0.00  0.00    +0.000 A 
ENDROOT
BRANCH   1   7
ATOM      7  C   UNL     1       4.827   5.085  17.354  0.00  0.00    +0.000 C 
ATOM      8  O   UNL     1       4.634   5.117  16.140  0.00  0.00    +0.000 OA
BRANCH   7  15
ATOM      9  C   UNL     1       0.945   2.731  21.126  0.00  0.00    +0.000 C 
ATOM     10  C   UNL     1       1.672   3.169  19.842  0.00  0.00    +0.000 C 
ATOM     11  C   UNL     1       0.846   2.689  18.631  0.00  0.00    +0.000 C 
ATOM     12  C   UNL     1       3.068   2.540  19.821  0.00  0.00    +0.000 C 
ATOM     13  C   UNL     1       3.842   3.004  18.612  0.00  0.00    +0.000 C 
ATOM     14  O   UNL     1       4.483   2.199  17.938  0.00  0.00    +0.000 OA
ATOM     15  C   UNL     1       3.820   4.456  18.272  0.00  0.00    +0.000 C 
ATOM     16  C   UNL     1       2.831   5.213  18.807  0.00  0.00    +0.000 C 
ATOM     17  C   UNL     1       1.825   4.704  19.816  0.00  0.00    +0.000 C 
BRANCH  16  18
ATOM     18  O   UNL     1       2.636   6.547  18.484  0.00  0.00    +0.000 OA
ATOM     19  H   UNL     1       3.451   6.891  18.050  0.00  0.00    +0.000 HD
ENDBRANCH  16  18
ENDBRANCH   7  15
ENDBRANCH   1   7
BRANCH   5  20
ATOM     20  O   UNL     1       8.136   8.617  17.238  0.00  0.00    +0.000 OA
BRANCH  20  21
ATOM     21  C   UNL     1       7.617   9.827  17.803  0.00  0.00    +0.000 C 
BRANCH  21  22
ATOM     22  C   UNL     1       8.754  10.722  18.231  0.00  0.00    +0.000 A 
ATOM     23  C   UNL     1       9.055  11.888  17.513  0.00  0.00    +0.000 A 
ATOM     24  C   UNL     1      10.115  12.707  17.911  0.00  0.00    +0.000 A 
ATOM     25  C   UNL     1      10.876  12.360  19.026  0.00  0.00    +0.000 A 
ATOM     26 BR   UNL     1      12.333  13.449  19.546  0.00  0.00    +0.000 Br
ATOM     27  C   UNL     1      10.581  11.212  19.757  0.00  0.00    +0.000 A 
ATOM     28  C   UNL     1       9.522  10.395  19.359  0.00  0.00    +0.000 A 
ENDBRANCH  21  22
ENDBRANCH  20  21
ENDBRANCH   5  20
TORSDOF 6
ENDMDL
