MODEL 1
REMARK VINA RESULT:      -8.0      0.000      0.000
REMARK  Name = 
REMARK  5 active torsions:
REMARK  status: ('A' for Active; 'I' for Inactive)
REMARK    1  A    between atoms: C_6  and  O_7
REMARK    2  A    between atoms: O_7  and  C_8
REMARK    3  A    between atoms: C_8  and  C_9
REMARK    4  A    between atoms: C_18  and  O_19
REMARK    5  A    between atoms: C_20  and  N_21
REMARK                            x       y       z     vdW  Elec       q    Type
REMARK                         _______ _______ _______ _____ _____    ______ ____
ROOT
ATOM      1  O   UNL     1       5.444   6.738  15.324  0.00  0.00    +0.000 OA
ATOM      2  C   UNL     1       5.004   6.275  16.368  0.00  0.00    +0.000 A 
ATOM      3  O   UNL     1       4.039   6.958  17.109  0.00  0.00    +0.000 OA
ATOM      4  C   UNL     1       3.491   6.432  18.301  0.00  0.00    +0.000 A 
ATOM      5  C   UNL     1       2.537   7.221  18.947  0.00  0.00    +0.000 A 
ATOM      6  C   UNL     1       1.966   6.765  20.132  0.00  0.00    +0.000 A 
ATOM      7  C   UNL     1       2.304   5.498  20.608  0.00  0.00    +0.000 A 
ATOM      8  C   UNL     1       3.263   4.718  19.951  0.00  0.00    +0.000 A 
ATOM      9  C   UNL     1       3.894   5.185  18.795  0.00  0.00    +0.000 A 
ATOM     10  C   UNL     1       4.946   4.458  18.068  0.00  0.00    +0.000 A 
ATOM     11  C   UNL     1       5.424   5.007  16.946  0.00  0.00    +0.000 A 
ENDROOT
BRANCH  11  12
ATOM     12  N   UNL     1       6.471   4.315  16.265  0.00  0.00    +0.000 N 
ATOM     13  O   UNL     1       7.632   4.565  16.614  0.00  0.00    +0.000 OA
ATOM     14  O   UNL     1       6.133   3.526  15.371  0.00  0.00    +0.000 OA
ENDBRANCH  11  12
BRANCH  10  15
ATOM     15  O   UNL     1       5.414   3.259  18.571  0.00  0.00    +0.000 OA
ATOM     16  H   UNL     1       6.370   3.285  18.729  0.00  0.00    +0.000 HD
ENDBRANCH  10  15
BRANCH   6  17
ATOM     17  O   UNL     1       1.093   7.621  20.746  0.00  0.00    +0.000 OA
BRANCH  17  18
ATOM     18  C   UNL     1       1.106   8.962  20.246  0.00  0.00    +0.000 C 
BRANCH  18  19
ATOM     19  C   UNL     1       0.259   9.841  21.127  0.00  0.00    +0.000 A 
ATOM     20  C   UNL     1      -0.238  11.062  20.653  0.00  0.00    +0.000 A 
ATOM     21  C   UNL     1      -1.030  11.866  21.474  0.00  0.00    +0.000 A 
ATOM     22  C   UNL     1      -1.331  11.458  22.772  0.00  0.00    +0.000 A 
ATOM     23  C   UNL     1      -0.845  10.245  23.253  0.00  0.00    +0.000 A 
ATOM     24  C   UNL     1      -0.054   9.439  22.435  0.00  0.00    +0.000 A 
ENDBRANCH  18  19
ENDBRANCH  17  18
ENDBRANCH   6  17
TORSDOF 5
ENDMDL
MODEL 2
REMARK VINA RESULT:      -7.9      0.532      1.086
REMARK  Name = 
REMARK  5 active torsions:
REMARK  status: ('A' for Active; 'I' for Inactive)
REMARK    1  A    between atoms: C_6  and  O_7
REMARK    2  A    between atoms: O_7  and  C_8
REMARK    3  A    between atoms: C_8  and  C_9
REMARK    4  A    between atoms: C_18  and  O_19
REMARK    5  A    between atoms: C_20  and  N_21
REMARK                            x       y       z     vdW  Elec       q    Type
REMARK                         _______ _______ _______ _____ _____    ______ ____
ROOT
ATOM      1  O   UNL     1       5.464   6.757  15.634  0.00  0.00    +0.000 OA
ATOM      2  C   UNL     1       4.994   6.250  16.644  0.00  0.00    +0.000 A 
ATOM      3  O   UNL     1       3.999   6.896  17.378  0.00  0.00    +0.000 OA
ATOM      4  C   UNL     1       3.416   6.319  18.530  0.00  0.00    +0.000 A 
ATOM      5  C   UNL     1       2.435   7.074  19.174  0.00  0.00    +0.000 A 
ATOM      6  C   UNL     1       1.829   6.568  20.321  0.00  0.00    +0.000 A 
ATOM      7  C   UNL     1       2.163   5.286  20.758  0.00  0.00    +0.000 A 
ATOM      8  C   UNL     1       3.150   4.540  20.104  0.00  0.00    +0.000 A 
ATOM      9  C   UNL     1       3.814   5.056  18.988  0.00  0.00    +0.000 A 
ATOM     10  C   UNL     1       4.896   4.367  18.269  0.00  0.00    +0.000 A 
ATOM     11  C   UNL     1       5.406   4.963  17.186  0.00  0.00    +0.000 A 
ENDROOT
BRANCH  11  12
ATOM     12  N   UNL     1       6.481   4.307  16.514  0.00  0.00    +0.000 N 
ATOM     13  O   UNL     1       7.626   4.531  16.928  0.00  0.00    +0.000 OA
ATOM     14  O   UNL     1       6.183   3.572  15.562  0.00  0.00    +0.000 OA
ENDBRANCH  11  12
BRANCH  10  15
ATOM     15  O   UNL     1       5.358   3.153  18.741  0.00  0.00    +0.000 OA
ATOM     16  H   UNL     1       6.218   2.923  18.357  0.00  0.00    +0.000 HD
ENDBRANCH  10  15
BRANCH   6  17
ATOM     17  O   UNL     1       0.928   7.392  20.939  0.00  0.00    +0.000 OA
BRANCH  17  18
ATOM     18  C   UNL     1       1.504   8.485  21.661  0.00  0.00    +0.000 C 
BRANCH  18  19
ATOM     19  C   UNL     1       0.490   9.589  21.805  0.00  0.00    +0.000 A 
ATOM     20  C   UNL     1      -0.207   9.767  23.007  0.00  0.00    +0.000 A 
ATOM     21  C   UNL     1      -1.138  10.798  23.135  0.00  0.00    +0.000 A 
ATOM     22  C   UNL     1      -1.381  11.659  22.065  0.00  0.00    +0.000 A 
ATOM     23  C   UNL     1      -0.691  11.492  20.867  0.00  0.00    +0.000 A 
ATOM     24  C   UNL     1       0.240  10.463  20.736  0.00  0.00    +0.000 A 
ENDBRANCH  18  19
ENDBRANCH  17  18
ENDBRANCH   6  17
TORSDOF 5
ENDMDL
MODEL 3
REMARK VINA RESULT:      -7.7      2.583      3.975
REMARK  Name = 
REMARK  5 active torsions:
REMARK  status: ('A' for Active; 'I' for Inactive)
REMARK    1  A    between atoms: C_6  and  O_7
REMARK    2  A    between atoms: O_7  and  C_8
REMARK    3  A    between atoms: C_8  and  C_9
REMARK    4  A    between atoms: C_18  and  O_19
REMARK    5  A    between atoms: C_20  and  N_21
REMARK                            x       y       z     vdW  Elec       q    Type
REMARK                         _______ _______ _______ _____ _____    ______ ____
ROOT
ATOM      1  O   UNL     1       2.743   2.613  21.871  0.00  0.00    +0.000 OA
ATOM      2  C   UNL     1       2.928   3.416  20.966  0.00  0.00    +0.000 A 
ATOM      3  O   UNL     1       2.343   4.682  20.994  0.00  0.00    +0.000 OA
ATOM      4  C   UNL     1       2.567   5.640  19.979  0.00  0.00    +0.000 A 
ATOM      5  C   UNL     1       1.916   6.865  20.128  0.00  0.00    +0.000 A 
ATOM      6  C   UNL     1       2.085   7.848  19.156  0.00  0.00    +0.000 A 
ATOM      7  C   UNL     1       2.959   7.614  18.095  0.00  0.00    +0.000 A 
ATOM      8  C   UNL     1       3.605   6.380  17.957  0.00  0.00    +0.000 A 
ATOM      9  C   UNL     1       3.399   5.358  18.888  0.00  0.00    +0.000 A 
ATOM     10  C   UNL     1       3.994   4.016  18.797  0.00  0.00    +0.000 A 
ATOM     11  C   UNL     1       3.746   3.154  19.790  0.00  0.00    +0.000 A 
ENDROOT
BRANCH  11  12
ATOM     12  N   UNL     1       4.295   1.841  19.679  0.00  0.00    +0.000 N 
ATOM     13  O   UNL     1       3.820   1.103  18.806  0.00  0.00    +0.000 OA
ATOM     14  O   UNL     1       5.199   1.542  20.472  0.00  0.00    +0.000 OA
ENDBRANCH  11  12
BRANCH  10  15
ATOM     15  O   UNL     1       4.760   3.686  17.696  0.00  0.00    +0.000 OA
ATOM     16  H   UNL     1       4.225   3.632  16.889  0.00  0.00    +0.000 HD
ENDBRANCH  10  15
BRANCH   6  17
ATOM     17  O   UNL     1       1.361   8.997  19.331  0.00  0.00    +0.000 OA
BRANCH  17  18
ATOM     18  C   UNL     1       1.045   9.702  18.127  0.00  0.00    +0.000 C 
BRANCH  18  19
ATOM     19  C   UNL     1      -0.335  10.295  18.233  0.00  0.00    +0.000 A 
ATOM     20  C   UNL     1      -0.590  11.359  19.107  0.00  0.00    +0.000 A 
ATOM     21  C   UNL     1      -1.871  11.909  19.192  0.00  0.00    +0.000 A 
ATOM     22  C   UNL     1      -2.904  11.400  18.406  0.00  0.00    +0.000 A 
ATOM     23  C   UNL     1      -2.660  10.344  17.532  0.00  0.00    +0.000 A 
ATOM     24  C   UNL     1      -1.382   9.793  17.445  0.00  0.00    +0.000 A 
ENDBRANCH  18  19
ENDBRANCH  17  18
ENDBRANCH   6  17
TORSDOF 5
ENDMDL
MODEL 4
REMARK VINA RESULT:      -7.7      3.523      8.036
REMARK  Name = 
REMARK  5 active torsions:
REMARK  status: ('A' for Active; 'I' for Inactive)
REMARK    1  A    between atoms: C_6  and  O_7
REMARK    2  A    between atoms: O_7  and  C_8
REMARK    3  A    between atoms: C_8  and  C_9
REMARK    4  A    between atoms: C_18  and  O_19
REMARK    5  A    between atoms: C_20  and  N_21
REMARK                            x       y       z     vdW  Elec       q    Type
REMARK                         _______ _______ _______ _____ _____    ______ ____
ROOT
ATOM      1  O   UNL     1       0.033   9.758  23.611  0.00  0.00    +0.000 OA
ATOM      2  C   UNL     1       0.319   9.751  22.420  0.00  0.00    +0.000 A 
ATOM      3  O   UNL     1       1.028   8.690  21.856  0.00  0.00    +0.000 OA
ATOM      4  C   UNL     1       1.343   8.641  20.479  0.00  0.00    +0.000 A 
ATOM      5  C   UNL     1       2.061   7.524  20.046  0.00  0.00    +0.000 A 
ATOM      6  C   UNL     1       2.414   7.420  18.704  0.00  0.00    +0.000 A 
ATOM      7  C   UNL     1       1.977   8.396  17.807  0.00  0.00    +0.000 A 
ATOM      8  C   UNL     1       1.259   9.510  18.254  0.00  0.00    +0.000 A 
ATOM      9  C   UNL     1       0.950   9.665  19.609  0.00  0.00    +0.000 A 
ATOM     10  C   UNL     1       0.245  10.825  20.176  0.00  0.00    +0.000 A 
ATOM     11  C   UNL     1      -0.026  10.812  21.485  0.00  0.00    +0.000 A 
ENDROOT
BRANCH  11  12
ATOM     12  N   UNL     1      -0.677  11.957  22.037  0.00  0.00    +0.000 N 
ATOM     13  O   UNL     1       0.025  12.952  22.260  0.00  0.00    +0.000 OA
ATOM     14  O   UNL     1      -1.892  11.859  22.257  0.00  0.00    +0.000 OA
ENDBRANCH  11  12
BRANCH  10  15
ATOM     15  O   UNL     1      -0.091  11.883  19.353  0.00  0.00    +0.000 OA
ATOM     16  H   UNL     1       0.634  12.522  19.276  0.00  0.00    +0.000 HD
ENDBRANCH  10  15
BRANCH   6  17
ATOM     17  O   UNL     1       3.177   6.336  18.365  0.00  0.00    +0.000 OA
BRANCH  17  18
ATOM     18  C   UNL     1       2.438   5.169  17.990  0.00  0.00    +0.000 C 
BRANCH  18  19
ATOM     19  C   UNL     1       2.343   4.229  19.162  0.00  0.00    +0.000 A 
ATOM     20  C   UNL     1       1.118   4.004  19.801  0.00  0.00    +0.000 A 
ATOM     21  C   UNL     1       1.037   3.124  20.881  0.00  0.00    +0.000 A 
ATOM     22  C   UNL     1       2.179   2.462  21.330  0.00  0.00    +0.000 A 
ATOM     23  C   UNL     1       3.403   2.676  20.700  0.00  0.00    +0.000 A 
ATOM     24  C   UNL     1       3.486   3.555  19.621  0.00  0.00    +0.000 A 
ENDBRANCH  18  19
ENDBRANCH  17  18
ENDBRANCH   6  17
TORSDOF 5
ENDMDL
MODEL 5
REMARK VINA RESULT:      -7.6      2.543      3.910
REMARK  Name = 
REMARK  5 active torsions:
REMARK  status: ('A' for Active; 'I' for Inactive)
REMARK    1  A    between atoms: C_6  and  O_7
REMARK    2  A    between atoms: O_7  and  C_8
REMARK    3  A    between atoms: C_8  and  C_9
REMARK    4  A    between atoms: C_18  and  O_19
REMARK    5  A    between atoms: C_20  and  N_21
REMARK                            x       y       z     vdW  Elec       q    Type
REMARK                         _______ _______ _______ _____ _____    ______ ____
ROOT
ATOM      1  O   UNL     1       2.383   3.125  21.325  0.00  0.00    +0.000 OA
ATOM      2  C   UNL     1       2.818   3.810  20.409  0.00  0.00    +0.000 A 
ATOM      3  O   UNL     1       2.344   5.103  20.188  0.00  0.00    +0.000 OA
ATOM      4  C   UNL     1       2.853   5.927  19.158  0.00  0.00    +0.000 A 
ATOM      5  C   UNL     1       2.286   7.198  19.044  0.00  0.00    +0.000 A 
ATOM      6  C   UNL     1       2.733   8.055  18.042  0.00  0.00    +0.000 A 
ATOM      7  C   UNL     1       3.789   7.654  17.223  0.00  0.00    +0.000 A 
ATOM      8  C   UNL     1       4.347   6.376  17.348  0.00  0.00    +0.000 A 
ATOM      9  C   UNL     1       3.869   5.478  18.305  0.00  0.00    +0.000 A 
ATOM     10  C   UNL     1       4.359   4.101  18.475  0.00  0.00    +0.000 A 
ATOM     11  C   UNL     1       3.840   3.372  19.469  0.00  0.00    +0.000 A 
ENDROOT
BRANCH  11  12
ATOM     12  N   UNL     1       4.292   2.024  19.606  0.00  0.00    +0.000 N 
ATOM     13  O   UNL     1       5.131   1.797  20.487  0.00  0.00    +0.000 OA
ATOM     14  O   UNL     1       3.813   1.190  18.824  0.00  0.00    +0.000 OA
ENDBRANCH  11  12
BRANCH  10  15
ATOM     15  O   UNL     1       5.310   3.607  17.603  0.00  0.00    +0.000 OA
ATOM     16  H   UNL     1       4.906   3.101  16.881  0.00  0.00    +0.000 HD
ENDBRANCH  10  15
BRANCH   6  17
ATOM     17  O   UNL     1       2.085   9.257  17.945  0.00  0.00    +0.000 OA
BRANCH  17  18
ATOM     18  C   UNL     1       1.205   9.559  19.032  0.00  0.00    +0.000 C 
BRANCH  18  19
ATOM     19  C   UNL     1      -0.013  10.277  18.515  0.00  0.00    +0.000 A 
ATOM     20  C   UNL     1      -0.917   9.628  17.664  0.00  0.00    +0.000 A 
ATOM     21  C   UNL     1      -2.049  10.298  17.196  0.00  0.00    +0.000 A 
ATOM     22  C   UNL     1      -2.286  11.618  17.574  0.00  0.00    +0.000 A 
ATOM     23  C   UNL     1      -1.395  12.272  18.422  0.00  0.00    +0.000 A 
ATOM     24  C   UNL     1      -0.264  11.605  18.891  0.00  0.00    +0.000 A 
ENDBRANCH  18  19
ENDBRANCH  17  18
ENDBRANCH   6  17
TORSDOF 5
ENDMDL
MODEL 6
REMARK VINA RESULT:      -7.6      3.731      8.195
REMARK  Name = 
REMARK  5 active torsions:
REMARK  status: ('A' for Active; 'I' for Inactive)
REMARK    1  A    between atoms: C_6  and  O_7
REMARK    2  A    between atoms: O_7  and  C_8
REMARK    3  A    between atoms: C_8  and  C_9
REMARK    4  A    between atoms: C_18  and  O_19
REMARK    5  A    between atoms: C_20  and  N_21
REMARK                            x       y       z     vdW  Elec       q    Type
REMARK                         _______ _______ _______ _____ _____    ______ ____
ROOT
ATOM      1  O   UNL     1      -0.087   9.911  23.833  0.00  0.00    +0.000 OA
ATOM      2  C   UNL     1       0.141   9.974  22.632  0.00  0.00    +0.000 A 
ATOM      3  O   UNL     1       0.875   8.980  21.986  0.00  0.00    +0.000 OA
ATOM      4  C   UNL     1       1.125   9.010  20.595  0.00  0.00    +0.000 A 
ATOM      5  C   UNL     1       1.878   7.955  20.076  0.00  0.00    +0.000 A 
ATOM      6  C   UNL     1       2.171   7.932  18.715  0.00  0.00    +0.000 A 
ATOM      7  C   UNL     1       1.642   8.923  17.888  0.00  0.00    +0.000 A 
ATOM      8  C   UNL     1       0.889   9.975  18.421  0.00  0.00    +0.000 A 
ATOM      9  C   UNL     1       0.639  10.051  19.794  0.00  0.00    +0.000 A 
ATOM     10  C   UNL     1      -0.097  11.144  20.448  0.00  0.00    +0.000 A 
ATOM     11  C   UNL     1      -0.304  11.057  21.767  0.00  0.00    +0.000 A 
ENDROOT
BRANCH  11  12
ATOM     12  N   UNL     1      -0.985  12.138  22.403  0.00  0.00    +0.000 N 
ATOM     13  O   UNL     1      -0.292  12.956  23.021  0.00  0.00    +0.000 OA
ATOM     14  O   UNL     1      -2.219  12.166  22.291  0.00  0.00    +0.000 OA
ENDBRANCH  11  12
BRANCH  10  15
ATOM     15  O   UNL     1      -0.527  12.219  19.694  0.00  0.00    +0.000 OA
ATOM     16  H   UNL     1       0.195  12.840  19.510  0.00  0.00    +0.000 HD
ENDBRANCH  10  15
BRANCH   6  17
ATOM     17  O   UNL     1       2.971   6.907  18.290  0.00  0.00    +0.000 OA
BRANCH  17  18
ATOM     18  C   UNL     1       3.415   6.017  19.320  0.00  0.00    +0.000 C 
BRANCH  18  19
ATOM     19  C   UNL     1       2.499   4.825  19.390  0.00  0.00    +0.000 A 
ATOM     20  C   UNL     1       2.133   4.135  18.227  0.00  0.00    +0.000 A 
ATOM     21  C   UNL     1       1.291   3.024  18.302  0.00  0.00    +0.000 A 
ATOM     22  C   UNL     1       0.808   2.595  19.538  0.00  0.00    +0.000 A 
ATOM     23  C   UNL     1       1.167   3.273  20.701  0.00  0.00    +0.000 A 
ATOM     24  C   UNL     1       2.009   4.382  20.628  0.00  0.00    +0.000 A 
ENDBRANCH  18  19
ENDBRANCH  17  18
ENDBRANCH   6  17
TORSDOF 5
ENDMDL
MODEL 7
REMARK VINA RESULT:      -7.6      2.625      4.186
REMARK  Name = 
REMARK  5 active torsions:
REMARK  status: ('A' for Active; 'I' for Inactive)
REMARK    1  A    between atoms: C_6  and  O_7
REMARK    2  A    between atoms: O_7  and  C_8
REMARK    3  A    between atoms: C_8  and  C_9
REMARK    4  A    between atoms: C_18  and  O_19
REMARK    5  A    between atoms: C_20  and  N_21
REMARK                            x       y       z     vdW  Elec       q    Type
REMARK                         _______ _______ _______ _____ _____    ______ ____
ROOT
ATOM      1  O   UNL     1       2.375   3.584  21.739  0.00  0.00    +0.000 OA
ATOM      2  C   UNL     1       2.451   4.441  20.869  0.00  0.00    +0.000 A 
ATOM      3  O   UNL     1       1.876   5.700  21.045  0.00  0.00    +0.000 OA
ATOM      4  C   UNL     1       1.978   6.719  20.071  0.00  0.00    +0.000 A 
ATOM      5  C   UNL     1       1.352   7.930  20.372  0.00  0.00    +0.000 A 
ATOM      6  C   UNL     1       1.404   8.971  19.449  0.00  0.00    +0.000 A 
ATOM      7  C   UNL     1       2.143   8.806  18.277  0.00  0.00    +0.000 A 
ATOM      8  C   UNL     1       2.765   7.586  17.987  0.00  0.00    +0.000 A 
ATOM      9  C   UNL     1       2.671   6.508  18.872  0.00  0.00    +0.000 A 
ATOM     10  C   UNL     1       3.247   5.177  18.628  0.00  0.00    +0.000 A 
ATOM     11  C   UNL     1       3.120   4.256  19.589  0.00  0.00    +0.000 A 
ENDROOT
BRANCH  11  12
ATOM     12  N   UNL     1       3.648   2.954  19.332  0.00  0.00    +0.000 N 
ATOM     13  O   UNL     1       2.901   2.144  18.770  0.00  0.00    +0.000 OA
ATOM     14  O   UNL     1       4.811   2.738  19.701  0.00  0.00    +0.000 OA
ENDBRANCH  11  12
BRANCH  10  15
ATOM     15  O   UNL     1       3.874   4.919  17.424  0.00  0.00    +0.000 OA
ATOM     16  H   UNL     1       3.928   5.714  16.871  0.00  0.00    +0.000 HD
ENDBRANCH  10  15
BRANCH   6  17
ATOM     17  O   UNL     1       0.710  10.103  19.780  0.00  0.00    +0.000 OA
BRANCH  17  18
ATOM     18  C   UNL     1       0.411  10.972  18.683  0.00  0.00    +0.000 C 
BRANCH  18  19
ATOM     19  C   UNL     1      -1.052  10.875  18.342  0.00  0.00    +0.000 A 
ATOM     20  C   UNL     1      -1.986  11.723  18.951  0.00  0.00    +0.000 A 
ATOM     21  C   UNL     1      -3.339  11.633  18.623  0.00  0.00    +0.000 A 
ATOM     22  C   UNL     1      -3.770  10.696  17.685  0.00  0.00    +0.000 A 
ATOM     23  C   UNL     1      -2.850   9.849  17.071  0.00  0.00    +0.000 A 
ATOM     24  C   UNL     1      -1.497   9.938  17.397  0.00  0.00    +0.000 A 
ENDBRANCH  18  19
ENDBRANCH  17  18
ENDBRANCH   6  17
TORSDOF 5
ENDMDL
MODEL 8
REMARK VINA RESULT:      -7.5      4.097      8.452
REMARK  Name = 
REMARK  5 active torsions:
REMARK  status: ('A' for Active; 'I' for Inactive)
REMARK    1  A    between atoms: C_6  and  O_7
REMARK    2  A    between atoms: O_7  and  C_8
REMARK    3  A    between atoms: C_8  and  C_9
REMARK    4  A    between atoms: C_18  and  O_19
REMARK    5  A    between atoms: C_20  and  N_21
REMARK                            x       y       z     vdW  Elec       q    Type
REMARK                         _______ _______ _______ _____ _____    ______ ____
ROOT
ATOM      1  O   UNL     1       2.747   1.257  19.214  0.00  0.00    +0.000 OA
ATOM      2  C   UNL     1       2.963   2.456  19.101  0.00  0.00    +0.000 A 
ATOM      3  O   UNL     1       3.693   2.959  18.024  0.00  0.00    +0.000 OA
ATOM      4  C   UNL     1       3.929   4.343  17.853  0.00  0.00    +0.000 A 
ATOM      5  C   UNL     1       4.679   4.710  16.734  0.00  0.00    +0.000 A 
ATOM      6  C   UNL     1       4.957   6.056  16.514  0.00  0.00    +0.000 A 
ATOM      7  C   UNL     1       4.418   7.014  17.374  0.00  0.00    +0.000 A 
ATOM      8  C   UNL     1       3.669   6.631  18.493  0.00  0.00    +0.000 A 
ATOM      9  C   UNL     1       3.432   5.281  18.766  0.00  0.00    +0.000 A 
ATOM     10  C   UNL     1       2.701   4.785  19.942  0.00  0.00    +0.000 A 
ATOM     11  C   UNL     1       2.508   3.466  20.047  0.00  0.00    +0.000 A 
ENDROOT
BRANCH  11  12
ATOM     12  N   UNL     1       1.831   2.986  21.209  0.00  0.00    +0.000 N 
ATOM     13  O   UNL     1       0.601   2.861  21.134  0.00  0.00    +0.000 OA
ATOM     14  O   UNL     1       2.528   2.741  22.203  0.00  0.00    +0.000 OA
ENDBRANCH  11  12
BRANCH  10  15
ATOM     15  O   UNL     1       2.262   5.683  20.896  0.00  0.00    +0.000 OA
ATOM     16  H   UNL     1       2.872   6.431  20.993  0.00  0.00    +0.000 HD
ENDBRANCH  10  15
BRANCH   6  17
ATOM     17  O   UNL     1       5.756   6.337  15.438  0.00  0.00    +0.000 OA
BRANCH  17  18
ATOM     18  C   UNL     1       6.887   5.475  15.283  0.00  0.00    +0.000 C 
BRANCH  18  19
ATOM     19  C   UNL     1       6.833   4.803  13.936  0.00  0.00    +0.000 A 
ATOM     20  C   UNL     1       5.910   3.781  13.684  0.00  0.00    +0.000 A 
ATOM     21  C   UNL     1       5.860   3.171  12.430  0.00  0.00    +0.000 A 
ATOM     22  C   UNL     1       6.732   3.575  11.420  0.00  0.00    +0.000 A 
ATOM     23  C   UNL     1       7.653   4.593  11.660  0.00  0.00    +0.000 A 
ATOM     24  C   UNL     1       7.704   5.205  12.911  0.00  0.00    +0.000 A 
ENDBRANCH  18  19
ENDBRANCH  17  18
ENDBRANCH   6  17
TORSDOF 5
ENDMDL
MODEL 9
REMARK VINA RESULT:      -7.5      4.346      8.341
REMARK  Name = 
REMARK  5 active torsions:
REMARK  status: ('A' for Active; 'I' for Inactive)
REMARK    1  A    between atoms: C_6  and  O_7
REMARK    2  A    between atoms: O_7  and  C_8
REMARK    3  A    between atoms: C_8  and  C_9
REMARK    4  A    between atoms: C_18  and  O_19
REMARK    5  A    between atoms: C_20  and  N_21
REMARK                            x       y       z     vdW  Elec       q    Type
REMARK                         _______ _______ _______ _____ _____    ______ ____
ROOT
ATOM      1  O   UNL     1       4.679   1.789  20.991  0.00  0.00    +0.000 OA
ATOM      2  C   UNL     1       4.380   2.763  20.314  0.00  0.00    +0.000 A 
ATOM      3  O   UNL     1       5.272   3.295  19.383  0.00  0.00    +0.000 OA
ATOM      4  C   UNL     1       4.940   4.399  18.565  0.00  0.00    +0.000 A 
ATOM      5  C   UNL     1       5.928   4.835  17.680  0.00  0.00    +0.000 A 
ATOM      6  C   UNL     1       5.669   5.925  16.854  0.00  0.00    +0.000 A 
ATOM      7  C   UNL     1       4.404   6.512  16.876  0.00  0.00    +0.000 A 
ATOM      8  C   UNL     1       3.423   6.066  17.769  0.00  0.00    +0.000 A 
ATOM      9  C   UNL     1       3.684   5.013  18.651  0.00  0.00    +0.000 A 
ATOM     10  C   UNL     1       2.735   4.513  19.656  0.00  0.00    +0.000 A 
ATOM     11  C   UNL     1       3.106   3.464  20.399  0.00  0.00    +0.000 A 
ENDROOT
BRANCH  11  12
ATOM     12  N   UNL     1       2.196   3.005  21.398  0.00  0.00    +0.000 N 
ATOM     13  O   UNL     1       2.392   3.389  22.559  0.00  0.00    +0.000 OA
ATOM     14  O   UNL     1       1.286   2.251  21.025  0.00  0.00    +0.000 OA
ENDBRANCH  11  12
BRANCH  10  15
ATOM     15  O   UNL     1       1.516   5.145  19.812  0.00  0.00    +0.000 OA
ATOM     16  H   UNL     1       1.094   5.327  18.958  0.00  0.00    +0.000 HD
ENDBRANCH  10  15
BRANCH   6  17
ATOM     17  O   UNL     1       6.707   6.340  16.063  0.00  0.00    +0.000 OA
BRANCH  17  18
ATOM     18  C   UNL     1       7.596   5.303  15.637  0.00  0.00    +0.000 C 
BRANCH  18  19
ATOM     19  C   UNL     1       7.138   4.755  14.311  0.00  0.00    +0.000 A 
ATOM     20  C   UNL     1       6.038   3.891  14.237  0.00  0.00    +0.000 A 
ATOM     21  C   UNL     1       5.615   3.395  13.002  0.00  0.00    +0.000 A 
ATOM     22  C   UNL     1       6.286   3.758  11.836  0.00  0.00    +0.000 A 
ATOM     23  C   UNL     1       7.380   4.618  11.899  0.00  0.00    +0.000 A 
ATOM     24  C   UNL     1       7.804   5.115  13.130  0.00  0.00    +0.000 A 
ENDBRANCH  18  19
ENDBRANCH  17  18
ENDBRANCH   6  17
TORSDOF 5
ENDMDL
