MODEL 1
REMARK VINA RESULT:      -6.8      0.000      0.000
REMARK  Name = 
REMARK  4 active torsions:
REMARK  status: ('A' for Active; 'I' for Inactive)
REMARK    1  A    between atoms: C_2  and  C_3
REMARK    2  A    between atoms: C_2  and  C_18
REMARK    3  A    between atoms: C_6  and  N_7
REMARK    4  A    between atoms: C_13  and  N_14
REMARK                            x       y       z     vdW  Elec       q    Type
REMARK                         _______ _______ _______ _____ _____    ______ ____
ROOT
ATOM      1  C   UNL     1       5.738   5.137  16.464  0.00  0.00    +0.000 A 
ATOM      2  C   UNL     1       4.747   6.094  16.669  0.00  0.00    +0.000 A 
ATOM      3  C   UNL     1       3.695   5.842  17.560  0.00  0.00    +0.000 A 
ATOM      4  C   UNL     1       3.552   4.631  18.272  0.00  0.00    +0.000 A 
ATOM      5  C   UNL     1       4.590   3.700  18.051  0.00  0.00    +0.000 A 
ATOM      6  C   UNL     1       5.666   3.937  17.173  0.00  0.00    +0.000 A 
ENDROOT
BRANCH   4   7
ATOM      7  N   UNL     1       2.441   4.446  19.069  0.00  0.00    +0.000 N 
ATOM      8  C   UNL     1       1.203   3.844  18.539  0.00  0.00    +0.000 C 
ATOM      9  C   UNL     1       0.726   2.724  19.492  0.00  0.00    +0.000 C 
ATOM     10  N   UNL     1       0.520   3.186  20.876  0.00  0.00    +0.000 NA
ATOM     11  C   UNL     1       1.752   3.836  21.373  0.00  0.00    +0.000 C 
ATOM     12  C   UNL     1       2.279   4.959  20.444  0.00  0.00    +0.000 C 
ATOM     13  H   UNL     1       0.322   2.376  21.464  0.00  0.00    +0.000 HD
ENDBRANCH   4   7
BRANCH   5  14
ATOM     14  N   UNL     1       4.568   2.381  18.647  0.00  0.00    +0.000 N 
ATOM     15  O   UNL     1       4.047   1.465  17.991  0.00  0.00    +0.000 OA
ATOM     16  O   UNL     1       5.118   2.250  19.750  0.00  0.00    +0.000 OA
ENDBRANCH   5  14
BRANCH   1  18
ATOM     17  O   UNL     1       7.712   6.201  15.838  0.00  0.00    +0.000 OA
ATOM     18  C   UNL     1       6.886   5.344  15.528  0.00  0.00    +0.000 C 
BRANCH  18  19
ATOM     19  C   UNL     1       6.970   4.484  14.279  0.00  0.00    +0.000 C 
ATOM     20 CL   UNL     1       5.330   4.124  13.705  0.00  0.00    +0.000 Cl
ATOM     21 CL   UNL     1       7.894   5.322  13.013  0.00  0.00    +0.000 Cl
ENDBRANCH  18  19
ENDBRANCH   1  18
TORSDOF 4
ENDMDL
MODEL 2
REMARK VINA RESULT:      -6.8      6.039      7.392
REMARK  Name = 
REMARK  4 active torsions:
REMARK  status: ('A' for Active; 'I' for Inactive)
REMARK    1  A    between atoms: C_2  and  C_3
REMARK    2  A    between atoms: C_2  and  C_18
REMARK    3  A    between atoms: C_6  and  N_7
REMARK    4  A    between atoms: C_13  and  N_14
REMARK                            x       y       z     vdW  Elec       q    Type
REMARK                         _______ _______ _______ _____ _____    ______ ____
ROOT
ATOM      1  C   UNL     1       2.390   7.016  19.336  0.00  0.00    +0.000 A 
ATOM      2  C   UNL     1       2.270   7.796  18.189  0.00  0.00    +0.000 A 
ATOM      3  C   UNL     1       1.604   9.029  18.240  0.00  0.00    +0.000 A 
ATOM      4  C   UNL     1       1.005   9.542  19.411  0.00  0.00    +0.000 A 
ATOM      5  C   UNL     1       1.171   8.728  20.554  0.00  0.00    +0.000 A 
ATOM      6  C   UNL     1       1.850   7.493  20.531  0.00  0.00    +0.000 A 
ENDROOT
BRANCH   4   7
ATOM      7  N   UNL     1       0.307  10.729  19.346  0.00  0.00    +0.000 N 
ATOM      8  C   UNL     1       0.953  12.022  19.644  0.00  0.00    +0.000 C 
ATOM      9  C   UNL     1       0.629  13.030  18.518  0.00  0.00    +0.000 C 
ATOM     10  N   UNL     1      -0.816  13.218  18.302  0.00  0.00    +0.000 NA
ATOM     11  C   UNL     1      -1.458  11.907  18.060  0.00  0.00    +0.000 C 
ATOM     12  C   UNL     1      -1.153  10.854  19.156  0.00  0.00    +0.000 C 
ATOM     13  H   UNL     1      -0.949  13.800  17.475  0.00  0.00    +0.000 HD
ENDBRANCH   4   7
BRANCH   5  14
ATOM     14  N   UNL     1       0.564   9.067  21.824  0.00  0.00    +0.000 N 
ATOM     15  O   UNL     1      -0.583   8.645  22.039  0.00  0.00    +0.000 OA
ATOM     16  O   UNL     1       1.254   9.712  22.626  0.00  0.00    +0.000 OA
ENDBRANCH   5  14
BRANCH   1  18
ATOM     17  O   UNL     1       4.303   5.703  19.532  0.00  0.00    +0.000 OA
ATOM     18  C   UNL     1       3.087   5.693  19.348  0.00  0.00    +0.000 C 
BRANCH  18  19
ATOM     19  C   UNL     1       2.260   4.433  19.153  0.00  0.00    +0.000 C 
ATOM     20 CL   UNL     1       1.067   4.309  20.460  0.00  0.00    +0.000 Cl
ATOM     21 CL   UNL     1       1.442   4.470  17.576  0.00  0.00    +0.000 Cl
ENDBRANCH  18  19
ENDBRANCH   1  18
TORSDOF 4
ENDMDL
MODEL 3
REMARK VINA RESULT:      -6.7      2.376      3.204
REMARK  Name = 
REMARK  4 active torsions:
REMARK  status: ('A' for Active; 'I' for Inactive)
REMARK    1  A    between atoms: C_2  and  C_3
REMARK    2  A    between atoms: C_2  and  C_18
REMARK    3  A    between atoms: C_6  and  N_7
REMARK    4  A    between atoms: C_13  and  N_14
REMARK                            x       y       z     vdW  Elec       q    Type
REMARK                         _______ _______ _______ _____ _____    ______ ____
ROOT
ATOM      1  C   UNL     1       6.105   4.203  14.516  0.00  0.00    +0.000 A 
ATOM      2  C   UNL     1       4.788   3.913  14.867  0.00  0.00    +0.000 A 
ATOM      3  C   UNL     1       4.350   4.108  16.184  0.00  0.00    +0.000 A 
ATOM      4  C   UNL     1       5.186   4.571  17.223  0.00  0.00    +0.000 A 
ATOM      5  C   UNL     1       6.505   4.873  16.817  0.00  0.00    +0.000 A 
ATOM      6  C   UNL     1       6.965   4.701  15.496  0.00  0.00    +0.000 A 
ENDROOT
BRANCH   4   7
ATOM      7  N   UNL     1       4.684   4.659  18.504  0.00  0.00    +0.000 N 
ATOM      8  C   UNL     1       4.307   5.956  19.098  0.00  0.00    +0.000 C 
ATOM      9  C   UNL     1       2.896   5.847  19.720  0.00  0.00    +0.000 C 
ATOM     10  N   UNL     1       2.783   4.772  20.723  0.00  0.00    +0.000 NA
ATOM     11  C   UNL     1       3.218   3.489  20.128  0.00  0.00    +0.000 C 
ATOM     12  C   UNL     1       4.623   3.550  19.478  0.00  0.00    +0.000 C 
ATOM     13  H   UNL     1       1.805   4.686  20.999  0.00  0.00    +0.000 HD
ENDBRANCH   4   7
BRANCH   5  14
ATOM     14  N   UNL     1       7.515   5.294  17.765  0.00  0.00    +0.000 N 
ATOM     15  O   UNL     1       7.661   6.514  17.940  0.00  0.00    +0.000 OA
ATOM     16  O   UNL     1       8.127   4.404  18.371  0.00  0.00    +0.000 OA
ENDBRANCH   5  14
BRANCH   1  18
ATOM     17  O   UNL     1       7.483   4.820  12.744  0.00  0.00    +0.000 OA
ATOM     18  C   UNL     1       6.635   4.017  13.131  0.00  0.00    +0.000 C 
BRANCH  18  19
ATOM     19  C   UNL     1       6.116   2.854  12.302  0.00  0.00    +0.000 C 
ATOM     20 CL   UNL     1       4.657   3.365  11.430  0.00  0.00    +0.000 Cl
ATOM     21 CL   UNL     1       7.359   2.308  11.155  0.00  0.00    +0.000 Cl
ENDBRANCH  18  19
ENDBRANCH   1  18
TORSDOF 4
ENDMDL
MODEL 4
REMARK VINA RESULT:      -6.6      5.910      7.138
REMARK  Name = 
REMARK  4 active torsions:
REMARK  status: ('A' for Active; 'I' for Inactive)
REMARK    1  A    between atoms: C_2  and  C_3
REMARK    2  A    between atoms: C_2  and  C_18
REMARK    3  A    between atoms: C_6  and  N_7
REMARK    4  A    between atoms: C_13  and  N_14
REMARK                            x       y       z     vdW  Elec       q    Type
REMARK                         _______ _______ _______ _____ _____    ______ ____
ROOT
ATOM      1  C   UNL     1       2.565   7.218  18.815  0.00  0.00    +0.000 A 
ATOM      2  C   UNL     1       2.381   8.097  17.750  0.00  0.00    +0.000 A 
ATOM      3  C   UNL     1       1.656   9.283  17.929  0.00  0.00    +0.000 A 
ATOM      4  C   UNL     1       1.056   9.650  19.153  0.00  0.00    +0.000 A 
ATOM      5  C   UNL     1       1.286   8.742  20.210  0.00  0.00    +0.000 A 
ATOM      6  C   UNL     1       2.025   7.552  20.058  0.00  0.00    +0.000 A 
ENDROOT
BRANCH   4   7
ATOM      7  N   UNL     1       0.297  10.801  19.213  0.00  0.00    +0.000 N 
ATOM      8  C   UNL     1       0.884  12.092  19.620  0.00  0.00    +0.000 C 
ATOM      9  C   UNL     1       0.485  13.182  18.601  0.00  0.00    +0.000 C 
ATOM     10  N   UNL     1      -0.973  13.314  18.429  0.00  0.00    +0.000 NA
ATOM     11  C   UNL     1      -1.553  12.000  18.075  0.00  0.00    +0.000 C 
ATOM     12  C   UNL     1      -1.171  10.867  19.061  0.00  0.00    +0.000 C 
ATOM     13  H   UNL     1      -1.154  13.963  17.663  0.00  0.00    +0.000 HD
ENDBRANCH   4   7
BRANCH   5  14
ATOM     14  N   UNL     1       0.689   8.927  21.516  0.00  0.00    +0.000 N 
ATOM     15  O   UNL     1      -0.443   8.454  21.699  0.00  0.00    +0.000 OA
ATOM     16  O   UNL     1       1.374   9.501  22.374  0.00  0.00    +0.000 OA
ENDBRANCH   5  14
BRANCH   1  18
ATOM     17  O   UNL     1       4.515   6.023  18.381  0.00  0.00    +0.000 OA
ATOM     18  C   UNL     1       3.327   5.938  18.689  0.00  0.00    +0.000 C 
BRANCH  18  19
ATOM     19  C   UNL     1       2.604   4.631  18.963  0.00  0.00    +0.000 C 
ATOM     20 CL   UNL     1       1.451   4.315  17.651  0.00  0.00    +0.000 Cl
ATOM     21 CL   UNL     1       3.769   3.295  19.092  0.00  0.00    +0.000 Cl
ENDBRANCH  18  19
ENDBRANCH   1  18
TORSDOF 4
ENDMDL
MODEL 5
REMARK VINA RESULT:      -6.5      2.200      2.382
REMARK  Name = 
REMARK  4 active torsions:
REMARK  status: ('A' for Active; 'I' for Inactive)
REMARK    1  A    between atoms: C_2  and  C_3
REMARK    2  A    between atoms: C_2  and  C_18
REMARK    3  A    between atoms: C_6  and  N_7
REMARK    4  A    between atoms: C_13  and  N_14
REMARK                            x       y       z     vdW  Elec       q    Type
REMARK                         _______ _______ _______ _____ _____    ______ ____
ROOT
ATOM      1  C   UNL     1       5.826   5.808  17.384  0.00  0.00    +0.000 A 
ATOM      2  C   UNL     1       4.676   6.594  17.409  0.00  0.00    +0.000 A 
ATOM      3  C   UNL     1       3.494   6.098  17.976  0.00  0.00    +0.000 A 
ATOM      4  C   UNL     1       3.377   4.801  18.521  0.00  0.00    +0.000 A 
ATOM      5  C   UNL     1       4.572   4.048  18.494  0.00  0.00    +0.000 A 
ATOM      6  C   UNL     1       5.776   4.531  17.945  0.00  0.00    +0.000 A 
ENDROOT
BRANCH   4   7
ATOM      7  N   UNL     1       2.151   4.374  18.988  0.00  0.00    +0.000 N 
ATOM      8  C   UNL     1       1.153   3.762  18.090  0.00  0.00    +0.000 C 
ATOM      9  C   UNL     1       0.629   2.453  18.720  0.00  0.00    +0.000 C 
ATOM     10  N   UNL     1       0.059   2.641  20.066  0.00  0.00    +0.000 NA
ATOM     11  C   UNL     1       1.052   3.305  20.939  0.00  0.00    +0.000 C 
ATOM     12  C   UNL     1       1.620   4.619  20.345  0.00  0.00    +0.000 C 
ATOM     13  H   UNL     1      -0.156   1.725  20.461  0.00  0.00    +0.000 HD
ENDBRANCH   4   7
BRANCH   5  14
ATOM     14  N   UNL     1       4.616   2.675  18.949  0.00  0.00    +0.000 N 
ATOM     15  O   UNL     1       4.144   1.808  18.198  0.00  0.00    +0.000 OA
ATOM     16  O   UNL     1       5.170   2.457  20.036  0.00  0.00    +0.000 OA
ENDBRANCH   5  14
BRANCH   1  18
ATOM     17  O   UNL     1       7.334   5.986  15.619  0.00  0.00    +0.000 OA
ATOM     18  C   UNL     1       7.117   6.277  16.794  0.00  0.00    +0.000 C 
BRANCH  18  19
ATOM     19  C   UNL     1       8.062   7.090  17.664  0.00  0.00    +0.000 C 
ATOM     20 CL   UNL     1       7.513   8.777  17.704  0.00  0.00    +0.000 Cl
ATOM     21 CL   UNL     1       8.116   6.421  19.310  0.00  0.00    +0.000 Cl
ENDBRANCH  18  19
ENDBRANCH   1  18
TORSDOF 4
ENDMDL
MODEL 6
REMARK VINA RESULT:      -6.5      5.802      7.062
REMARK  Name = 
REMARK  4 active torsions:
REMARK  status: ('A' for Active; 'I' for Inactive)
REMARK    1  A    between atoms: C_2  and  C_3
REMARK    2  A    between atoms: C_2  and  C_18
REMARK    3  A    between atoms: C_6  and  N_7
REMARK    4  A    between atoms: C_13  and  N_14
REMARK                            x       y       z     vdW  Elec       q    Type
REMARK                         _______ _______ _______ _____ _____    ______ ____
ROOT
ATOM      1  C   UNL     1       2.571   7.272  18.877  0.00  0.00    +0.000 A 
ATOM      2  C   UNL     1       2.359   8.104  17.780  0.00  0.00    +0.000 A 
ATOM      3  C   UNL     1       1.587   9.266  17.914  0.00  0.00    +0.000 A 
ATOM      4  C   UNL     1       0.966   9.653  19.122  0.00  0.00    +0.000 A 
ATOM      5  C   UNL     1       1.227   8.792  20.212  0.00  0.00    +0.000 A 
ATOM      6  C   UNL     1       2.012   7.628  20.105  0.00  0.00    +0.000 A 
ENDROOT
BRANCH   4   7
ATOM      7  N   UNL     1       0.163  10.774  19.138  0.00  0.00    +0.000 N 
ATOM      8  C   UNL     1       0.693  12.098  19.516  0.00  0.00    +0.000 C 
ATOM      9  C   UNL     1       0.268  13.143  18.460  0.00  0.00    +0.000 C 
ATOM     10  N   UNL     1      -1.191  13.213  18.263  0.00  0.00    +0.000 NA
ATOM     11  C   UNL     1      -1.714  11.867  17.939  0.00  0.00    +0.000 C 
ATOM     12  C   UNL     1      -1.304  10.778  18.962  0.00  0.00    +0.000 C 
ATOM     13  H   UNL     1      -1.384  13.833  17.476  0.00  0.00    +0.000 HD
ENDBRANCH   4   7
BRANCH   5  14
ATOM     14  N   UNL     1       0.616   9.000  21.507  0.00  0.00    +0.000 N 
ATOM     15  O   UNL     1       1.209   9.741  22.307  0.00  0.00    +0.000 OA
ATOM     16  O   UNL     1      -0.483   8.463  21.706  0.00  0.00    +0.000 OA
ENDBRANCH   5  14
BRANCH   1  18
ATOM     17  O   UNL     1       3.493   5.360  19.833  0.00  0.00    +0.000 OA
ATOM     18  C   UNL     1       3.383   6.019  18.800  0.00  0.00    +0.000 C 
BRANCH  18  19
ATOM     19  C   UNL     1       4.001   5.632  17.467  0.00  0.00    +0.000 C 
ATOM     20 CL   UNL     1       5.581   6.423  17.303  0.00  0.00    +0.000 Cl
ATOM     21 CL   UNL     1       4.182   3.868  17.358  0.00  0.00    +0.000 Cl
ENDBRANCH  18  19
ENDBRANCH   1  18
TORSDOF 4
ENDMDL
MODEL 7
REMARK VINA RESULT:      -6.5      5.965      7.189
REMARK  Name = 
REMARK  4 active torsions:
REMARK  status: ('A' for Active; 'I' for Inactive)
REMARK    1  A    between atoms: C_2  and  C_3
REMARK    2  A    between atoms: C_2  and  C_18
REMARK    3  A    between atoms: C_6  and  N_7
REMARK    4  A    between atoms: C_13  and  N_14
REMARK                            x       y       z     vdW  Elec       q    Type
REMARK                         _______ _______ _______ _____ _____    ______ ____
ROOT
ATOM      1  C   UNL     1       2.475   6.873  19.273  0.00  0.00    +0.000 A 
ATOM      2  C   UNL     1       2.423   7.584  18.076  0.00  0.00    +0.000 A 
ATOM      3  C   UNL     1       1.799   8.838  18.026  0.00  0.00    +0.000 A 
ATOM      4  C   UNL     1       1.176   9.442  19.139  0.00  0.00    +0.000 A 
ATOM      5  C   UNL     1       1.272   8.697  20.336  0.00  0.00    +0.000 A 
ATOM      6  C   UNL     1       1.908   7.442  20.415  0.00  0.00    +0.000 A 
ENDROOT
BRANCH   4   7
ATOM      7  N   UNL     1       0.522  10.645  18.975  0.00  0.00    +0.000 N 
ATOM      8  C   UNL     1      -0.833  10.714  18.393  0.00  0.00    +0.000 C 
ATOM      9  C   UNL     1      -1.734  11.590  19.291  0.00  0.00    +0.000 C 
ATOM     10  N   UNL     1      -1.200  12.947  19.507  0.00  0.00    +0.000 NA
ATOM     11  C   UNL     1       0.178  12.861  20.038  0.00  0.00    +0.000 C 
ATOM     12  C   UNL     1       1.120  11.980  19.179  0.00  0.00    +0.000 C 
ATOM     13  H   UNL     1      -1.783  13.421  20.197  0.00  0.00    +0.000 HD
ENDBRANCH   4   7
BRANCH   5  14
ATOM     14  N   UNL     1       0.632   9.135  21.558  0.00  0.00    +0.000 N 
ATOM     15  O   UNL     1      -0.487   8.664  21.817  0.00  0.00    +0.000 OA
ATOM     16  O   UNL     1       1.269   9.911  22.283  0.00  0.00    +0.000 OA
ENDBRANCH   5  14
BRANCH   1  18
ATOM     17  O   UNL     1       4.323   5.514  19.668  0.00  0.00    +0.000 OA
ATOM     18  C   UNL     1       3.124   5.532  19.393  0.00  0.00    +0.000 C 
BRANCH  18  19
ATOM     19  C   UNL     1       2.273   4.290  19.189  0.00  0.00    +0.000 C 
ATOM     20 CL   UNL     1       1.054   4.199  20.476  0.00  0.00    +0.000 Cl
ATOM     21 CL   UNL     1       1.483   4.337  17.597  0.00  0.00    +0.000 Cl
ENDBRANCH  18  19
ENDBRANCH   1  18
TORSDOF 4
ENDMDL
MODEL 8
REMARK VINA RESULT:      -6.4      1.863      2.499
REMARK  Name = 
REMARK  4 active torsions:
REMARK  status: ('A' for Active; 'I' for Inactive)
REMARK    1  A    between atoms: C_2  and  C_3
REMARK    2  A    between atoms: C_2  and  C_18
REMARK    3  A    between atoms: C_6  and  N_7
REMARK    4  A    between atoms: C_13  and  N_14
REMARK                            x       y       z     vdW  Elec       q    Type
REMARK                         _______ _______ _______ _____ _____    ______ ____
ROOT
ATOM      1  C   UNL     1       5.674   4.541  16.076  0.00  0.00    +0.000 A 
ATOM      2  C   UNL     1       5.364   3.194  16.249  0.00  0.00    +0.000 A 
ATOM      3  C   UNL     1       4.363   2.811  17.152  0.00  0.00    +0.000 A 
ATOM      4  C   UNL     1       3.638   3.726  17.945  0.00  0.00    +0.000 A 
ATOM      5  C   UNL     1       3.970   5.081  17.721  0.00  0.00    +0.000 A 
ATOM      6  C   UNL     1       4.961   5.492  16.807  0.00  0.00    +0.000 A 
ENDROOT
BRANCH   4   7
ATOM      7  N   UNL     1       2.725   3.249  18.861  0.00  0.00    +0.000 N 
ATOM      8  C   UNL     1       3.129   2.344  19.955  0.00  0.00    +0.000 C 
ATOM      9  C   UNL     1       2.560   2.867  21.293  0.00  0.00    +0.000 C 
ATOM     10  N   UNL     1       1.095   3.030  21.279  0.00  0.00    +0.000 NA
ATOM     11  C   UNL     1       0.701   3.894  20.144  0.00  0.00    +0.000 C 
ATOM     12  C   UNL     1       1.260   3.419  18.779  0.00  0.00    +0.000 C 
ATOM     13  H   UNL     1       0.809   3.485  22.145  0.00  0.00    +0.000 HD
ENDBRANCH   4   7
BRANCH   5  14
ATOM     14  N   UNL     1       3.374   6.149  18.495  0.00  0.00    +0.000 N 
ATOM     15  O   UNL     1       3.524   6.115  19.726  0.00  0.00    +0.000 OA
ATOM     16  O   UNL     1       2.798   7.048  17.867  0.00  0.00    +0.000 OA
ENDBRANCH   5  14
BRANCH   1  18
ATOM     17  O   UNL     1       7.437   5.951  15.504  0.00  0.00    +0.000 OA
ATOM     18  C   UNL     1       6.730   5.016  15.129  0.00  0.00    +0.000 C 
BRANCH  18  19
ATOM     19  C   UNL     1       6.876   4.314  13.790  0.00  0.00    +0.000 C 
ATOM     20 CL   UNL     1       5.266   4.038  13.097  0.00  0.00    +0.000 Cl
ATOM     21 CL   UNL     1       7.863   5.293  12.683  0.00  0.00    +0.000 Cl
ENDBRANCH  18  19
ENDBRANCH   1  18
TORSDOF 4
ENDMDL
MODEL 9
REMARK VINA RESULT:      -6.4      6.101      7.492
REMARK  Name = 
REMARK  4 active torsions:
REMARK  status: ('A' for Active; 'I' for Inactive)
REMARK    1  A    between atoms: C_2  and  C_3
REMARK    2  A    between atoms: C_2  and  C_18
REMARK    3  A    between atoms: C_6  and  N_7
REMARK    4  A    between atoms: C_13  and  N_14
REMARK                            x       y       z     vdW  Elec       q    Type
REMARK                         _______ _______ _______ _____ _____    ______ ____
ROOT
ATOM      1  C   UNL     1       2.358   7.078  19.339  0.00  0.00    +0.000 A 
ATOM      2  C   UNL     1       2.248   7.863  18.193  0.00  0.00    +0.000 A 
ATOM      3  C   UNL     1       1.586   9.097  18.244  0.00  0.00    +0.000 A 
ATOM      4  C   UNL     1       0.981   9.609  19.412  0.00  0.00    +0.000 A 
ATOM      5  C   UNL     1       1.137   8.791  20.554  0.00  0.00    +0.000 A 
ATOM      6  C   UNL     1       1.812   7.554  20.531  0.00  0.00    +0.000 A 
ENDROOT
BRANCH   4   7
ATOM      7  N   UNL     1       0.287  10.798  19.347  0.00  0.00    +0.000 N 
ATOM      8  C   UNL     1       0.938  12.089  19.644  0.00  0.00    +0.000 C 
ATOM      9  C   UNL     1       0.619  13.098  18.517  0.00  0.00    +0.000 C 
ATOM     10  N   UNL     1      -0.826  13.291  18.300  0.00  0.00    +0.000 NA
ATOM     11  C   UNL     1      -1.473  11.982  18.059  0.00  0.00    +0.000 C 
ATOM     12  C   UNL     1      -1.172  10.929  19.156  0.00  0.00    +0.000 C 
ATOM     13  H   UNL     1      -0.957  13.873  17.473  0.00  0.00    +0.000 HD
ENDBRANCH   4   7
BRANCH   5  14
ATOM     14  N   UNL     1       0.523   9.128  21.820  0.00  0.00    +0.000 N 
ATOM     15  O   UNL     1       1.145   9.895  22.572  0.00  0.00    +0.000 OA
ATOM     16  O   UNL     1      -0.605   8.666  22.042  0.00  0.00    +0.000 OA
ENDBRANCH   5  14
BRANCH   1  18
ATOM     17  O   UNL     1       4.277   5.762  19.265  0.00  0.00    +0.000 OA
ATOM     18  C   UNL     1       3.050   5.753  19.351  0.00  0.00    +0.000 C 
BRANCH  18  19
ATOM     19  C   UNL     1       2.210   4.494  19.486  0.00  0.00    +0.000 C 
ATOM     20 CL   UNL     1       2.904   3.217  18.468  0.00  0.00    +0.000 Cl
ATOM     21 CL   UNL     1       2.154   3.966  21.182  0.00  0.00    +0.000 Cl
ENDBRANCH  18  19
ENDBRANCH   1  18
TORSDOF 4
ENDMDL
