MODEL 1
REMARK VINA RESULT:      -8.0      0.000      0.000
REMARK  Name = 
REMARK  12 active torsions:
REMARK  status: ('A' for Active; 'I' for Inactive)
REMARK    1  A    between atoms: C_1  and  O_2
REMARK    2  A    between atoms: O_2  and  C_3
REMARK    3  A    between atoms: C_9  and  N_10
REMARK    4  A    between atoms: N_10  and  S_11
REMARK    5  A    between atoms: S_11  and  C_14
REMARK    6  A    between atoms: C_18  and  C_19
REMARK    7  A    between atoms: N_21  and  C_22
REMARK    8  A    between atoms: C_22  and  C_23
REMARK    9  A    between atoms: C_23  and  C_24
REMARK   10  A    between atoms: C_23  and  N_29
REMARK   11  A    between atoms: N_29  and  C_30
REMARK   12  A    between atoms: N_29  and  C_31
REMARK                            x       y       z     vdW  Elec       q    Type
REMARK                         _______ _______ _______ _____ _____    ______ ____
ROOT
ATOM      1  C   UNL     1       2.567   4.277  18.896  0.00  0.00    +0.000 A 
ATOM      2  C   UNL     1       2.318   4.079  20.259  0.00  0.00    +0.000 A 
ATOM      3  C   UNL     1       2.020   5.173  21.070  0.00  0.00    +0.000 A 
ATOM      4  C   UNL     1       1.993   6.456  20.518  0.00  0.00    +0.000 A 
ATOM      5  C   UNL     1       2.253   6.651  19.151  0.00  0.00    +0.000 A 
ATOM      6  C   UNL     1       2.530   5.555  18.335  0.00  0.00    +0.000 A 
ENDROOT
BRANCH   5   7
ATOM      7  C   UNL     1       2.222   8.035  18.612  0.00  0.00    +0.000 C 
ATOM      8  O   UNL     1       2.913   8.321  17.641  0.00  0.00    +0.000 OA
ATOM      9  N   UNL     1       1.384   8.932  19.239  0.00  0.00    +0.000 N 
ATOM     10  H   UNL     1       0.823   8.658  20.032  0.00  0.00    +0.000 HD
BRANCH   9  11
ATOM     11  C   UNL     1       1.227  10.296  18.746  0.00  0.00    +0.000 C 
BRANCH  11  12
ATOM     12  C   UNL     1       0.056  11.113  19.391  0.00  0.00    +0.000 C 
BRANCH  12  13
ATOM     13  C   UNL     1      -0.154  10.614  20.803  0.00  0.00    +0.000 A 
ATOM     14  C   UNL     1      -0.237  11.239  22.032  0.00  0.00    +0.000 A 
ATOM     15  C   UNL     1      -0.547  10.231  22.975  0.00  0.00    +0.000 A 
ATOM     16  C   UNL     1      -0.612   9.053  22.270  0.00  0.00    +0.000 A 
ATOM     17  O   UNL     1      -0.373   9.273  20.951  0.00  0.00    +0.000 OA
ENDBRANCH  12  13
BRANCH  12  18
ATOM     18  N   UNL     1       0.308  12.592  19.392  0.00  0.00    +0.000 NA
ATOM     19  C   UNL     1       1.705  12.903  19.061  0.00  0.00    +0.000 C 
ATOM     20  C   UNL     1      -0.547  13.267  18.400  0.00  0.00    +0.000 C 
ENDBRANCH  12  18
ENDBRANCH  11  12
ENDBRANCH   9  11
ENDBRANCH   5   7
BRANCH   1  21
ATOM     21  S   UNL     1       3.072   2.905  17.893  0.00  0.00    +0.000 S 
ATOM     22  O   UNL     1       2.536   3.102  16.569  0.00  0.00    +0.000 OA
ATOM     23  O   UNL     1       2.772   1.697  18.645  0.00  0.00    +0.000 OA
BRANCH  21  24
ATOM     24  N   UNL     1       4.738   3.022  17.849  0.00  0.00    +0.000 N 
ATOM     25  H   UNL     1       5.262   2.401  18.459  0.00  0.00    +0.000 HD
BRANCH  24  32
ATOM     26  C   UNL     1       6.010   5.063  17.292  0.00  0.00    +0.000 A 
ATOM     27  C   UNL     1       6.672   5.824  16.325  0.00  0.00    +0.000 A 
ATOM     28  C   UNL     1       6.728   5.410  14.997  0.00  0.00    +0.000 A 
ATOM     29  C   UNL     1       6.139   4.203  14.629  0.00  0.00    +0.000 A 
ATOM     30 CL   UNL     1       6.244   3.683  12.997  0.00  0.00    +0.000 Cl
ATOM     31  C   UNL     1       5.474   3.419  15.573  0.00  0.00    +0.000 A 
ATOM     32  C   UNL     1       5.403   3.840  16.902  0.00  0.00    +0.000 A 
BRANCH  26  34
ATOM     33  C   UNL     1       7.203   5.603  19.246  0.00  0.00    +0.000 C 
ATOM     34  O   UNL     1       5.937   5.438  18.609  0.00  0.00    +0.000 OA
ENDBRANCH  26  34
ENDBRANCH  24  32
ENDBRANCH  21  24
ENDBRANCH   1  21
TORSDOF 9
ENDMDL
MODEL 2
REMARK VINA RESULT:      -7.9      3.871      9.424
REMARK  Name = 
REMARK  12 active torsions:
REMARK  status: ('A' for Active; 'I' for Inactive)
REMARK    1  A    between atoms: C_1  and  O_2
REMARK    2  A    between atoms: O_2  and  C_3
REMARK    3  A    between atoms: C_9  and  N_10
REMARK    4  A    between atoms: N_10  and  S_11
REMARK    5  A    between atoms: S_11  and  C_14
REMARK    6  A    between atoms: C_18  and  C_19
REMARK    7  A    between atoms: N_21  and  C_22
REMARK    8  A    between atoms: C_22  and  C_23
REMARK    9  A    between atoms: C_23  and  C_24
REMARK   10  A    between atoms: C_23  and  N_29
REMARK   11  A    between atoms: N_29  and  C_30
REMARK   12  A    between atoms: N_29  and  C_31
REMARK                            x       y       z     vdW  Elec       q    Type
REMARK                         _______ _______ _______ _____ _____    ______ ____
ROOT
ATOM      1  C   UNL     1       1.468   7.433  20.680  0.00  0.00    +0.000 A 
ATOM      2  C   UNL     1       1.257   6.119  21.113  0.00  0.00    +0.000 A 
ATOM      3  C   UNL     1       1.844   5.063  20.417  0.00  0.00    +0.000 A 
ATOM      4  C   UNL     1       2.619   5.327  19.285  0.00  0.00    +0.000 A 
ATOM      5  C   UNL     1       2.820   6.647  18.850  0.00  0.00    +0.000 A 
ATOM      6  C   UNL     1       2.252   7.705  19.557  0.00  0.00    +0.000 A 
ENDROOT
BRANCH   5   7
ATOM      7  C   UNL     1       3.646   6.876  17.635  0.00  0.00    +0.000 C 
ATOM      8  O   UNL     1       3.772   8.015  17.197  0.00  0.00    +0.000 OA
ATOM      9  N   UNL     1       4.251   5.774  17.072  0.00  0.00    +0.000 N 
ATOM     10  H   UNL     1       4.130   4.852  17.466  0.00  0.00    +0.000 HD
BRANCH   9  11
ATOM     11  C   UNL     1       5.136   5.900  15.920  0.00  0.00    +0.000 C 
BRANCH  11  12
ATOM     12  C   UNL     1       6.343   4.901  15.887  0.00  0.00    +0.000 C 
BRANCH  12  13
ATOM     13  C   UNL     1       6.722   4.657  14.444  0.00  0.00    +0.000 A 
ATOM     14  C   UNL     1       6.240   3.814  13.461  0.00  0.00    +0.000 A 
ATOM     15  C   UNL     1       6.952   4.129  12.279  0.00  0.00    +0.000 A 
ATOM     16  C   UNL     1       7.836   5.124  12.617  0.00  0.00    +0.000 A 
ATOM     17  O   UNL     1       7.708   5.451  13.929  0.00  0.00    +0.000 OA
ENDBRANCH  12  13
BRANCH  12  18
ATOM     18  N   UNL     1       7.529   5.392  16.664  0.00  0.00    +0.000 NA
ATOM     19  C   UNL     1       7.346   6.779  17.110  0.00  0.00    +0.000 C 
ATOM     20  C   UNL     1       7.747   4.563  17.862  0.00  0.00    +0.000 C 
ENDBRANCH  12  18
ENDBRANCH  11  12
ENDBRANCH   9  11
ENDBRANCH   5   7
BRANCH   1  21
ATOM     21  S   UNL     1       0.617   8.764  21.486  0.00  0.00    +0.000 S 
ATOM     22  O   UNL     1       1.441   9.220  22.578  0.00  0.00    +0.000 OA
ATOM     23  O   UNL     1      -0.746   8.316  21.719  0.00  0.00    +0.000 OA
BRANCH  21  24
ATOM     24  N   UNL     1       0.522   9.954  20.318  0.00  0.00    +0.000 N 
ATOM     25  H   UNL     1       1.248   9.964  19.606  0.00  0.00    +0.000 HD
BRANCH  24  32
ATOM     26  C   UNL     1      -1.374  10.886  19.041  0.00  0.00    +0.000 A 
ATOM     27  C   UNL     1      -2.478  11.742  19.007  0.00  0.00    +0.000 A 
ATOM     28  C   UNL     1      -2.809  12.535  20.103  0.00  0.00    +0.000 A 
ATOM     29  C   UNL     1      -2.044  12.453  21.264  0.00  0.00    +0.000 A 
ATOM     30 CL   UNL     1      -2.480  13.407  22.623  0.00  0.00    +0.000 Cl
ATOM     31  C   UNL     1      -0.938  11.605  21.329  0.00  0.00    +0.000 A 
ATOM     32  C   UNL     1      -0.595  10.821  20.227  0.00  0.00    +0.000 A 
BRANCH  26  34
ATOM     33  C   UNL     1      -2.021   9.971  16.974  0.00  0.00    +0.000 C 
ATOM     34  O   UNL     1      -1.020  10.089  17.983  0.00  0.00    +0.000 OA
ENDBRANCH  26  34
ENDBRANCH  24  32
ENDBRANCH  21  24
ENDBRANCH   1  21
TORSDOF 9
ENDMDL
MODEL 3
REMARK VINA RESULT:      -7.9      1.272      2.551
REMARK  Name = 
REMARK  12 active torsions:
REMARK  status: ('A' for Active; 'I' for Inactive)
REMARK    1  A    between atoms: C_1  and  O_2
REMARK    2  A    between atoms: O_2  and  C_3
REMARK    3  A    between atoms: C_9  and  N_10
REMARK    4  A    between atoms: N_10  and  S_11
REMARK    5  A    between atoms: S_11  and  C_14
REMARK    6  A    between atoms: C_18  and  C_19
REMARK    7  A    between atoms: N_21  and  C_22
REMARK    8  A    between atoms: C_22  and  C_23
REMARK    9  A    between atoms: C_23  and  C_24
REMARK   10  A    between atoms: C_23  and  N_29
REMARK   11  A    between atoms: N_29  and  C_30
REMARK   12  A    between atoms: N_29  and  C_31
REMARK                            x       y       z     vdW  Elec       q    Type
REMARK                         _______ _______ _______ _____ _____    ______ ____
ROOT
ATOM      1  C   UNL     1       2.394   4.524  18.874  0.00  0.00    +0.000 A 
ATOM      2  C   UNL     1       2.160   4.430  20.251  0.00  0.00    +0.000 A 
ATOM      3  C   UNL     1       1.907   5.587  20.986  0.00  0.00    +0.000 A 
ATOM      4  C   UNL     1       1.907   6.827  20.346  0.00  0.00    +0.000 A 
ATOM      5  C   UNL     1       2.151   6.919  18.966  0.00  0.00    +0.000 A 
ATOM      6  C   UNL     1       2.383   5.761  18.225  0.00  0.00    +0.000 A 
ENDROOT
BRANCH   5   7
ATOM      7  C   UNL     1       2.149   8.262  18.331  0.00  0.00    +0.000 C 
ATOM      8  O   UNL     1       2.693   8.417  17.243  0.00  0.00    +0.000 OA
ATOM      9  N   UNL     1       1.505   9.274  19.009  0.00  0.00    +0.000 N 
ATOM     10  H   UNL     1       1.061   9.107  19.900  0.00  0.00    +0.000 HD
BRANCH   9  11
ATOM     11  C   UNL     1       1.386  10.612  18.441  0.00  0.00    +0.000 C 
BRANCH  11  12
ATOM     12  C   UNL     1       1.083  11.754  19.470  0.00  0.00    +0.000 C 
BRANCH  12  13
ATOM     13  C   UNL     1       1.792  13.009  19.014  0.00  0.00    +0.000 A 
ATOM     14  C   UNL     1       2.919  13.242  18.249  0.00  0.00    +0.000 A 
ATOM     15  C   UNL     1       3.013  14.645  18.091  0.00  0.00    +0.000 A 
ATOM     16  C   UNL     1       1.956  15.181  18.785  0.00  0.00    +0.000 A 
ATOM     17  O   UNL     1       1.210  14.198  19.352  0.00  0.00    +0.000 OA
ENDBRANCH  12  13
BRANCH  12  18
ATOM     18  N   UNL     1      -0.386  12.016  19.635  0.00  0.00    +0.000 NA
ATOM     19  C   UNL     1      -1.148  11.584  18.456  0.00  0.00    +0.000 C 
ATOM     20  C   UNL     1      -0.917  11.288  20.800  0.00  0.00    +0.000 C 
ENDBRANCH  12  18
ENDBRANCH  11  12
ENDBRANCH   9  11
ENDBRANCH   5   7
BRANCH   1  21
ATOM     21  S   UNL     1       2.844   3.072  17.964  0.00  0.00    +0.000 S 
ATOM     22  O   UNL     1       2.426   3.257  16.596  0.00  0.00    +0.000 OA
ATOM     23  O   UNL     1       2.382   1.928  18.734  0.00  0.00    +0.000 OA
BRANCH  21  24
ATOM     24  N   UNL     1       4.512   3.041  18.042  0.00  0.00    +0.000 N 
ATOM     25  H   UNL     1       4.934   2.374  18.684  0.00  0.00    +0.000 HD
BRANCH  24  32
ATOM     26  C   UNL     1       6.124   4.864  17.629  0.00  0.00    +0.000 A 
ATOM     27  C   UNL     1       6.914   5.569  16.716  0.00  0.00    +0.000 A 
ATOM     28  C   UNL     1       6.904   5.251  15.361  0.00  0.00    +0.000 A 
ATOM     29  C   UNL     1       6.115   4.197  14.909  0.00  0.00    +0.000 A 
ATOM     30 CL   UNL     1       6.136   3.789  13.241  0.00  0.00    +0.000 Cl
ATOM     31  C   UNL     1       5.319   3.472  15.797  0.00  0.00    +0.000 A 
ATOM     32  C   UNL     1       5.315   3.799  17.153  0.00  0.00    +0.000 A 
BRANCH  26  34
ATOM     33  C   UNL     1       7.329   5.694  19.470  0.00  0.00    +0.000 C 
ATOM     34  O   UNL     1       6.110   5.147  18.971  0.00  0.00    +0.000 OA
ENDBRANCH  26  34
ENDBRANCH  24  32
ENDBRANCH  21  24
ENDBRANCH   1  21
TORSDOF 9
ENDMDL
MODEL 4
REMARK VINA RESULT:      -7.7      2.636      4.231
REMARK  Name = 
REMARK  12 active torsions:
REMARK  status: ('A' for Active; 'I' for Inactive)
REMARK    1  A    between atoms: C_1  and  O_2
REMARK    2  A    between atoms: O_2  and  C_3
REMARK    3  A    between atoms: C_9  and  N_10
REMARK    4  A    between atoms: N_10  and  S_11
REMARK    5  A    between atoms: S_11  and  C_14
REMARK    6  A    between atoms: C_18  and  C_19
REMARK    7  A    between atoms: N_21  and  C_22
REMARK    8  A    between atoms: C_22  and  C_23
REMARK    9  A    between atoms: C_23  and  C_24
REMARK   10  A    between atoms: C_23  and  N_29
REMARK   11  A    between atoms: N_29  and  C_30
REMARK   12  A    between atoms: N_29  and  C_31
REMARK                            x       y       z     vdW  Elec       q    Type
REMARK                         _______ _______ _______ _____ _____    ______ ____
ROOT
ATOM      1  C   UNL     1       2.053   7.556  19.357  0.00  0.00    +0.000 A 
ATOM      2  C   UNL     1       2.043   8.379  18.225  0.00  0.00    +0.000 A 
ATOM      3  C   UNL     1       1.534   9.673  18.320  0.00  0.00    +0.000 A 
ATOM      4  C   UNL     1       1.024  10.128  19.538  0.00  0.00    +0.000 A 
ATOM      5  C   UNL     1       1.028   9.296  20.669  0.00  0.00    +0.000 A 
ATOM      6  C   UNL     1       1.556   8.009  20.581  0.00  0.00    +0.000 A 
ENDROOT
BRANCH   5   7
ATOM      7  C   UNL     1       0.467   9.822  21.940  0.00  0.00    +0.000 C 
ATOM      8  O   UNL     1       0.997   9.524  23.005  0.00  0.00    +0.000 OA
ATOM      9  N   UNL     1      -0.631  10.650  21.844  0.00  0.00    +0.000 N 
ATOM     10  H   UNL     1      -1.036  10.881  20.948  0.00  0.00    +0.000 HD
BRANCH   9  11
ATOM     11  C   UNL     1      -1.216  11.275  23.025  0.00  0.00    +0.000 C 
BRANCH  11  12
ATOM     12  C   UNL     1      -1.193  12.841  23.039  0.00  0.00    +0.000 C 
BRANCH  12  13
ATOM     13  C   UNL     1      -0.549  13.321  21.758  0.00  0.00    +0.000 A 
ATOM     14  C   UNL     1      -1.039  13.898  20.602  0.00  0.00    +0.000 A 
ATOM     15  C   UNL     1       0.085  14.215  19.804  0.00  0.00    +0.000 A 
ATOM     16  C   UNL     1       1.187  13.793  20.508  0.00  0.00    +0.000 A 
ATOM     17  O   UNL     1       0.815  13.247  21.694  0.00  0.00    +0.000 OA
ENDBRANCH  12  13
BRANCH  12  18
ATOM     18  N   UNL     1      -2.558  13.444  23.194  0.00  0.00    +0.000 NA
ATOM     19  C   UNL     1      -3.517  12.476  23.741  0.00  0.00    +0.000 C 
ATOM     20  C   UNL     1      -2.517  14.598  24.110  0.00  0.00    +0.000 C 
ENDBRANCH  12  18
ENDBRANCH  11  12
ENDBRANCH   9  11
ENDBRANCH   5   7
BRANCH   1  21
ATOM     21  S   UNL     1       2.579   5.870  19.206  0.00  0.00    +0.000 S 
ATOM     22  O   UNL     1       1.419   5.028  19.361  0.00  0.00    +0.000 OA
ATOM     23  O   UNL     1       3.737   5.707  20.069  0.00  0.00    +0.000 OA
BRANCH  21  24
ATOM     24  N   UNL     1       3.148   5.759  17.640  0.00  0.00    +0.000 N 
ATOM     25  H   UNL     1       2.479   5.918  16.891  0.00  0.00    +0.000 HD
BRANCH  24  32
ATOM     26  C   UNL     1       5.045   4.344  16.936  0.00  0.00    +0.000 A 
ATOM     27  C   UNL     1       6.409   4.242  16.649  0.00  0.00    +0.000 A 
ATOM     28  C   UNL     1       7.258   5.337  16.786  0.00  0.00    +0.000 A 
ATOM     29  C   UNL     1       6.736   6.563  17.189  0.00  0.00    +0.000 A 
ATOM     30 CL   UNL     1       7.784   7.916  17.321  0.00  0.00    +0.000 Cl
ATOM     31  C   UNL     1       5.378   6.698  17.478  0.00  0.00    +0.000 A 
ATOM     32  C   UNL     1       4.528   5.598  17.357  0.00  0.00    +0.000 A 
BRANCH  26  34
ATOM     33  C   UNL     1       4.013   2.518  17.998  0.00  0.00    +0.000 C 
ATOM     34  O   UNL     1       4.179   3.289  16.810  0.00  0.00    +0.000 OA
ENDBRANCH  26  34
ENDBRANCH  24  32
ENDBRANCH  21  24
ENDBRANCH   1  21
TORSDOF 9
ENDMDL
MODEL 5
REMARK VINA RESULT:      -7.7      4.042      9.684
REMARK  Name = 
REMARK  12 active torsions:
REMARK  status: ('A' for Active; 'I' for Inactive)
REMARK    1  A    between atoms: C_1  and  O_2
REMARK    2  A    between atoms: O_2  and  C_3
REMARK    3  A    between atoms: C_9  and  N_10
REMARK    4  A    between atoms: N_10  and  S_11
REMARK    5  A    between atoms: S_11  and  C_14
REMARK    6  A    between atoms: C_18  and  C_19
REMARK    7  A    between atoms: N_21  and  C_22
REMARK    8  A    between atoms: C_22  and  C_23
REMARK    9  A    between atoms: C_23  and  C_24
REMARK   10  A    between atoms: C_23  and  N_29
REMARK   11  A    between atoms: N_29  and  C_30
REMARK   12  A    between atoms: N_29  and  C_31
REMARK                            x       y       z     vdW  Elec       q    Type
REMARK                         _______ _______ _______ _____ _____    ______ ____
ROOT
ATOM      1  C   UNL     1       0.977   9.128  20.285  0.00  0.00    +0.000 A 
ATOM      2  C   UNL     1       0.604   9.897  19.177  0.00  0.00    +0.000 A 
ATOM      3  C   UNL     1       1.079   9.556  17.911  0.00  0.00    +0.000 A 
ATOM      4  C   UNL     1       1.936   8.462  17.766  0.00  0.00    +0.000 A 
ATOM      5  C   UNL     1       2.314   7.698  18.882  0.00  0.00    +0.000 A 
ATOM      6  C   UNL     1       1.824   8.025  20.145  0.00  0.00    +0.000 A 
ENDROOT
BRANCH   5   7
ATOM      7  C   UNL     1       3.235   6.550  18.678  0.00  0.00    +0.000 C 
ATOM      8  O   UNL     1       3.471   5.791  19.611  0.00  0.00    +0.000 OA
ATOM      9  N   UNL     1       3.767   6.390  17.416  0.00  0.00    +0.000 N 
ATOM     10  H   UNL     1       3.543   7.032  16.669  0.00  0.00    +0.000 HD
BRANCH   9  11
ATOM     11  C   UNL     1       4.626   5.258  17.092  0.00  0.00    +0.000 C 
BRANCH  11  12
ATOM     12  C   UNL     1       5.945   5.612  16.326  0.00  0.00    +0.000 C 
BRANCH  12  13
ATOM     13  C   UNL     1       6.927   6.202  17.312  0.00  0.00    +0.000 A 
ATOM     14  C   UNL     1       7.530   7.439  17.432  0.00  0.00    +0.000 A 
ATOM     15  C   UNL     1       8.277   7.407  18.633  0.00  0.00    +0.000 A 
ATOM     16  C   UNL     1       8.103   6.150  19.159  0.00  0.00    +0.000 A 
ATOM     17  O   UNL     1       7.288   5.409  18.365  0.00  0.00    +0.000 OA
ENDBRANCH  12  13
BRANCH  12  18
ATOM     18  N   UNL     1       6.552   4.428  15.630  0.00  0.00    +0.000 NA
ATOM     19  C   UNL     1       5.578   3.342  15.464  0.00  0.00    +0.000 C 
ATOM     20  C   UNL     1       7.035   4.803  14.289  0.00  0.00    +0.000 C 
ENDBRANCH  12  18
ENDBRANCH  11  12
ENDBRANCH   9  11
ENDBRANCH   5   7
BRANCH   1  21
ATOM     21  S   UNL     1       0.480   9.637  21.908  0.00  0.00    +0.000 S 
ATOM     22  O   UNL     1       1.602   9.453  22.795  0.00  0.00    +0.000 OA
ATOM     23  O   UNL     1      -0.796   8.997  22.182  0.00  0.00    +0.000 OA
BRANCH  21  24
ATOM     24  N   UNL     1       0.156  11.267  21.743  0.00  0.00    +0.000 N 
ATOM     25  H   UNL     1       0.933  11.871  21.488  0.00  0.00    +0.000 HD
BRANCH  24  32
ATOM     26  C   UNL     1      -1.821  12.254  20.641  0.00  0.00    +0.000 A 
ATOM     27  C   UNL     1      -3.132  12.726  20.753  0.00  0.00    +0.000 A 
ATOM     28  C   UNL     1      -3.787  12.748  21.980  0.00  0.00    +0.000 A 
ATOM     29  C   UNL     1      -3.138  12.265  23.113  0.00  0.00    +0.000 A 
ATOM     30 CL   UNL     1      -3.968  12.262  24.616  0.00  0.00    +0.000 Cl
ATOM     31  C   UNL     1      -1.831  11.783  23.033  0.00  0.00    +0.000 A 
ATOM     32  C   UNL     1      -1.166  11.775  21.807  0.00  0.00    +0.000 A 
BRANCH  26  34
ATOM     33  C   UNL     1      -0.638  13.477  19.018  0.00  0.00    +0.000 C 
ATOM     34  O   UNL     1      -1.144  12.215  19.449  0.00  0.00    +0.000 OA
ENDBRANCH  26  34
ENDBRANCH  24  32
ENDBRANCH  21  24
ENDBRANCH   1  21
TORSDOF 9
ENDMDL
MODEL 6
REMARK VINA RESULT:      -7.7      4.085      9.575
REMARK  Name = 
REMARK  12 active torsions:
REMARK  status: ('A' for Active; 'I' for Inactive)
REMARK    1  A    between atoms: C_1  and  O_2
REMARK    2  A    between atoms: O_2  and  C_3
REMARK    3  A    between atoms: C_9  and  N_10
REMARK    4  A    between atoms: N_10  and  S_11
REMARK    5  A    between atoms: S_11  and  C_14
REMARK    6  A    between atoms: C_18  and  C_19
REMARK    7  A    between atoms: N_21  and  C_22
REMARK    8  A    between atoms: C_22  and  C_23
REMARK    9  A    between atoms: C_23  and  C_24
REMARK   10  A    between atoms: C_23  and  N_29
REMARK   11  A    between atoms: N_29  and  C_30
REMARK   12  A    between atoms: N_29  and  C_31
REMARK                            x       y       z     vdW  Elec       q    Type
REMARK                         _______ _______ _______ _____ _____    ______ ____
ROOT
ATOM      1  C   UNL     1       0.968   8.786  20.473  0.00  0.00    +0.000 A 
ATOM      2  C   UNL     1       0.911   9.454  19.244  0.00  0.00    +0.000 A 
ATOM      3  C   UNL     1       1.656   8.978  18.167  0.00  0.00    +0.000 A 
ATOM      4  C   UNL     1       2.464   7.850  18.330  0.00  0.00    +0.000 A 
ATOM      5  C   UNL     1       2.525   7.188  19.567  0.00  0.00    +0.000 A 
ATOM      6  C   UNL     1       1.765   7.651  20.639  0.00  0.00    +0.000 A 
ENDROOT
BRANCH   5   7
ATOM      7  C   UNL     1       3.407   5.999  19.693  0.00  0.00    +0.000 C 
ATOM      8  O   UNL     1       3.030   5.035  20.350  0.00  0.00    +0.000 OA
ATOM      9  N   UNL     1       4.616   6.043  19.033  0.00  0.00    +0.000 N 
ATOM     10  H   UNL     1       4.889   6.852  18.494  0.00  0.00    +0.000 HD
BRANCH   9  11
ATOM     11  C   UNL     1       5.524   4.902  19.036  0.00  0.00    +0.000 C 
BRANCH  11  12
ATOM     12  C   UNL     1       5.480   4.004  17.753  0.00  0.00    +0.000 C 
BRANCH  12  13
ATOM     13  C   UNL     1       4.123   3.341  17.680  0.00  0.00    +0.000 A 
ATOM     14  C   UNL     1       3.639   2.113  18.091  0.00  0.00    +0.000 A 
ATOM     15  C   UNL     1       2.249   2.123  17.829  0.00  0.00    +0.000 A 
ATOM     16  C   UNL     1       1.974   3.341  17.257  0.00  0.00    +0.000 A 
ATOM     17  O   UNL     1       3.104   4.088  17.159  0.00  0.00    +0.000 OA
ENDBRANCH  12  13
BRANCH  12  18
ATOM     18  N   UNL     1       5.754   4.773  16.493  0.00  0.00    +0.000 NA
ATOM     19  C   UNL     1       6.941   5.626  16.628  0.00  0.00    +0.000 C 
ATOM     20  C   UNL     1       5.989   3.855  15.364  0.00  0.00    +0.000 C 
ENDBRANCH  12  18
ENDBRANCH  11  12
ENDBRANCH   9  11
ENDBRANCH   5   7
BRANCH   1  21
ATOM     21  S   UNL     1       0.125   9.466  21.876  0.00  0.00    +0.000 S 
ATOM     22  O   UNL     1       1.120   9.918  22.816  0.00  0.00    +0.000 OA
ATOM     23  O   UNL     1      -0.888   8.501  22.272  0.00  0.00    +0.000 OA
BRANCH  21  24
ATOM     24  N   UNL     1      -0.703  10.779  21.258  0.00  0.00    +0.000 N 
ATOM     25  H   UNL     1      -1.013  10.718  20.292  0.00  0.00    +0.000 HD
BRANCH  24  32
ATOM     26  C   UNL     1      -0.295  13.044  22.151  0.00  0.00    +0.000 A 
ATOM     27  C   UNL     1      -0.730  14.101  22.956  0.00  0.00    +0.000 A 
ATOM     28  C   UNL     1      -1.910  14.008  23.690  0.00  0.00    +0.000 A 
ATOM     29  C   UNL     1      -2.685  12.856  23.599  0.00  0.00    +0.000 A 
ATOM     30 CL   UNL     1      -4.157  12.765  24.479  0.00  0.00    +0.000 Cl
ATOM     31  C   UNL     1      -2.280  11.786  22.800  0.00  0.00    +0.000 A 
ATOM     32  C   UNL     1      -1.090  11.870  22.076  0.00  0.00    +0.000 A 
BRANCH  26  34
ATOM     33  C   UNL     1       0.772  13.912  20.244  0.00  0.00    +0.000 C 
ATOM     34  O   UNL     1       0.859  13.100  21.413  0.00  0.00    +0.000 OA
ENDBRANCH  26  34
ENDBRANCH  24  32
ENDBRANCH  21  24
ENDBRANCH   1  21
TORSDOF 9
ENDMDL
MODEL 7
REMARK VINA RESULT:      -7.7      4.344     10.210
REMARK  Name = 
REMARK  12 active torsions:
REMARK  status: ('A' for Active; 'I' for Inactive)
REMARK    1  A    between atoms: C_1  and  O_2
REMARK    2  A    between atoms: O_2  and  C_3
REMARK    3  A    between atoms: C_9  and  N_10
REMARK    4  A    between atoms: N_10  and  S_11
REMARK    5  A    between atoms: S_11  and  C_14
REMARK    6  A    between atoms: C_18  and  C_19
REMARK    7  A    between atoms: N_21  and  C_22
REMARK    8  A    between atoms: C_22  and  C_23
REMARK    9  A    between atoms: C_23  and  C_24
REMARK   10  A    between atoms: C_23  and  N_29
REMARK   11  A    between atoms: N_29  and  C_30
REMARK   12  A    between atoms: N_29  and  C_31
REMARK                            x       y       z     vdW  Elec       q    Type
REMARK                         _______ _______ _______ _____ _____    ______ ____
ROOT
ATOM      1  C   UNL     1       0.984   9.812  20.328  0.00  0.00    +0.000 A 
ATOM      2  C   UNL     1       1.017  10.378  19.048  0.00  0.00    +0.000 A 
ATOM      3  C   UNL     1       1.513   9.632  17.979  0.00  0.00    +0.000 A 
ATOM      4  C   UNL     1       1.987   8.337  18.201  0.00  0.00    +0.000 A 
ATOM      5  C   UNL     1       1.960   7.777  19.488  0.00  0.00    +0.000 A 
ATOM      6  C   UNL     1       1.446   8.514  20.554  0.00  0.00    +0.000 A 
ENDROOT
BRANCH   5   7
ATOM      7  C   UNL     1       2.485   6.400  19.675  0.00  0.00    +0.000 C 
ATOM      8  O   UNL     1       1.793   5.561  20.243  0.00  0.00    +0.000 OA
ATOM      9  N   UNL     1       3.739   6.133  19.169  0.00  0.00    +0.000 N 
ATOM     10  H   UNL     1       4.276   6.847  18.699  0.00  0.00    +0.000 HD
BRANCH   9  11
ATOM     11  C   UNL     1       4.317   4.796  19.238  0.00  0.00    +0.000 C 
BRANCH  11  12
ATOM     12  C   UNL     1       4.089   3.899  17.974  0.00  0.00    +0.000 C 
BRANCH  12  13
ATOM     13  C   UNL     1       5.249   4.104  17.027  0.00  0.00    +0.000 A 
ATOM     14  C   UNL     1       5.400   3.967  15.661  0.00  0.00    +0.000 A 
ATOM     15  C   UNL     1       6.709   4.409  15.355  0.00  0.00    +0.000 A 
ATOM     16  C   UNL     1       7.282   4.766  16.551  0.00  0.00    +0.000 A 
ATOM     17  O   UNL     1       6.407   4.583  17.573  0.00  0.00    +0.000 OA
ENDBRANCH  12  13
BRANCH  12  18
ATOM     18  N   UNL     1       3.940   2.444  18.310  0.00  0.00    +0.000 NA
ATOM     19  C   UNL     1       4.118   2.200  19.748  0.00  0.00    +0.000 C 
ATOM     20  C   UNL     1       2.600   1.958  17.938  0.00  0.00    +0.000 C 
ENDBRANCH  12  18
ENDBRANCH  11  12
ENDBRANCH   9  11
ENDBRANCH   5   7
BRANCH   1  21
ATOM     21  S   UNL     1       0.477  10.804  21.707  0.00  0.00    +0.000 S 
ATOM     22  O   UNL     1       1.053  12.116  21.546  0.00  0.00    +0.000 OA
ATOM     23  O   UNL     1       0.730  10.024  22.907  0.00  0.00    +0.000 OA
BRANCH  21  24
ATOM     24  N   UNL     1      -1.184  10.896  21.555  0.00  0.00    +0.000 N 
ATOM     25  H   UNL     1      -1.687  10.021  21.435  0.00  0.00    +0.000 HD
BRANCH  24  32
ATOM     26  C   UNL     1      -2.247  12.916  20.617  0.00  0.00    +0.000 A 
ATOM     27  C   UNL     1      -2.955  14.101  20.843  0.00  0.00    +0.000 A 
ATOM     28  C   UNL     1      -3.286  14.508  22.132  0.00  0.00    +0.000 A 
ATOM     29  C   UNL     1      -2.933  13.708  23.215  0.00  0.00    +0.000 A 
ATOM     30 CL   UNL     1      -3.377  14.199  24.799  0.00  0.00    +0.000 Cl
ATOM     31  C   UNL     1      -2.230  12.517  23.022  0.00  0.00    +0.000 A 
ATOM     32  C   UNL     1      -1.883  12.116  21.732  0.00  0.00    +0.000 A 
BRANCH  26  34
ATOM     33  C   UNL     1      -2.934  11.758  18.690  0.00  0.00    +0.000 C 
ATOM     34  O   UNL     1      -1.906  12.483  19.362  0.00  0.00    +0.000 OA
ENDBRANCH  26  34
ENDBRANCH  24  32
ENDBRANCH  21  24
ENDBRANCH   1  21
TORSDOF 9
ENDMDL
MODEL 8
REMARK VINA RESULT:      -7.7      3.902      9.550
REMARK  Name = 
REMARK  12 active torsions:
REMARK  status: ('A' for Active; 'I' for Inactive)
REMARK    1  A    between atoms: C_1  and  O_2
REMARK    2  A    between atoms: O_2  and  C_3
REMARK    3  A    between atoms: C_9  and  N_10
REMARK    4  A    between atoms: N_10  and  S_11
REMARK    5  A    between atoms: S_11  and  C_14
REMARK    6  A    between atoms: C_18  and  C_19
REMARK    7  A    between atoms: N_21  and  C_22
REMARK    8  A    between atoms: C_22  and  C_23
REMARK    9  A    between atoms: C_23  and  C_24
REMARK   10  A    between atoms: C_23  and  N_29
REMARK   11  A    between atoms: N_29  and  C_30
REMARK   12  A    between atoms: N_29  and  C_31
REMARK                            x       y       z     vdW  Elec       q    Type
REMARK                         _______ _______ _______ _____ _____    ______ ____
ROOT
ATOM      1  C   UNL     1       1.316   8.514  19.980  0.00  0.00    +0.000 A 
ATOM      2  C   UNL     1       1.432   9.333  18.852  0.00  0.00    +0.000 A 
ATOM      3  C   UNL     1       2.214   8.916  17.776  0.00  0.00    +0.000 A 
ATOM      4  C   UNL     1       2.887   7.694  17.843  0.00  0.00    +0.000 A 
ATOM      5  C   UNL     1       2.775   6.879  18.981  0.00  0.00    +0.000 A 
ATOM      6  C   UNL     1       1.977   7.285  20.049  0.00  0.00    +0.000 A 
ENDROOT
BRANCH   5   7
ATOM      7  C   UNL     1       3.517   5.592  19.010  0.00  0.00    +0.000 C 
ATOM      8  O   UNL     1       2.925   4.558  19.298  0.00  0.00    +0.000 OA
ATOM      9  N   UNL     1       4.856   5.634  18.683  0.00  0.00    +0.000 N 
ATOM     10  H   UNL     1       5.309   6.503  18.442  0.00  0.00    +0.000 HD
BRANCH   9  11
ATOM     11  C   UNL     1       5.658   4.418  18.613  0.00  0.00    +0.000 C 
BRANCH  11  12
ATOM     12  C   UNL     1       6.940   4.509  17.716  0.00  0.00    +0.000 C 
BRANCH  12  13
ATOM     13  C   UNL     1       6.514   4.452  16.267  0.00  0.00    +0.000 A 
ATOM     14  C   UNL     1       5.300   4.258  15.637  0.00  0.00    +0.000 A 
ATOM     15  C   UNL     1       5.537   4.415  14.251  0.00  0.00    +0.000 A 
ATOM     16  C   UNL     1       6.880   4.671  14.118  0.00  0.00    +0.000 A 
ATOM     17  O   UNL     1       7.484   4.694  15.335  0.00  0.00    +0.000 OA
ENDBRANCH  12  13
BRANCH  12  18
ATOM     18  N   UNL     1       7.747   5.748  17.975  0.00  0.00    +0.000 NA
ATOM     19  C   UNL     1       7.078   6.947  17.454  0.00  0.00    +0.000 C 
ATOM     20  C   UNL     1       7.951   5.944  19.421  0.00  0.00    +0.000 C 
ENDBRANCH  12  18
ENDBRANCH  11  12
ENDBRANCH   9  11
ENDBRANCH   5   7
BRANCH   1  21
ATOM     21  S   UNL     1       0.430   9.102  21.398  0.00  0.00    +0.000 S 
ATOM     22  O   UNL     1       1.393   9.591  22.353  0.00  0.00    +0.000 OA
ATOM     23  O   UNL     1      -0.520   8.064  21.766  0.00  0.00    +0.000 OA
BRANCH  21  24
ATOM     24  N   UNL     1      -0.478  10.375  20.813  0.00  0.00    +0.000 N 
ATOM     25  H   UNL     1      -0.986  10.222  19.945  0.00  0.00    +0.000 HD
BRANCH  24  32
ATOM     26  C   UNL     1       0.248  12.652  21.430  0.00  0.00    +0.000 A 
ATOM     27  C   UNL     1       0.015  13.815  22.170  0.00  0.00    +0.000 A 
ATOM     28  C   UNL     1      -1.073  13.913  23.033  0.00  0.00    +0.000 A 
ATOM     29  C   UNL     1      -1.961  12.846  23.140  0.00  0.00    +0.000 A 
ATOM     30 CL   UNL     1      -3.320  12.990  24.180  0.00  0.00    +0.000 Cl
ATOM     31  C   UNL     1      -1.758  11.674  22.411  0.00  0.00    +0.000 A 
ATOM     32  C   UNL     1      -0.659  11.567  21.557  0.00  0.00    +0.000 A 
BRANCH  26  34
ATOM     33  C   UNL     1       1.852  13.757  20.112  0.00  0.00    +0.000 C 
ATOM     34  O   UNL     1       1.307  12.521  20.569  0.00  0.00    +0.000 OA
ENDBRANCH  26  34
ENDBRANCH  24  32
ENDBRANCH  21  24
ENDBRANCH   1  21
TORSDOF 9
ENDMDL
MODEL 9
REMARK VINA RESULT:      -7.6      3.740      9.332
REMARK  Name = 
REMARK  12 active torsions:
REMARK  status: ('A' for Active; 'I' for Inactive)
REMARK    1  A    between atoms: C_1  and  O_2
REMARK    2  A    between atoms: O_2  and  C_3
REMARK    3  A    between atoms: C_9  and  N_10
REMARK    4  A    between atoms: N_10  and  S_11
REMARK    5  A    between atoms: S_11  and  C_14
REMARK    6  A    between atoms: C_18  and  C_19
REMARK    7  A    between atoms: N_21  and  C_22
REMARK    8  A    between atoms: C_22  and  C_23
REMARK    9  A    between atoms: C_23  and  C_24
REMARK   10  A    between atoms: C_23  and  N_29
REMARK   11  A    between atoms: N_29  and  C_30
REMARK   12  A    between atoms: N_29  and  C_31
REMARK                            x       y       z     vdW  Elec       q    Type
REMARK                         _______ _______ _______ _____ _____    ______ ____
ROOT
ATOM      1  C   UNL     1       0.649   9.208  20.203  0.00  0.00    +0.000 A 
ATOM      2  C   UNL     1       0.228   9.997  19.126  0.00  0.00    +0.000 A 
ATOM      3  C   UNL     1       0.788   9.794  17.865  0.00  0.00    +0.000 A 
ATOM      4  C   UNL     1       1.775   8.821  17.695  0.00  0.00    +0.000 A 
ATOM      5  C   UNL     1       2.200   8.038  18.781  0.00  0.00    +0.000 A 
ATOM      6  C   UNL     1       1.627   8.224  20.037  0.00  0.00    +0.000 A 
ENDROOT
BRANCH   5   7
ATOM      7  C   UNL     1       3.259   7.021  18.552  0.00  0.00    +0.000 C 
ATOM      8  O   UNL     1       3.859   7.003  17.482  0.00  0.00    +0.000 OA
ATOM      9  N   UNL     1       3.525   6.149  19.586  0.00  0.00    +0.000 N 
ATOM     10  H   UNL     1       3.015   6.200  20.456  0.00  0.00    +0.000 HD
BRANCH   9  11
ATOM     11  C   UNL     1       4.591   5.159  19.489  0.00  0.00    +0.000 C 
BRANCH  11  12
ATOM     12  C   UNL     1       4.123   3.693  19.197  0.00  0.00    +0.000 C 
BRANCH  12  13
ATOM     13  C   UNL     1       2.890   3.411  20.025  0.00  0.00    +0.000 A 
ATOM     14  C   UNL     1       1.540   3.628  19.829  0.00  0.00    +0.000 A 
ATOM     15  C   UNL     1       0.875   3.046  20.934  0.00  0.00    +0.000 A 
ATOM     16  C   UNL     1       1.857   2.532  21.745  0.00  0.00    +0.000 A 
ATOM     17  O   UNL     1       3.084   2.750  21.205  0.00  0.00    +0.000 OA
ENDBRANCH  12  13
BRANCH  12  18
ATOM     18  N   UNL     1       3.843   3.449  17.743  0.00  0.00    +0.000 NA
ATOM     19  C   UNL     1       4.989   3.817  16.903  0.00  0.00    +0.000 C 
ATOM     20  C   UNL     1       3.550   2.025  17.502  0.00  0.00    +0.000 C 
ENDBRANCH  12  18
ENDBRANCH  11  12
ENDBRANCH   9  11
ENDBRANCH   5   7
BRANCH   1  21
ATOM     21  S   UNL     1       0.033   9.553  21.829  0.00  0.00    +0.000 S 
ATOM     22  O   UNL     1       1.122  10.080  22.614  0.00  0.00    +0.000 OA
ATOM     23  O   UNL     1      -0.695   8.372  22.266  0.00  0.00    +0.000 OA
BRANCH  21  24
ATOM     24  N   UNL     1      -1.114  10.742  21.588  0.00  0.00    +0.000 N 
ATOM     25  H   UNL     1      -2.001  10.455  21.184  0.00  0.00    +0.000 HD
BRANCH  24  32
ATOM     26  C   UNL     1      -1.755  12.603  23.078  0.00  0.00    +0.000 A 
ATOM     27  C   UNL     1      -1.516  13.907  23.522  0.00  0.00    +0.000 A 
ATOM     28  C   UNL     1      -0.499  14.681  22.970  0.00  0.00    +0.000 A 
ATOM     29  C   UNL     1       0.314  14.138  21.978  0.00  0.00    +0.000 A 
ATOM     30 CL   UNL     1       1.588  15.088  21.328  0.00  0.00    +0.000 Cl
ATOM     31  C   UNL     1       0.103  12.838  21.517  0.00  0.00    +0.000 A 
ATOM     32  C   UNL     1      -0.926  12.066  22.057  0.00  0.00    +0.000 A 
BRANCH  26  34
ATOM     33  C   UNL     1      -3.809  12.530  24.219  0.00  0.00    +0.000 C 
ATOM     34  O   UNL     1      -2.745  11.811  23.600  0.00  0.00    +0.000 OA
ENDBRANCH  26  34
ENDBRANCH  24  32
ENDBRANCH  21  24
ENDBRANCH   1  21
TORSDOF 9
ENDMDL
