MODEL 1
REMARK VINA RESULT:      -8.1      0.000      0.000
REMARK  Name = 
REMARK  5 active torsions:
REMARK  status: ('A' for Active; 'I' for Inactive)
REMARK    1  A    between atoms: C_2  and  C_13
REMARK    2  A    between atoms: N_3  and  C_4
REMARK    3  A    between atoms: C_4  and  C_5
REMARK    4  A    between atoms: C_5  and  C_6
REMARK    5  A    between atoms: C_16  and  C_17
REMARK                            x       y       z     vdW  Elec       q    Type
REMARK                         _______ _______ _______ _____ _____    ______ ____
ROOT
ATOM      1  O   UNL     1       7.607   6.617  16.273  0.00  0.00    +0.000 OA
ATOM      2  C   UNL     1       6.980   6.887  17.294  0.00  0.00    +0.000 C 
ATOM      3  N   UNL     1       7.342   7.902  18.158  0.00  0.00    +0.000 N 
ATOM      4  H   UNL     1       6.720   8.090  18.940  0.00  0.00    +0.000 HD
ENDROOT
BRANCH   2   5
ATOM      5  C   UNL     1       5.757   6.108  17.671  0.00  0.00    +0.000 A 
ATOM      6  C   UNL     1       4.508   6.668  17.428  0.00  0.00    +0.000 A 
ATOM      7  C   UNL     1       3.373   5.938  17.774  0.00  0.00    +0.000 A 
ATOM      8  C   UNL     1       3.506   4.676  18.357  0.00  0.00    +0.000 A 
ATOM      9  C   UNL     1       4.805   4.200  18.552  0.00  0.00    +0.000 A 
ATOM     10  N   UNL     1       5.938   4.879  18.227  0.00  0.00    +0.000 NA
BRANCH   8  11
ATOM     11  C   UNL     1       2.343   3.899  18.744  0.00  0.00    +0.000 A 
ATOM     12  C   UNL     1       1.802   2.702  18.218  0.00  0.00    +0.000 A 
ATOM     13  N   UNL     1       0.711   2.296  18.874  0.00  0.00    +0.000 NA
ATOM     14  N   UNL     1       0.547   3.230  19.822  0.00  0.00    +0.000 N 
ATOM     15  C   UNL     1       1.496   4.210  19.787  0.00  0.00    +0.000 A 
ATOM     16  H   UNL     1      -0.234   3.134  20.462  0.00  0.00    +0.000 HD
ENDBRANCH   8  11
ENDBRANCH   2   5
BRANCH   3  17
ATOM     17  C   UNL     1       8.496   8.730  17.870  0.00  0.00    +0.000 C 
BRANCH  17  18
ATOM     18  C   UNL     1       8.284  10.205  18.197  0.00  0.00    +0.000 C 
BRANCH  18  19
ATOM     19  C   UNL     1       9.572  10.865  18.620  0.00  0.00    +0.000 A 
ATOM     20  C   UNL     1      10.496  11.318  17.669  0.00  0.00    +0.000 A 
ATOM     21  C   UNL     1      11.672  11.959  18.074  0.00  0.00    +0.000 A 
ATOM     22  C   UNL     1      11.934  12.157  19.430  0.00  0.00    +0.000 A 
ATOM     23  C   UNL     1      11.017  11.719  20.383  0.00  0.00    +0.000 A 
ATOM     24  C   UNL     1       9.850  11.082  19.974  0.00  0.00    +0.000 A 
ATOM     25  F   UNL     1       8.974  10.677  20.906  0.00  0.00    +0.000 F 
ENDBRANCH  18  19
ENDBRANCH  17  18
ENDBRANCH   3  17
TORSDOF 5
ENDMDL
MODEL 2
REMARK VINA RESULT:      -7.8      5.680      8.525
REMARK  Name = 
REMARK  5 active torsions:
REMARK  status: ('A' for Active; 'I' for Inactive)
REMARK    1  A    between atoms: C_2  and  C_13
REMARK    2  A    between atoms: N_3  and  C_4
REMARK    3  A    between atoms: C_4  and  C_5
REMARK    4  A    between atoms: C_5  and  C_6
REMARK    5  A    between atoms: C_16  and  C_17
REMARK                            x       y       z     vdW  Elec       q    Type
REMARK                         _______ _______ _______ _____ _____    ______ ____
ROOT
ATOM      1  O   UNL     1       4.774   5.535  19.339  0.00  0.00    +0.000 OA
ATOM      2  C   UNL     1       3.837   5.740  18.571  0.00  0.00    +0.000 C 
ATOM      3  N   UNL     1       3.508   4.889  17.533  0.00  0.00    +0.000 N 
ATOM      4  H   UNL     1       2.675   5.112  16.996  0.00  0.00    +0.000 HD
ENDROOT
BRANCH   2   5
ATOM      5  C   UNL     1       2.978   6.959  18.718  0.00  0.00    +0.000 A 
ATOM      6  C   UNL     1       2.896   7.850  17.654  0.00  0.00    +0.000 A 
ATOM      7  C   UNL     1       2.091   8.979  17.792  0.00  0.00    +0.000 A 
ATOM      8  C   UNL     1       1.393   9.197  18.982  0.00  0.00    +0.000 A 
ATOM      9  C   UNL     1       1.535   8.237  19.987  0.00  0.00    +0.000 A 
ATOM     10  N   UNL     1       2.309   7.121  19.892  0.00  0.00    +0.000 NA
BRANCH   8  11
ATOM     11  C   UNL     1       0.559  10.371  19.162  0.00  0.00    +0.000 A 
ATOM     12  C   UNL     1       0.833  11.747  18.984  0.00  0.00    +0.000 A 
ATOM     13  N   UNL     1      -0.223  12.522  19.248  0.00  0.00    +0.000 NA
ATOM     14  N   UNL     1      -1.178  11.647  19.596  0.00  0.00    +0.000 N 
ATOM     15  C   UNL     1      -0.761  10.348  19.561  0.00  0.00    +0.000 A 
ATOM     16  H   UNL     1      -2.094  12.007  19.843  0.00  0.00    +0.000 HD
ENDBRANCH   8  11
ENDBRANCH   2   5
BRANCH   3  17
ATOM     17  C   UNL     1       4.264   3.671  17.322  0.00  0.00    +0.000 C 
BRANCH  17  18
ATOM     18  C   UNL     1       3.507   2.408  17.724  0.00  0.00    +0.000 C 
BRANCH  18  19
ATOM     19  C   UNL     1       2.740   2.613  19.007  0.00  0.00    +0.000 A 
ATOM     20  C   UNL     1       1.362   2.871  18.989  0.00  0.00    +0.000 A 
ATOM     21  C   UNL     1       0.656   3.025  20.187  0.00  0.00    +0.000 A 
ATOM     22  C   UNL     1       1.316   2.918  21.412  0.00  0.00    +0.000 A 
ATOM     23  C   UNL     1       2.683   2.652  21.440  0.00  0.00    +0.000 A 
ATOM     24  C   UNL     1       3.380   2.500  20.245  0.00  0.00    +0.000 A 
ATOM     25  F   UNL     1       4.694   2.233  20.294  0.00  0.00    +0.000 F 
ENDBRANCH  18  19
ENDBRANCH  17  18
ENDBRANCH   3  17
TORSDOF 5
ENDMDL
MODEL 3
REMARK VINA RESULT:      -7.7      5.719      8.489
REMARK  Name = 
REMARK  5 active torsions:
REMARK  status: ('A' for Active; 'I' for Inactive)
REMARK    1  A    between atoms: C_2  and  C_13
REMARK    2  A    between atoms: N_3  and  C_4
REMARK    3  A    between atoms: C_4  and  C_5
REMARK    4  A    between atoms: C_5  and  C_6
REMARK    5  A    between atoms: C_16  and  C_17
REMARK                            x       y       z     vdW  Elec       q    Type
REMARK                         _______ _______ _______ _____ _____    ______ ____
ROOT
ATOM      1  O   UNL     1       5.018   5.541  18.962  0.00  0.00    +0.000 OA
ATOM      2  C   UNL     1       3.946   5.655  18.373  0.00  0.00    +0.000 C 
ATOM      3  N   UNL     1       3.471   4.716  17.478  0.00  0.00    +0.000 N 
ATOM      4  H   UNL     1       2.543   4.869  17.094  0.00  0.00    +0.000 HD
ENDROOT
BRANCH   2   5
ATOM      5  C   UNL     1       3.073   6.852  18.595  0.00  0.00    +0.000 A 
ATOM      6  C   UNL     1       2.366   6.950  19.788  0.00  0.00    +0.000 A 
ATOM      7  C   UNL     1       1.561   8.067  19.994  0.00  0.00    +0.000 A 
ATOM      8  C   UNL     1       1.472   9.054  19.010  0.00  0.00    +0.000 A 
ATOM      9  C   UNL     1       2.228   8.866  17.851  0.00  0.00    +0.000 A 
ATOM     10  N   UNL     1       3.028   7.791  17.611  0.00  0.00    +0.000 NA
BRANCH   8  11
ATOM     11  C   UNL     1       0.629  10.222  19.188  0.00  0.00    +0.000 A 
ATOM     12  C   UNL     1      -0.770  10.346  19.365  0.00  0.00    +0.000 A 
ATOM     13  N   UNL     1      -1.161  11.616  19.507  0.00  0.00    +0.000 NA
ATOM     14  N   UNL     1      -0.017  12.311  19.421  0.00  0.00    +0.000 N 
ATOM     15  C   UNL     1       1.082  11.524  19.231  0.00  0.00    +0.000 A 
ATOM     16  H   UNL     1      -0.060  13.321  19.505  0.00  0.00    +0.000 HD
ENDBRANCH   8  11
ENDBRANCH   2   5
BRANCH   3  17
ATOM     17  C   UNL     1       4.230   3.510  17.213  0.00  0.00    +0.000 C 
BRANCH  17  18
ATOM     18  C   UNL     1       3.574   2.245  17.759  0.00  0.00    +0.000 C 
BRANCH  18  19
ATOM     19  C   UNL     1       2.776   2.535  19.005  0.00  0.00    +0.000 A 
ATOM     20  C   UNL     1       1.394   2.764  18.939  0.00  0.00    +0.000 A 
ATOM     21  C   UNL     1       0.659   2.998  20.106  0.00  0.00    +0.000 A 
ATOM     22  C   UNL     1       1.294   3.000  21.349  0.00  0.00    +0.000 A 
ATOM     23  C   UNL     1       2.665   2.763  21.426  0.00  0.00    +0.000 A 
ATOM     24  C   UNL     1       3.391   2.532  20.261  0.00  0.00    +0.000 A 
ATOM     25  F   UNL     1       4.708   2.294  20.357  0.00  0.00    +0.000 F 
ENDBRANCH  18  19
ENDBRANCH  17  18
ENDBRANCH   3  17
TORSDOF 5
ENDMDL
MODEL 4
REMARK VINA RESULT:      -7.7      1.246      1.695
REMARK  Name = 
REMARK  5 active torsions:
REMARK  status: ('A' for Active; 'I' for Inactive)
REMARK    1  A    between atoms: C_2  and  C_13
REMARK    2  A    between atoms: N_3  and  C_4
REMARK    3  A    between atoms: C_4  and  C_5
REMARK    4  A    between atoms: C_5  and  C_6
REMARK    5  A    between atoms: C_16  and  C_17
REMARK                            x       y       z     vdW  Elec       q    Type
REMARK                         _______ _______ _______ _____ _____    ______ ____
ROOT
ATOM      1  O   UNL     1       7.785   6.690  16.482  0.00  0.00    +0.000 OA
ATOM      2  C   UNL     1       7.019   7.104  17.349  0.00  0.00    +0.000 C 
ATOM      3  N   UNL     1       7.193   8.310  17.999  0.00  0.00    +0.000 N 
ATOM      4  H   UNL     1       6.468   8.595  18.651  0.00  0.00    +0.000 HD
ENDROOT
BRANCH   2   5
ATOM      5  C   UNL     1       5.823   6.302  17.762  0.00  0.00    +0.000 A 
ATOM      6  C   UNL     1       5.975   5.342  18.756  0.00  0.00    +0.000 A 
ATOM      7  C   UNL     1       4.860   4.602  19.143  0.00  0.00    +0.000 A 
ATOM      8  C   UNL     1       3.625   4.830  18.530  0.00  0.00    +0.000 A 
ATOM      9  C   UNL     1       3.576   5.822  17.548  0.00  0.00    +0.000 A 
ATOM     10  N   UNL     1       4.641   6.567  17.143  0.00  0.00    +0.000 NA
BRANCH   8  11
ATOM     11  C   UNL     1       2.449   4.064  18.899  0.00  0.00    +0.000 A 
ATOM     12  C   UNL     1       1.846   2.932  18.302  0.00  0.00    +0.000 A 
ATOM     13  N   UNL     1       0.764   2.513  18.966  0.00  0.00    +0.000 NA
ATOM     14  N   UNL     1       0.667   3.375  19.989  0.00  0.00    +0.000 N 
ATOM     15  C   UNL     1       1.651   4.322  19.995  0.00  0.00    +0.000 A 
ATOM     16  H   UNL     1      -0.094   3.256  20.649  0.00  0.00    +0.000 HD
ENDBRANCH   8  11
ENDBRANCH   2   5
BRANCH   3  17
ATOM     17  C   UNL     1       8.307   9.172  17.654  0.00  0.00    +0.000 C 
BRANCH  17  18
ATOM     18  C   UNL     1       8.888   9.923  18.848  0.00  0.00    +0.000 C 
BRANCH  18  19
ATOM     19  C   UNL     1       9.722  11.099  18.404  0.00  0.00    +0.000 A 
ATOM     20  C   UNL     1      11.111  11.110  18.593  0.00  0.00    +0.000 A 
ATOM     21  C   UNL     1      11.877  12.191  18.146  0.00  0.00    +0.000 A 
ATOM     22  C   UNL     1      11.266  13.268  17.503  0.00  0.00    +0.000 A 
ATOM     23  C   UNL     1       9.888  13.262  17.301  0.00  0.00    +0.000 A 
ATOM     24  C   UNL     1       9.131  12.183  17.749  0.00  0.00    +0.000 A 
ATOM     25  F   UNL     1       7.806  12.191  17.535  0.00  0.00    +0.000 F 
ENDBRANCH  18  19
ENDBRANCH  17  18
ENDBRANCH   3  17
TORSDOF 5
ENDMDL
MODEL 5
REMARK VINA RESULT:      -7.7      1.297      1.635
REMARK  Name = 
REMARK  5 active torsions:
REMARK  status: ('A' for Active; 'I' for Inactive)
REMARK    1  A    between atoms: C_2  and  C_13
REMARK    2  A    between atoms: N_3  and  C_4
REMARK    3  A    between atoms: C_4  and  C_5
REMARK    4  A    between atoms: C_5  and  C_6
REMARK    5  A    between atoms: C_16  and  C_17
REMARK                            x       y       z     vdW  Elec       q    Type
REMARK                         _______ _______ _______ _____ _____    ______ ____
ROOT
ATOM      1  O   UNL     1       7.811   6.627  16.237  0.00  0.00    +0.000 OA
ATOM      2  C   UNL     1       7.133   6.759  17.253  0.00  0.00    +0.000 C 
ATOM      3  N   UNL     1       7.389   7.716  18.215  0.00  0.00    +0.000 N 
ATOM      4  H   UNL     1       6.731   7.788  18.985  0.00  0.00    +0.000 HD
ENDROOT
BRANCH   2   5
ATOM      5  C   UNL     1       5.961   5.863  17.514  0.00  0.00    +0.000 A 
ATOM      6  C   UNL     1       4.679   6.388  17.394  0.00  0.00    +0.000 A 
ATOM      7  C   UNL     1       3.592   5.551  17.631  0.00  0.00    +0.000 A 
ATOM      8  C   UNL     1       3.803   4.217  17.987  0.00  0.00    +0.000 A 
ATOM      9  C   UNL     1       5.129   3.784  18.072  0.00  0.00    +0.000 A 
ATOM     10  N   UNL     1       6.218   4.569  17.847  0.00  0.00    +0.000 NA
BRANCH   8  11
ATOM     11  C   UNL     1       2.691   3.324  18.256  0.00  0.00    +0.000 A 
ATOM     12  C   UNL     1       1.294   3.545  18.258  0.00  0.00    +0.000 A 
ATOM     13  N   UNL     1       0.597   2.443  18.551  0.00  0.00    +0.000 NA
ATOM     14  N   UNL     1       1.543   1.511  18.738  0.00  0.00    +0.000 N 
ATOM     15  C   UNL     1       2.812   1.986  18.574  0.00  0.00    +0.000 A 
ATOM     16  H   UNL     1       1.251   0.568  18.974  0.00  0.00    +0.000 HD
ENDBRANCH   8  11
ENDBRANCH   2   5
BRANCH   3  17
ATOM     17  C   UNL     1       8.486   8.648  18.043  0.00  0.00    +0.000 C 
BRANCH  17  18
ATOM     18  C   UNL     1       8.032  10.083  17.795  0.00  0.00    +0.000 C 
BRANCH  18  19
ATOM     19  C   UNL     1       9.029  11.076  18.338  0.00  0.00    +0.000 A 
ATOM     20  C   UNL     1       9.985  10.692  19.288  0.00  0.00    +0.000 A 
ATOM     21  C   UNL     1      10.926  11.614  19.758  0.00  0.00    +0.000 A 
ATOM     22  C   UNL     1      10.925  12.925  19.282  0.00  0.00    +0.000 A 
ATOM     23  C   UNL     1       9.985  13.315  18.330  0.00  0.00    +0.000 A 
ATOM     24  C   UNL     1       9.051  12.393  17.866  0.00  0.00    +0.000 A 
ATOM     25  F   UNL     1       8.162  12.784  16.941  0.00  0.00    +0.000 F 
ENDBRANCH  18  19
ENDBRANCH  17  18
ENDBRANCH   3  17
TORSDOF 5
ENDMDL
MODEL 6
REMARK VINA RESULT:      -7.7      3.682      4.592
REMARK  Name = 
REMARK  5 active torsions:
REMARK  status: ('A' for Active; 'I' for Inactive)
REMARK    1  A    between atoms: C_2  and  C_13
REMARK    2  A    between atoms: N_3  and  C_4
REMARK    3  A    between atoms: C_4  and  C_5
REMARK    4  A    between atoms: C_5  and  C_6
REMARK    5  A    between atoms: C_16  and  C_17
REMARK                            x       y       z     vdW  Elec       q    Type
REMARK                         _______ _______ _______ _____ _____    ______ ____
ROOT
ATOM      1  O   UNL     1       7.546   5.903  18.533  0.00  0.00    +0.000 OA
ATOM      2  C   UNL     1       7.444   6.441  17.434  0.00  0.00    +0.000 C 
ATOM      3  N   UNL     1       7.769   7.764  17.205  0.00  0.00    +0.000 N 
ATOM      4  H   UNL     1       7.714   8.097  16.247  0.00  0.00    +0.000 HD
ENDROOT
BRANCH   2   5
ATOM      5  C   UNL     1       6.946   5.673  16.248  0.00  0.00    +0.000 A 
ATOM      6  C   UNL     1       5.726   5.014  16.344  0.00  0.00    +0.000 A 
ATOM      7  C   UNL     1       5.262   4.306  15.238  0.00  0.00    +0.000 A 
ATOM      8  C   UNL     1       6.023   4.265  14.067  0.00  0.00    +0.000 A 
ATOM      9  C   UNL     1       7.231   4.967  14.070  0.00  0.00    +0.000 A 
ATOM     10  N   UNL     1       7.718   5.672  15.128  0.00  0.00    +0.000 NA
BRANCH   8  11
ATOM     11  C   UNL     1       5.576   3.523  12.903  0.00  0.00    +0.000 A 
ATOM     12  C   UNL     1       4.345   3.533  12.205  0.00  0.00    +0.000 A 
ATOM     13  N   UNL     1       4.337   2.698  11.161  0.00  0.00    +0.000 NA
ATOM     14  N   UNL     1       5.561   2.149  11.186  0.00  0.00    +0.000 N 
ATOM     15  C   UNL     1       6.340   2.609  12.208  0.00  0.00    +0.000 A 
ATOM     16  H   UNL     1       5.798   1.469  10.471  0.00  0.00    +0.000 HD
ENDBRANCH   8  11
ENDBRANCH   2   5
BRANCH   3  17
ATOM     17  C   UNL     1       8.283   8.586  18.283  0.00  0.00    +0.000 C 
BRANCH  17  18
ATOM     18  C   UNL     1       8.386  10.066  17.924  0.00  0.00    +0.000 C 
BRANCH  18  19
ATOM     19  C   UNL     1       9.369  10.780  18.817  0.00  0.00    +0.000 A 
ATOM     20  C   UNL     1       9.118  10.935  20.187  0.00  0.00    +0.000 A 
ATOM     21  C   UNL     1      10.053  11.570  21.011  0.00  0.00    +0.000 A 
ATOM     22  C   UNL     1      11.249  12.051  20.477  0.00  0.00    +0.000 A 
ATOM     23  C   UNL     1      11.513  11.893  19.118  0.00  0.00    +0.000 A 
ATOM     24  C   UNL     1      10.578  11.261  18.303  0.00  0.00    +0.000 A 
ATOM     25  F   UNL     1      10.855  11.108  17.000  0.00  0.00    +0.000 F 
ENDBRANCH  18  19
ENDBRANCH  17  18
ENDBRANCH   3  17
TORSDOF 5
ENDMDL
MODEL 7
REMARK VINA RESULT:      -7.6      1.469      1.835
REMARK  Name = 
REMARK  5 active torsions:
REMARK  status: ('A' for Active; 'I' for Inactive)
REMARK    1  A    between atoms: C_2  and  C_13
REMARK    2  A    between atoms: N_3  and  C_4
REMARK    3  A    between atoms: C_4  and  C_5
REMARK    4  A    between atoms: C_5  and  C_6
REMARK    5  A    between atoms: C_16  and  C_17
REMARK                            x       y       z     vdW  Elec       q    Type
REMARK                         _______ _______ _______ _____ _____    ______ ____
ROOT
ATOM      1  O   UNL     1       8.461   6.678  18.855  0.00  0.00    +0.000 OA
ATOM      2  C   UNL     1       7.442   6.960  18.231  0.00  0.00    +0.000 C 
ATOM      3  N   UNL     1       7.301   8.122  17.496  0.00  0.00    +0.000 N 
ATOM      4  H   UNL     1       6.445   8.231  16.960  0.00  0.00    +0.000 HD
ENDROOT
BRANCH   2   5
ATOM      5  C   UNL     1       6.261   6.038  18.233  0.00  0.00    +0.000 A 
ATOM      6  C   UNL     1       5.485   5.944  17.083  0.00  0.00    +0.000 A 
ATOM      7  C   UNL     1       4.392   5.081  17.086  0.00  0.00    +0.000 A 
ATOM      8  C   UNL     1       4.093   4.338  18.231  0.00  0.00    +0.000 A 
ATOM      9  C   UNL     1       4.939   4.498  19.331  0.00  0.00    +0.000 A 
ATOM     10  N   UNL     1       6.017   5.329  19.368  0.00  0.00    +0.000 NA
BRANCH   8  11
ATOM     11  C   UNL     1       2.952   3.443  18.271  0.00  0.00    +0.000 A 
ATOM     12  C   UNL     1       1.561   3.703  18.292  0.00  0.00    +0.000 A 
ATOM     13  N   UNL     1       0.828   2.586  18.317  0.00  0.00    +0.000 NA
ATOM     14  N   UNL     1       1.744   1.605  18.314  0.00  0.00    +0.000 N 
ATOM     15  C   UNL     1       3.029   2.066  18.286  0.00  0.00    +0.000 A 
ATOM     16  H   UNL     1       1.421   0.644  18.327  0.00  0.00    +0.000 HD
ENDBRANCH   8  11
ENDBRANCH   2   5
BRANCH   3  17
ATOM     17  C   UNL     1       8.396   9.068  17.410  0.00  0.00    +0.000 C 
BRANCH  17  18
ATOM     18  C   UNL     1       8.549   9.936  18.656  0.00  0.00    +0.000 C 
BRANCH  18  19
ATOM     19  C   UNL     1       9.491  11.087  18.411  0.00  0.00    +0.000 A 
ATOM     20  C   UNL     1      10.819  11.040  18.859  0.00  0.00    +0.000 A 
ATOM     21  C   UNL     1      11.693  12.100  18.595  0.00  0.00    +0.000 A 
ATOM     22  C   UNL     1      11.252  13.214  17.879  0.00  0.00    +0.000 A 
ATOM     23  C   UNL     1       9.938  13.266  17.421  0.00  0.00    +0.000 A 
ATOM     24  C   UNL     1       9.073  12.208  17.687  0.00  0.00    +0.000 A 
ATOM     25  F   UNL     1       7.814  12.272  17.228  0.00  0.00    +0.000 F 
ENDBRANCH  18  19
ENDBRANCH  17  18
ENDBRANCH   3  17
TORSDOF 5
ENDMDL
MODEL 8
REMARK VINA RESULT:      -7.6      5.941      8.672
REMARK  Name = 
REMARK  5 active torsions:
REMARK  status: ('A' for Active; 'I' for Inactive)
REMARK    1  A    between atoms: C_2  and  C_13
REMARK    2  A    between atoms: N_3  and  C_4
REMARK    3  A    between atoms: C_4  and  C_5
REMARK    4  A    between atoms: C_5  and  C_6
REMARK    5  A    between atoms: C_16  and  C_17
REMARK                            x       y       z     vdW  Elec       q    Type
REMARK                         _______ _______ _______ _____ _____    ______ ____
ROOT
ATOM      1  O   UNL     1       4.695   5.614  19.364  0.00  0.00    +0.000 OA
ATOM      2  C   UNL     1       3.761   5.817  18.593  0.00  0.00    +0.000 C 
ATOM      3  N   UNL     1       3.436   4.964  17.556  0.00  0.00    +0.000 N 
ATOM      4  H   UNL     1       2.605   5.185  17.016  0.00  0.00    +0.000 HD
ENDROOT
BRANCH   2   5
ATOM      5  C   UNL     1       2.899   7.034  18.736  0.00  0.00    +0.000 A 
ATOM      6  C   UNL     1       2.188   7.213  19.917  0.00  0.00    +0.000 A 
ATOM      7  C   UNL     1       1.393   8.349  20.050  0.00  0.00    +0.000 A 
ATOM      8  C   UNL     1       1.320   9.275  19.006  0.00  0.00    +0.000 A 
ATOM      9  C   UNL     1       2.080   9.007  17.865  0.00  0.00    +0.000 A 
ATOM     10  N   UNL     1       2.869   7.911  17.697  0.00  0.00    +0.000 NA
BRANCH   8  11
ATOM     11  C   UNL     1       0.489  10.460  19.107  0.00  0.00    +0.000 A 
ATOM     12  C   UNL     1      -0.861  10.624  19.498  0.00  0.00    +0.000 A 
ATOM     13  N   UNL     1      -1.257  11.900  19.467  0.00  0.00    +0.000 NA
ATOM     14  N   UNL     1      -0.163  12.560  19.056  0.00  0.00    +0.000 N 
ATOM     15  C   UNL     1       0.907  11.745  18.827  0.00  0.00    +0.000 A 
ATOM     16  H   UNL     1      -0.218  13.568  18.956  0.00  0.00    +0.000 HD
ENDBRANCH   8  11
ENDBRANCH   2   5
BRANCH   3  17
ATOM     17  C   UNL     1       4.194   3.746  17.349  0.00  0.00    +0.000 C 
BRANCH  17  18
ATOM     18  C   UNL     1       3.428   2.481  17.728  0.00  0.00    +0.000 C 
BRANCH  18  19
ATOM     19  C   UNL     1       2.744   2.633  19.064  0.00  0.00    +0.000 A 
ATOM     20  C   UNL     1       3.447   2.435  20.260  0.00  0.00    +0.000 A 
ATOM     21  C   UNL     1       2.809   2.613  21.493  0.00  0.00    +0.000 A 
ATOM     22  C   UNL     1       1.468   2.994  21.543  0.00  0.00    +0.000 A 
ATOM     23  C   UNL     1       0.764   3.203  20.359  0.00  0.00    +0.000 A 
ATOM     24  C   UNL     1       1.403   3.024  19.136  0.00  0.00    +0.000 A 
ATOM     25  F   UNL     1       0.711   3.242  18.007  0.00  0.00    +0.000 F 
ENDBRANCH  18  19
ENDBRANCH  17  18
ENDBRANCH   3  17
TORSDOF 5
ENDMDL
MODEL 9
REMARK VINA RESULT:      -7.6      1.147      1.713
REMARK  Name = 
REMARK  5 active torsions:
REMARK  status: ('A' for Active; 'I' for Inactive)
REMARK    1  A    between atoms: C_2  and  C_13
REMARK    2  A    between atoms: N_3  and  C_4
REMARK    3  A    between atoms: C_4  and  C_5
REMARK    4  A    between atoms: C_5  and  C_6
REMARK    5  A    between atoms: C_16  and  C_17
REMARK                            x       y       z     vdW  Elec       q    Type
REMARK                         _______ _______ _______ _____ _____    ______ ____
ROOT
ATOM      1  O   UNL     1       7.665   6.618  16.361  0.00  0.00    +0.000 OA
ATOM      2  C   UNL     1       7.054   6.912  17.386  0.00  0.00    +0.000 C 
ATOM      3  N   UNL     1       7.426   7.950  18.217  0.00  0.00    +0.000 N 
ATOM      4  H   UNL     1       6.817   8.156  19.004  0.00  0.00    +0.000 HD
ENDROOT
BRANCH   2   5
ATOM      5  C   UNL     1       5.840   6.139  17.803  0.00  0.00    +0.000 A 
ATOM      6  C   UNL     1       5.939   5.278  18.891  0.00  0.00    +0.000 A 
ATOM      7  C   UNL     1       4.807   4.566  19.280  0.00  0.00    +0.000 A 
ATOM      8  C   UNL     1       3.610   4.720  18.578  0.00  0.00    +0.000 A 
ATOM      9  C   UNL     1       3.613   5.615  17.505  0.00  0.00    +0.000 A 
ATOM     10  N   UNL     1       4.695   6.331  17.094  0.00  0.00    +0.000 NA
BRANCH   8  11
ATOM     11  C   UNL     1       2.418   3.980  18.949  0.00  0.00    +0.000 A 
ATOM     12  C   UNL     1       1.716   2.946  18.285  0.00  0.00    +0.000 A 
ATOM     13  N   UNL     1       0.656   2.515  18.976  0.00  0.00    +0.000 NA
ATOM     14  N   UNL     1       0.674   3.270  20.086  0.00  0.00    +0.000 N 
ATOM     15  C   UNL     1       1.708   4.161  20.118  0.00  0.00    +0.000 A 
ATOM     16  H   UNL     1      -0.049   3.120  20.782  0.00  0.00    +0.000 HD
ENDBRANCH   8  11
ENDBRANCH   2   5
BRANCH   3  17
ATOM     17  C   UNL     1       8.572   8.774  17.888  0.00  0.00    +0.000 C 
BRANCH  17  18
ATOM     18  C   UNL     1       8.309  10.270  18.036  0.00  0.00    +0.000 C 
BRANCH  18  19
ATOM     19  C   UNL     1       9.372  10.934  18.874  0.00  0.00    +0.000 A 
ATOM     20  C   UNL     1       9.194  11.117  20.252  0.00  0.00    +0.000 A 
ATOM     21  C   UNL     1      10.202  11.704  21.024  0.00  0.00    +0.000 A 
ATOM     22  C   UNL     1      11.398  12.109  20.430  0.00  0.00    +0.000 A 
ATOM     23  C   UNL     1      11.588  11.923  19.062  0.00  0.00    +0.000 A 
ATOM     24  C   UNL     1      10.581  11.339  18.299  0.00  0.00    +0.000 A 
ATOM     25  F   UNL     1      10.788  11.158  16.986  0.00  0.00    +0.000 F 
ENDBRANCH  18  19
ENDBRANCH  17  18
ENDBRANCH   3  17
TORSDOF 5
ENDMDL
