MODEL 1
REMARK VINA RESULT:      -8.7      0.000      0.000
REMARK  Name = 
REMARK  4 active torsions:
REMARK  status: ('A' for Active; 'I' for Inactive)
REMARK    1  A    between atoms: C_1  and  C_2
REMARK    2  A    between atoms: C_4  and  C_5
REMARK    3  A    between atoms: N_13  and  C_14
REMARK    4  A    between atoms: C_14  and  C_15
REMARK                            x       y       z     vdW  Elec       q    Type
REMARK                         _______ _______ _______ _____ _____    ______ ____
ROOT
ATOM      1  C   UNL     1       3.609   7.229  17.754  0.00  0.00    +0.000 A 
ATOM      2  N   UNL     1       2.895   8.272  17.382  0.00  0.00    +0.000 NA
ATOM      3  C   UNL     1       2.061   8.554  18.426  0.00  0.00    +0.000 A 
ATOM      4  C   UNL     1       1.113   9.581  18.548  0.00  0.00    +0.000 A 
ATOM      5  C   UNL     1       0.385   9.691  19.736  0.00  0.00    +0.000 A 
ATOM      6  C   UNL     1       0.599   8.797  20.784  0.00  0.00    +0.000 A 
ATOM      7  C   UNL     1       1.526   7.752  20.673  0.00  0.00    +0.000 A 
ATOM      8  C   UNL     1       2.246   7.654  19.473  0.00  0.00    +0.000 A 
ATOM      9  N   UNL     1       3.210   6.780  19.002  0.00  0.00    +0.000 N 
ENDROOT
BRANCH   1  13
ATOM     10  C   UNL     1       5.444   3.888  14.463  0.00  0.00    +0.000 C 
ATOM     11  C   UNL     1       5.572   4.985  15.468  0.00  0.00    +0.000 A 
ATOM     12  C   UNL     1       4.528   5.612  16.037  0.00  0.00    +0.000 A 
ATOM     13  C   UNL     1       4.699   6.637  17.056  0.00  0.00    +0.000 A 
ATOM     14  C   UNL     1       5.951   6.939  17.448  0.00  0.00    +0.000 A 
ATOM     15  N   UNL     1       7.036   6.340  16.860  0.00  0.00    +0.000 N 
ATOM     16  C   UNL     1       6.956   5.375  15.882  0.00  0.00    +0.000 A 
ATOM     17  O   UNL     1       7.952   4.868  15.386  0.00  0.00    +0.000 OA
ATOM     18  H   UNL     1       7.975   6.567  17.167  0.00  0.00    +0.000 HD
ENDBRANCH   1  13
BRANCH   9  19
ATOM     19  C   UNL     1       3.633   5.555  19.672  0.00  0.00    +0.000 C 
BRANCH  19  20
ATOM     20  C   UNL     1       2.726   4.387  19.370  0.00  0.00    +0.000 A 
ATOM     21  C   UNL     1       3.009   3.511  18.312  0.00  0.00    +0.000 A 
ATOM     22  C   UNL     1       2.128   2.479  17.987  0.00  0.00    +0.000 A 
ATOM     23  C   UNL     1       0.965   2.297  18.727  0.00  0.00    +0.000 A 
ATOM     24  C   UNL     1       0.697   3.127  19.813  0.00  0.00    +0.000 A 
ATOM     25  C   UNL     1       1.574   4.162  20.139  0.00  0.00    +0.000 A 
ENDBRANCH  19  20
ENDBRANCH   9  19
TORSDOF 3
ENDMDL
MODEL 2
REMARK VINA RESULT:      -8.6      0.817      1.601
REMARK  Name = 
REMARK  4 active torsions:
REMARK  status: ('A' for Active; 'I' for Inactive)
REMARK    1  A    between atoms: C_1  and  C_2
REMARK    2  A    between atoms: C_4  and  C_5
REMARK    3  A    between atoms: N_13  and  C_14
REMARK    4  A    between atoms: C_14  and  C_15
REMARK                            x       y       z     vdW  Elec       q    Type
REMARK                         _______ _______ _______ _____ _____    ______ ____
ROOT
ATOM      1  C   UNL     1       3.541   7.221  17.808  0.00  0.00    +0.000 A 
ATOM      2  N   UNL     1       2.901   8.285  17.365  0.00  0.00    +0.000 NA
ATOM      3  C   UNL     1       2.048   8.659  18.363  0.00  0.00    +0.000 A 
ATOM      4  C   UNL     1       1.156   9.742  18.405  0.00  0.00    +0.000 A 
ATOM      5  C   UNL     1       0.394   9.946  19.559  0.00  0.00    +0.000 A 
ATOM      6  C   UNL     1       0.519   9.089  20.651  0.00  0.00    +0.000 A 
ATOM      7  C   UNL     1       1.388   7.990  20.621  0.00  0.00    +0.000 A 
ATOM      8  C   UNL     1       2.143   7.799  19.454  0.00  0.00    +0.000 A 
ATOM      9  N   UNL     1       3.072   6.852  19.058  0.00  0.00    +0.000 N 
ENDROOT
BRANCH   1  13
ATOM     10  C   UNL     1       7.862   4.645  18.034  0.00  0.00    +0.000 C 
ATOM     11  C   UNL     1       6.735   5.308  17.311  0.00  0.00    +0.000 A 
ATOM     12  C   UNL     1       5.666   5.851  17.918  0.00  0.00    +0.000 A 
ATOM     13  C   UNL     1       4.619   6.539  17.178  0.00  0.00    +0.000 A 
ATOM     14  C   UNL     1       4.753   6.646  15.843  0.00  0.00    +0.000 A 
ATOM     15  N   UNL     1       5.816   6.073  15.193  0.00  0.00    +0.000 N 
ATOM     16  C   UNL     1       6.835   5.394  15.821  0.00  0.00    +0.000 A 
ATOM     17  O   UNL     1       7.764   4.898  15.200  0.00  0.00    +0.000 OA
ATOM     18  H   UNL     1       5.912   6.165  14.189  0.00  0.00    +0.000 HD
ENDBRANCH   1  13
BRANCH   9  19
ATOM     19  C   UNL     1       3.400   5.636  19.795  0.00  0.00    +0.000 C 
BRANCH  19  20
ATOM     20  C   UNL     1       2.486   4.487  19.453  0.00  0.00    +0.000 A 
ATOM     21  C   UNL     1       1.367   4.195  20.248  0.00  0.00    +0.000 A 
ATOM     22  C   UNL     1       0.568   3.085  19.975  0.00  0.00    +0.000 A 
ATOM     23  C   UNL     1       0.864   2.263  18.892  0.00  0.00    +0.000 A 
ATOM     24  C   UNL     1       1.941   2.570  18.063  0.00  0.00    +0.000 A 
ATOM     25  C   UNL     1       2.744   3.678  18.336  0.00  0.00    +0.000 A 
ENDBRANCH  19  20
ENDBRANCH   9  19
TORSDOF 3
ENDMDL
MODEL 3
REMARK VINA RESULT:      -8.4      2.591      5.670
REMARK  Name = 
REMARK  4 active torsions:
REMARK  status: ('A' for Active; 'I' for Inactive)
REMARK    1  A    between atoms: C_1  and  C_2
REMARK    2  A    between atoms: C_4  and  C_5
REMARK    3  A    between atoms: N_13  and  C_14
REMARK    4  A    between atoms: C_14  and  C_15
REMARK                            x       y       z     vdW  Elec       q    Type
REMARK                         _______ _______ _______ _____ _____    ______ ____
ROOT
ATOM      1  C   UNL     1       3.420   7.123  18.005  0.00  0.00    +0.000 A 
ATOM      2  N   UNL     1       4.703   7.334  17.788  0.00  0.00    +0.000 NA
ATOM      3  C   UNL     1       5.185   6.187  17.223  0.00  0.00    +0.000 A 
ATOM      4  C   UNL     1       6.486   5.898  16.783  0.00  0.00    +0.000 A 
ATOM      5  C   UNL     1       6.741   4.652  16.204  0.00  0.00    +0.000 A 
ATOM      6  C   UNL     1       5.721   3.712  16.064  0.00  0.00    +0.000 A 
ATOM      7  C   UNL     1       4.421   3.974  16.517  0.00  0.00    +0.000 A 
ATOM      8  C   UNL     1       4.183   5.229  17.098  0.00  0.00    +0.000 A 
ATOM      9  N   UNL     1       3.066   5.832  17.652  0.00  0.00    +0.000 N 
ENDROOT
BRANCH   1  13
ATOM     10  C   UNL     1       0.375   8.912  21.595  0.00  0.00    +0.000 C 
ATOM     11  C   UNL     1       0.965   8.903  20.223  0.00  0.00    +0.000 A 
ATOM     12  C   UNL     1       1.953   8.080  19.833  0.00  0.00    +0.000 A 
ATOM     13  C   UNL     1       2.459   8.065  18.469  0.00  0.00    +0.000 A 
ATOM     14  C   UNL     1       1.891   8.895  17.574  0.00  0.00    +0.000 A 
ATOM     15  N   UNL     1       0.905   9.770  17.952  0.00  0.00    +0.000 N 
ATOM     16  C   UNL     1       0.386   9.854  19.224  0.00  0.00    +0.000 A 
ATOM     17  O   UNL     1      -0.494  10.651  19.516  0.00  0.00    +0.000 OA
ATOM     18  H   UNL     1       0.478  10.386  17.270  0.00  0.00    +0.000 HD
ENDBRANCH   1  13
BRANCH   9  19
ATOM     19  C   UNL     1       1.792   5.169  17.907  0.00  0.00    +0.000 C 
BRANCH  19  20
ATOM     20  C   UNL     1       1.840   4.262  19.111  0.00  0.00    +0.000 A 
ATOM     21  C   UNL     1       1.526   2.899  19.000  0.00  0.00    +0.000 A 
ATOM     22  C   UNL     1       1.496   2.080  20.128  0.00  0.00    +0.000 A 
ATOM     23  C   UNL     1       1.799   2.607  21.379  0.00  0.00    +0.000 A 
ATOM     24  C   UNL     1       2.164   3.946  21.498  0.00  0.00    +0.000 A 
ATOM     25  C   UNL     1       2.192   4.769  20.371  0.00  0.00    +0.000 A 
ENDBRANCH  19  20
ENDBRANCH   9  19
TORSDOF 3
ENDMDL
MODEL 4
REMARK VINA RESULT:      -8.4      2.579      5.682
REMARK  Name = 
REMARK  4 active torsions:
REMARK  status: ('A' for Active; 'I' for Inactive)
REMARK    1  A    between atoms: C_1  and  C_2
REMARK    2  A    between atoms: C_4  and  C_5
REMARK    3  A    between atoms: N_13  and  C_14
REMARK    4  A    between atoms: C_14  and  C_15
REMARK                            x       y       z     vdW  Elec       q    Type
REMARK                         _______ _______ _______ _____ _____    ______ ____
ROOT
ATOM      1  C   UNL     1       3.632   6.599  18.077  0.00  0.00    +0.000 A 
ATOM      2  N   UNL     1       4.873   6.952  17.804  0.00  0.00    +0.000 NA
ATOM      3  C   UNL     1       5.384   5.960  17.016  0.00  0.00    +0.000 A 
ATOM      4  C   UNL     1       6.658   5.861  16.436  0.00  0.00    +0.000 A 
ATOM      5  C   UNL     1       6.950   4.754  15.634  0.00  0.00    +0.000 A 
ATOM      6  C   UNL     1       5.992   3.767  15.411  0.00  0.00    +0.000 A 
ATOM      7  C   UNL     1       4.722   3.838  15.998  0.00  0.00    +0.000 A 
ATOM      8  C   UNL     1       4.446   4.954  16.803  0.00  0.00    +0.000 A 
ATOM      9  N   UNL     1       3.342   5.359  17.534  0.00  0.00    +0.000 N 
ENDROOT
BRANCH   1  13
ATOM     10  C   UNL     1       0.451  10.496  18.321  0.00  0.00    +0.000 C 
ATOM     11  C   UNL     1       1.127   9.284  18.874  0.00  0.00    +0.000 A 
ATOM     12  C   UNL     1       1.968   8.505  18.172  0.00  0.00    +0.000 A 
ATOM     13  C   UNL     1       2.651   7.365  18.767  0.00  0.00    +0.000 A 
ATOM     14  C   UNL     1       2.439   7.111  20.072  0.00  0.00    +0.000 A 
ATOM     15  N   UNL     1       1.561   7.868  20.803  0.00  0.00    +0.000 N 
ATOM     16  C   UNL     1       0.868   8.950  20.308  0.00  0.00    +0.000 A 
ATOM     17  O   UNL     1       0.093   9.597  20.999  0.00  0.00    +0.000 OA
ATOM     18  H   UNL     1       1.414   7.675  21.787  0.00  0.00    +0.000 HD
ENDBRANCH   1  13
BRANCH   9  19
ATOM     19  C   UNL     1       2.146   4.556  17.765  0.00  0.00    +0.000 C 
BRANCH  19  20
ATOM     20  C   UNL     1       2.194   3.806  19.073  0.00  0.00    +0.000 A 
ATOM     21  C   UNL     1       1.071   3.747  19.911  0.00  0.00    +0.000 A 
ATOM     22  C   UNL     1       1.142   3.119  21.155  0.00  0.00    +0.000 A 
ATOM     23  C   UNL     1       2.330   2.525  21.568  0.00  0.00    +0.000 A 
ATOM     24  C   UNL     1       3.438   2.531  20.725  0.00  0.00    +0.000 A 
ATOM     25  C   UNL     1       3.371   3.161  19.481  0.00  0.00    +0.000 A 
ENDBRANCH  19  20
ENDBRANCH   9  19
TORSDOF 3
ENDMDL
MODEL 5
REMARK VINA RESULT:      -8.3      1.590      4.351
REMARK  Name = 
REMARK  4 active torsions:
REMARK  status: ('A' for Active; 'I' for Inactive)
REMARK    1  A    between atoms: C_1  and  C_2
REMARK    2  A    between atoms: C_4  and  C_5
REMARK    3  A    between atoms: N_13  and  C_14
REMARK    4  A    between atoms: C_14  and  C_15
REMARK                            x       y       z     vdW  Elec       q    Type
REMARK                         _______ _______ _______ _____ _____    ______ ____
ROOT
ATOM      1  C   UNL     1       4.533   4.221  18.274  0.00  0.00    +0.000 A 
ATOM      2  N   UNL     1       4.842   3.409  19.266  0.00  0.00    +0.000 NA
ATOM      3  C   UNL     1       3.693   3.232  19.983  0.00  0.00    +0.000 A 
ATOM      4  C   UNL     1       3.476   2.444  21.124  0.00  0.00    +0.000 A 
ATOM      5  C   UNL     1       2.193   2.394  21.676  0.00  0.00    +0.000 A 
ATOM      6  C   UNL     1       1.146   3.114  21.103  0.00  0.00    +0.000 A 
ATOM      7  C   UNL     1       1.347   3.923  19.977  0.00  0.00    +0.000 A 
ATOM      8  C   UNL     1       2.641   3.963  19.436  0.00  0.00    +0.000 A 
ATOM      9  N   UNL     1       3.213   4.632  18.368  0.00  0.00    +0.000 N 
ENDROOT
BRANCH   1  13
ATOM     10  C   UNL     1       6.045   3.749  13.494  0.00  0.00    +0.000 C 
ATOM     11  C   UNL     1       6.103   4.344  14.863  0.00  0.00    +0.000 A 
ATOM     12  C   UNL     1       5.238   4.049  15.849  0.00  0.00    +0.000 A 
ATOM     13  C   UNL     1       5.365   4.608  17.186  0.00  0.00    +0.000 A 
ATOM     14  C   UNL     1       6.403   5.428  17.434  0.00  0.00    +0.000 A 
ATOM     15  N   UNL     1       7.281   5.773  16.439  0.00  0.00    +0.000 N 
ATOM     16  C   UNL     1       7.218   5.299  15.148  0.00  0.00    +0.000 A 
ATOM     17  O   UNL     1       8.024   5.634  14.292  0.00  0.00    +0.000 OA
ATOM     18  H   UNL     1       8.064   6.385  16.636  0.00  0.00    +0.000 HD
ENDBRANCH   1  13
BRANCH   9  19
ATOM     19  C   UNL     1       2.554   5.659  17.569  0.00  0.00    +0.000 C 
BRANCH  19  20
ATOM     20  C   UNL     1       2.232   6.897  18.368  0.00  0.00    +0.000 A 
ATOM     21  C   UNL     1       2.173   6.855  19.769  0.00  0.00    +0.000 A 
ATOM     22  C   UNL     1       1.799   7.982  20.501  0.00  0.00    +0.000 A 
ATOM     23  C   UNL     1       1.499   9.171  19.844  0.00  0.00    +0.000 A 
ATOM     24  C   UNL     1       1.604   9.243  18.457  0.00  0.00    +0.000 A 
ATOM     25  C   UNL     1       1.975   8.116  17.722  0.00  0.00    +0.000 A 
ENDBRANCH  19  20
ENDBRANCH   9  19
TORSDOF 3
ENDMDL
MODEL 6
REMARK VINA RESULT:      -7.8      1.412      4.238
REMARK  Name = 
REMARK  4 active torsions:
REMARK  status: ('A' for Active; 'I' for Inactive)
REMARK    1  A    between atoms: C_1  and  C_2
REMARK    2  A    between atoms: C_4  and  C_5
REMARK    3  A    between atoms: N_13  and  C_14
REMARK    4  A    between atoms: C_14  and  C_15
REMARK                            x       y       z     vdW  Elec       q    Type
REMARK                         _______ _______ _______ _____ _____    ______ ____
ROOT
ATOM      1  C   UNL     1       4.215   3.983  17.463  0.00  0.00    +0.000 A 
ATOM      2  N   UNL     1       3.656   2.792  17.552  0.00  0.00    +0.000 NA
ATOM      3  C   UNL     1       2.726   2.883  18.549  0.00  0.00    +0.000 A 
ATOM      4  C   UNL     1       1.844   1.902  19.027  0.00  0.00    +0.000 A 
ATOM      5  C   UNL     1       0.951   2.237  20.048  0.00  0.00    +0.000 A 
ATOM      6  C   UNL     1       0.935   3.525  20.582  0.00  0.00    +0.000 A 
ATOM      7  C   UNL     1       1.822   4.511  20.133  0.00  0.00    +0.000 A 
ATOM      8  C   UNL     1       2.714   4.158  19.109  0.00  0.00    +0.000 A 
ATOM      9  N   UNL     1       3.712   4.836  18.432  0.00  0.00    +0.000 N 
ENDROOT
BRANCH   1  13
ATOM     10  C   UNL     1       6.226   3.749  12.853  0.00  0.00    +0.000 C 
ATOM     11  C   UNL     1       6.137   4.272  14.249  0.00  0.00    +0.000 A 
ATOM     12  C   UNL     1       5.173   3.932  15.121  0.00  0.00    +0.000 A 
ATOM     13  C   UNL     1       5.157   4.422  16.491  0.00  0.00    +0.000 A 
ATOM     14  C   UNL     1       6.162   5.224  16.889  0.00  0.00    +0.000 A 
ATOM     15  N   UNL     1       7.140   5.615  16.011  0.00  0.00    +0.000 N 
ATOM     16  C   UNL     1       7.214   5.207  14.698  0.00  0.00    +0.000 A 
ATOM     17  O   UNL     1       8.106   5.583  13.951  0.00  0.00    +0.000 OA
ATOM     18  H   UNL     1       7.897   6.213  16.321  0.00  0.00    +0.000 HD
ENDBRANCH   1  13
BRANCH   9  19
ATOM     19  C   UNL     1       4.202   6.168  18.769  0.00  0.00    +0.000 C 
BRANCH  19  20
ATOM     20  C   UNL     1       3.112   7.210  18.744  0.00  0.00    +0.000 A 
ATOM     21  C   UNL     1       2.824   7.924  17.571  0.00  0.00    +0.000 A 
ATOM     22  C   UNL     1       1.869   8.940  17.571  0.00  0.00    +0.000 A 
ATOM     23  C   UNL     1       1.175   9.243  18.738  0.00  0.00    +0.000 A 
ATOM     24  C   UNL     1       1.413   8.509  19.897  0.00  0.00    +0.000 A 
ATOM     25  C   UNL     1       2.370   7.493  19.901  0.00  0.00    +0.000 A 
ENDBRANCH  19  20
ENDBRANCH   9  19
TORSDOF 3
ENDMDL
MODEL 7
REMARK VINA RESULT:      -7.7      1.112      1.642
REMARK  Name = 
REMARK  4 active torsions:
REMARK  status: ('A' for Active; 'I' for Inactive)
REMARK    1  A    between atoms: C_1  and  C_2
REMARK    2  A    between atoms: C_4  and  C_5
REMARK    3  A    between atoms: N_13  and  C_14
REMARK    4  A    between atoms: C_14  and  C_15
REMARK                            x       y       z     vdW  Elec       q    Type
REMARK                         _______ _______ _______ _____ _____    ______ ____
ROOT
ATOM      1  C   UNL     1       3.489   6.966  18.272  0.00  0.00    +0.000 A 
ATOM      2  N   UNL     1       2.920   8.016  17.715  0.00  0.00    +0.000 NA
ATOM      3  C   UNL     1       1.991   8.463  18.611  0.00  0.00    +0.000 A 
ATOM      4  C   UNL     1       1.127   9.565  18.513  0.00  0.00    +0.000 A 
ATOM      5  C   UNL     1       0.271   9.850  19.580  0.00  0.00    +0.000 A 
ATOM      6  C   UNL     1       0.276   9.053  20.724  0.00  0.00    +0.000 A 
ATOM      7  C   UNL     1       1.115   7.936  20.832  0.00  0.00    +0.000 A 
ATOM      8  C   UNL     1       1.966   7.664  19.751  0.00  0.00    +0.000 A 
ATOM      9  N   UNL     1       2.902   6.677  19.492  0.00  0.00    +0.000 N 
ENDROOT
BRANCH   1  13
ATOM     10  C   UNL     1       8.175   5.191  18.776  0.00  0.00    +0.000 C 
ATOM     11  C   UNL     1       6.893   5.394  18.036  0.00  0.00    +0.000 A 
ATOM     12  C   UNL     1       5.811   5.998  18.556  0.00  0.00    +0.000 A 
ATOM     13  C   UNL     1       4.601   6.226  17.780  0.00  0.00    +0.000 A 
ATOM     14  C   UNL     1       4.591   5.835  16.492  0.00  0.00    +0.000 A 
ATOM     15  N   UNL     1       5.669   5.186  15.945  0.00  0.00    +0.000 N 
ATOM     16  C   UNL     1       6.839   4.921  16.618  0.00  0.00    +0.000 A 
ATOM     17  O   UNL     1       7.775   4.338  16.089  0.00  0.00    +0.000 OA
ATOM     18  H   UNL     1       5.655   4.902  14.973  0.00  0.00    +0.000 HD
ENDBRANCH   1  13
BRANCH   9  19
ATOM     19  C   UNL     1       3.130   5.498  20.321  0.00  0.00    +0.000 C 
BRANCH  19  20
ATOM     20  C   UNL     1       2.715   4.219  19.637  0.00  0.00    +0.000 A 
ATOM     21  C   UNL     1       3.649   3.205  19.377  0.00  0.00    +0.000 A 
ATOM     22  C   UNL     1       3.278   2.058  18.676  0.00  0.00    +0.000 A 
ATOM     23  C   UNL     1       1.966   1.900  18.242  0.00  0.00    +0.000 A 
ATOM     24  C   UNL     1       1.016   2.875  18.538  0.00  0.00    +0.000 A 
ATOM     25  C   UNL     1       1.384   4.025  19.237  0.00  0.00    +0.000 A 
ENDBRANCH  19  20
ENDBRANCH   9  19
TORSDOF 3
ENDMDL
MODEL 8
REMARK VINA RESULT:      -7.6      1.744      4.609
REMARK  Name = 
REMARK  4 active torsions:
REMARK  status: ('A' for Active; 'I' for Inactive)
REMARK    1  A    between atoms: C_1  and  C_2
REMARK    2  A    between atoms: C_4  and  C_5
REMARK    3  A    between atoms: N_13  and  C_14
REMARK    4  A    between atoms: C_14  and  C_15
REMARK                            x       y       z     vdW  Elec       q    Type
REMARK                         _______ _______ _______ _____ _____    ______ ____
ROOT
ATOM      1  C   UNL     1       4.427   4.131  18.743  0.00  0.00    +0.000 A 
ATOM      2  N   UNL     1       4.629   3.341  19.779  0.00  0.00    +0.000 NA
ATOM      3  C   UNL     1       3.401   3.122  20.334  0.00  0.00    +0.000 A 
ATOM      4  C   UNL     1       3.061   2.335  21.445  0.00  0.00    +0.000 A 
ATOM      5  C   UNL     1       1.717   2.237  21.818  0.00  0.00    +0.000 A 
ATOM      6  C   UNL     1       0.730   2.908  21.096  0.00  0.00    +0.000 A 
ATOM      7  C   UNL     1       1.052   3.715  19.998  0.00  0.00    +0.000 A 
ATOM      8  C   UNL     1       2.406   3.805  19.639  0.00  0.00    +0.000 A 
ATOM      9  N   UNL     1       3.092   4.488  18.650  0.00  0.00    +0.000 N 
ENDROOT
BRANCH   1  13
ATOM     10  C   UNL     1       7.738   7.484  16.966  0.00  0.00    +0.000 C 
ATOM     11  C   UNL     1       6.973   6.202  16.915  0.00  0.00    +0.000 A 
ATOM     12  C   UNL     1       6.156   5.772  17.891  0.00  0.00    +0.000 A 
ATOM     13  C   UNL     1       5.384   4.544  17.775  0.00  0.00    +0.000 A 
ATOM     14  C   UNL     1       5.487   3.838  16.633  0.00  0.00    +0.000 A 
ATOM     15  N   UNL     1       6.339   4.234  15.634  0.00  0.00    +0.000 N 
ATOM     16  C   UNL     1       7.110   5.373  15.678  0.00  0.00    +0.000 A 
ATOM     17  O   UNL     1       7.857   5.687  14.762  0.00  0.00    +0.000 OA
ATOM     18  H   UNL     1       6.404   3.700  14.775  0.00  0.00    +0.000 HD
ENDBRANCH   1  13
BRANCH   9  19
ATOM     19  C   UNL     1       2.508   5.481  17.754  0.00  0.00    +0.000 C 
BRANCH  19  20
ATOM     20  C   UNL     1       2.216   6.787  18.448  0.00  0.00    +0.000 A 
ATOM     21  C   UNL     1       2.084   6.848  19.844  0.00  0.00    +0.000 A 
ATOM     22  C   UNL     1       1.737   8.042  20.476  0.00  0.00    +0.000 A 
ATOM     23  C   UNL     1       1.538   9.195  19.724  0.00  0.00    +0.000 A 
ATOM     24  C   UNL     1       1.717   9.163  18.343  0.00  0.00    +0.000 A 
ATOM     25  C   UNL     1       2.061   7.969  17.708  0.00  0.00    +0.000 A 
ENDBRANCH  19  20
ENDBRANCH   9  19
TORSDOF 3
ENDMDL
MODEL 9
REMARK VINA RESULT:      -7.4      2.582      5.623
REMARK  Name = 
REMARK  4 active torsions:
REMARK  status: ('A' for Active; 'I' for Inactive)
REMARK    1  A    between atoms: C_1  and  C_2
REMARK    2  A    between atoms: C_4  and  C_5
REMARK    3  A    between atoms: N_13  and  C_14
REMARK    4  A    between atoms: C_14  and  C_15
REMARK                            x       y       z     vdW  Elec       q    Type
REMARK                         _______ _______ _______ _____ _____    ______ ____
ROOT
ATOM      1  C   UNL     1       3.328   7.445  17.814  0.00  0.00    +0.000 A 
ATOM      2  N   UNL     1       3.921   7.616  16.649  0.00  0.00    +0.000 NA
ATOM      3  C   UNL     1       4.663   6.491  16.432  0.00  0.00    +0.000 A 
ATOM      4  C   UNL     1       5.467   6.161  15.330  0.00  0.00    +0.000 A 
ATOM      5  C   UNL     1       6.119   4.924  15.315  0.00  0.00    +0.000 A 
ATOM      6  C   UNL     1       5.971   4.032  16.376  0.00  0.00    +0.000 A 
ATOM      7  C   UNL     1       5.190   4.352  17.495  0.00  0.00    +0.000 A 
ATOM      8  C   UNL     1       4.545   5.598  17.495  0.00  0.00    +0.000 A 
ATOM      9  N   UNL     1       3.722   6.252  18.395  0.00  0.00    +0.000 N 
ENDROOT
BRANCH   1  13
ATOM     10  C   UNL     1       0.371   8.693  21.694  0.00  0.00    +0.000 C 
ATOM     11  C   UNL     1       0.906   8.864  20.311  0.00  0.00    +0.000 A 
ATOM     12  C   UNL     1       1.904   8.128  19.792  0.00  0.00    +0.000 A 
ATOM     13  C   UNL     1       2.356   8.291  18.418  0.00  0.00    +0.000 A 
ATOM     14  C   UNL     1       1.726   9.197  17.647  0.00  0.00    +0.000 A 
ATOM     15  N   UNL     1       0.728   9.985  18.159  0.00  0.00    +0.000 N 
ATOM     16  C   UNL     1       0.257   9.901  19.450  0.00  0.00    +0.000 A 
ATOM     17  O   UNL     1      -0.636  10.626  19.864  0.00  0.00    +0.000 OA
ATOM     18  H   UNL     1       0.254  10.659  17.570  0.00  0.00    +0.000 HD
ENDBRANCH   1  13
BRANCH   9  19
ATOM     19  C   UNL     1       3.427   5.794  19.749  0.00  0.00    +0.000 C 
BRANCH  19  20
ATOM     20  C   UNL     1       2.432   4.662  19.775  0.00  0.00    +0.000 A 
ATOM     21  C   UNL     1       2.143   3.983  20.969  0.00  0.00    +0.000 A 
ATOM     22  C   UNL     1       1.282   2.886  20.974  0.00  0.00    +0.000 A 
ATOM     23  C   UNL     1       0.681   2.465  19.792  0.00  0.00    +0.000 A 
ATOM     24  C   UNL     1       0.918   3.161  18.608  0.00  0.00    +0.000 A 
ATOM     25  C   UNL     1       1.782   4.257  18.599  0.00  0.00    +0.000 A 
ENDBRANCH  19  20
ENDBRANCH   9  19
TORSDOF 3
ENDMDL
