MODEL 1
REMARK VINA RESULT:      -8.9      0.000      0.000
REMARK  Name = 
REMARK  4 active torsions:
REMARK  status: ('A' for Active; 'I' for Inactive)
REMARK    1  A    between atoms: C_2  and  C_3
REMARK    2  A    between atoms: C_7  and  N_8
REMARK    3  A    between atoms: N_8  and  C_9
REMARK    4  A    between atoms: C_12  and  C_13
REMARK                            x       y       z     vdW  Elec       q    Type
REMARK                         _______ _______ _______ _____ _____    ______ ____
ROOT
ATOM      1  C   UNL     1       3.467   5.672  19.232  0.00  0.00    +0.000 A 
ATOM      2  N   UNL     1       4.679   5.959  18.692  0.00  0.00    +0.000 NA
ATOM      3  C   UNL     1       5.240   5.243  17.706  0.00  0.00    +0.000 A 
ATOM      4  C   UNL     1       6.467   5.642  17.144  0.00  0.00    +0.000 A 
ATOM      5  C   UNL     1       7.039   4.899  16.095  0.00  0.00    +0.000 A 
ATOM      6  C   UNL     1       6.409   3.762  15.599  0.00  0.00    +0.000 A 
ATOM      7  C   UNL     1       5.195   3.359  16.143  0.00  0.00    +0.000 A 
ATOM      8  C   UNL     1       4.607   4.101  17.193  0.00  0.00    +0.000 A 
ATOM      9  C   UNL     1       3.348   3.752  17.767  0.00  0.00    +0.000 A 
ATOM     10  S   UNL     1       2.316   2.420  17.351  0.00  0.00    +0.000 S 
ATOM     11  C   UNL     1       1.128   2.871  18.476  0.00  0.00    +0.000 A 
ATOM     12  C   UNL     1       1.489   3.992  19.180  0.00  0.00    +0.000 A 
ATOM     13  C   UNL     1       2.772   4.524  18.787  0.00  0.00    +0.000 A 
ENDROOT
BRANCH   4  14
ATOM     14  C   UNL     1       7.168   6.851  17.600  0.00  0.00    +0.000 A 
ATOM     15  N   UNL     1       8.091   6.945  18.542  0.00  0.00    +0.000 NA
ATOM     16  N   UNL     1       8.514   8.255  18.615  0.00  0.00    +0.000 NA
ATOM     17  C   UNL     1       7.838   8.938  17.721  0.00  0.00    +0.000 A 
ATOM     18  N   UNL     1       6.975   8.109  17.081  0.00  0.00    +0.000 N 
ATOM     19  H   UNL     1       6.325   8.330  16.336  0.00  0.00    +0.000 HD
ENDBRANCH   4  14
BRANCH   1  20
ATOM     20  N   UNL     1       2.966   6.554  20.204  0.00  0.00    +0.000 N 
ATOM     21  H   UNL     1       2.750   6.114  21.089  0.00  0.00    +0.000 HD
BRANCH  20  26
ATOM     22  C   UNL     1       0.593   9.357  20.769  0.00  0.00    +0.000 A 
ATOM     23  C   UNL     1       0.502   9.911  19.491  0.00  0.00    +0.000 A 
ATOM     24  C   UNL     1       1.212   9.342  18.437  0.00  0.00    +0.000 A 
ATOM     25  C   UNL     1       2.014   8.226  18.667  0.00  0.00    +0.000 A 
ATOM     26  C   UNL     1       2.137   7.670  19.950  0.00  0.00    +0.000 A 
ATOM     27  C   UNL     1       1.408   8.242  20.998  0.00  0.00    +0.000 A 
BRANCH  22  29
ATOM     28  C   UNL     1      -0.778  10.390  22.761  0.00  0.00    +0.000 C 
ATOM     29  C   UNL     1      -0.160   9.923  21.846  0.00  0.00    +0.000 C 
ENDBRANCH  22  29
ENDBRANCH  20  26
ENDBRANCH   1  20
TORSDOF 4
ENDMDL
MODEL 2
REMARK VINA RESULT:      -7.4      5.859     10.741
REMARK  Name = 
REMARK  4 active torsions:
REMARK  status: ('A' for Active; 'I' for Inactive)
REMARK    1  A    between atoms: C_2  and  C_3
REMARK    2  A    between atoms: C_7  and  N_8
REMARK    3  A    between atoms: N_8  and  C_9
REMARK    4  A    between atoms: C_12  and  C_13
REMARK                            x       y       z     vdW  Elec       q    Type
REMARK                         _______ _______ _______ _____ _____    ______ ____
ROOT
ATOM      1  C   UNL     1      -2.121  11.918  19.491  0.00  0.00    +0.000 A 
ATOM      2  N   UNL     1      -2.975  12.321  20.468  0.00  0.00    +0.000 NA
ATOM      3  C   UNL     1      -4.305  12.388  20.309  0.00  0.00    +0.000 A 
ATOM      4  C   UNL     1      -5.135  12.745  21.388  0.00  0.00    +0.000 A 
ATOM      5  C   UNL     1      -6.532  12.792  21.220  0.00  0.00    +0.000 A 
ATOM      6  C   UNL     1      -7.114  12.492  19.992  0.00  0.00    +0.000 A 
ATOM      7  C   UNL     1      -6.305  12.134  18.920  0.00  0.00    +0.000 A 
ATOM      8  C   UNL     1      -4.902  12.077  19.077  0.00  0.00    +0.000 A 
ATOM      9  C   UNL     1      -4.026  11.686  18.021  0.00  0.00    +0.000 A 
ATOM     10  S   UNL     1      -4.446  11.230  16.399  0.00  0.00    +0.000 S 
ATOM     11  C   UNL     1      -2.833  10.914  15.974  0.00  0.00    +0.000 A 
ATOM     12  C   UNL     1      -1.972  11.160  17.013  0.00  0.00    +0.000 A 
ATOM     13  C   UNL     1      -2.640  11.608  18.213  0.00  0.00    +0.000 A 
ENDROOT
BRANCH   4  14
ATOM     14  C   UNL     1      -4.586  13.043  22.718  0.00  0.00    +0.000 A 
ATOM     15  N   UNL     1      -4.746  12.351  23.834  0.00  0.00    +0.000 NA
ATOM     16  N   UNL     1      -4.020  12.959  24.836  0.00  0.00    +0.000 NA
ATOM     17  C   UNL     1      -3.433  14.011  24.316  0.00  0.00    +0.000 A 
ATOM     18  N   UNL     1      -3.773  14.113  23.006  0.00  0.00    +0.000 N 
ATOM     19  H   UNL     1      -3.478  14.809  22.331  0.00  0.00    +0.000 HD
ENDBRANCH   4  14
BRANCH   1  20
ATOM     20  N   UNL     1      -0.760  11.820  19.822  0.00  0.00    +0.000 N 
ATOM     21  H   UNL     1      -0.163  12.452  19.306  0.00  0.00    +0.000 HD
BRANCH  20  26
ATOM     22  C   UNL     1       1.421   8.820  19.590  0.00  0.00    +0.000 A 
ATOM     23  C   UNL     1       1.297   8.282  20.872  0.00  0.00    +0.000 A 
ATOM     24  C   UNL     1       0.473   8.902  21.808  0.00  0.00    +0.000 A 
ATOM     25  C   UNL     1      -0.218  10.061  21.459  0.00  0.00    +0.000 A 
ATOM     26  C   UNL     1      -0.087  10.631  20.182  0.00  0.00    +0.000 A 
ATOM     27  C   UNL     1       0.734   9.991  19.247  0.00  0.00    +0.000 A 
BRANCH  22  29
ATOM     28  C   UNL     1       2.919   7.606  17.802  0.00  0.00    +0.000 C 
ATOM     29  C   UNL     1       2.244   8.166  18.620  0.00  0.00    +0.000 C 
ENDBRANCH  22  29
ENDBRANCH  20  26
ENDBRANCH   1  20
TORSDOF 4
ENDMDL
MODEL 3
REMARK VINA RESULT:      -7.3      6.090     10.648
REMARK  Name = 
REMARK  4 active torsions:
REMARK  status: ('A' for Active; 'I' for Inactive)
REMARK    1  A    between atoms: C_2  and  C_3
REMARK    2  A    between atoms: C_7  and  N_8
REMARK    3  A    between atoms: N_8  and  C_9
REMARK    4  A    between atoms: C_12  and  C_13
REMARK                            x       y       z     vdW  Elec       q    Type
REMARK                         _______ _______ _______ _____ _____    ______ ____
ROOT
ATOM      1  C   UNL     1      -2.469  12.343  20.571  0.00  0.00    +0.000 A 
ATOM      2  N   UNL     1      -3.088  11.892  19.450  0.00  0.00    +0.000 NA
ATOM      3  C   UNL     1      -4.407  12.004  19.234  0.00  0.00    +0.000 A 
ATOM      4  C   UNL     1      -4.969  11.579  18.016  0.00  0.00    +0.000 A 
ATOM      5  C   UNL     1      -6.351  11.719  17.787  0.00  0.00    +0.000 A 
ATOM      6  C   UNL     1      -7.181  12.274  18.756  0.00  0.00    +0.000 A 
ATOM      7  C   UNL     1      -6.638  12.702  19.961  0.00  0.00    +0.000 A 
ATOM      8  C   UNL     1      -5.251  12.571  20.201  0.00  0.00    +0.000 A 
ATOM      9  C   UNL     1      -4.635  13.022  21.406  0.00  0.00    +0.000 A 
ATOM     10  S   UNL     1      -5.390  13.773  22.776  0.00  0.00    +0.000 S 
ATOM     11  C   UNL     1      -3.917  13.965  23.598  0.00  0.00    +0.000 A 
ATOM     12  C   UNL     1      -2.862  13.461  22.881  0.00  0.00    +0.000 A 
ATOM     13  C   UNL     1      -3.251  12.909  21.604  0.00  0.00    +0.000 A 
ENDROOT
BRANCH   4  14
ATOM     14  C   UNL     1      -4.141  11.014  16.940  0.00  0.00    +0.000 A 
ATOM     15  N   UNL     1      -4.012  11.457  15.701  0.00  0.00    +0.000 NA
ATOM     16  N   UNL     1      -3.101  10.658  15.042  0.00  0.00    +0.000 NA
ATOM     17  C   UNL     1      -2.696   9.741  15.888  0.00  0.00    +0.000 A 
ATOM     18  N   UNL     1      -3.331   9.911  17.074  0.00  0.00    +0.000 N 
ATOM     19  H   UNL     1      -3.229   9.374  17.927  0.00  0.00    +0.000 HD
ENDBRANCH   4  14
BRANCH   1  20
ATOM     20  N   UNL     1      -1.070  12.231  20.628  0.00  0.00    +0.000 N 
ATOM     21  H   UNL     1      -0.579  12.886  20.033  0.00  0.00    +0.000 HD
BRANCH  20  26
ATOM     22  C   UNL     1       1.077   9.294  19.871  0.00  0.00    +0.000 A 
ATOM     23  C   UNL     1       1.125   8.654  21.111  0.00  0.00    +0.000 A 
ATOM     24  C   UNL     1       0.428   9.185  22.193  0.00  0.00    +0.000 A 
ATOM     25  C   UNL     1      -0.309  10.357  22.032  0.00  0.00    +0.000 A 
ATOM     26  C   UNL     1      -0.349  11.029  20.800  0.00  0.00    +0.000 A 
ATOM     27  C   UNL     1       0.345  10.478  19.717  0.00  0.00    +0.000 A 
BRANCH  22  29
ATOM     28  C   UNL     1       2.349   8.245  17.823  0.00  0.00    +0.000 C 
ATOM     29  C   UNL     1       1.768   8.733  18.752  0.00  0.00    +0.000 C 
ENDBRANCH  22  29
ENDBRANCH  20  26
ENDBRANCH   1  20
TORSDOF 4
ENDMDL
MODEL 4
REMARK VINA RESULT:      -7.3      6.774      9.483
REMARK  Name = 
REMARK  4 active torsions:
REMARK  status: ('A' for Active; 'I' for Inactive)
REMARK    1  A    between atoms: C_2  and  C_3
REMARK    2  A    between atoms: C_7  and  N_8
REMARK    3  A    between atoms: N_8  and  C_9
REMARK    4  A    between atoms: C_12  and  C_13
REMARK                            x       y       z     vdW  Elec       q    Type
REMARK                         _______ _______ _______ _____ _____    ______ ____
ROOT
ATOM      1  C   UNL     1      -3.714  11.973  18.733  0.00  0.00    +0.000 A 
ATOM      2  N   UNL     1      -2.683  11.963  19.616  0.00  0.00    +0.000 NA
ATOM      3  C   UNL     1      -1.506  11.364  19.376  0.00  0.00    +0.000 A 
ATOM      4  C   UNL     1      -0.456  11.457  20.308  0.00  0.00    +0.000 A 
ATOM      5  C   UNL     1       0.783  10.844  20.040  0.00  0.00    +0.000 A 
ATOM      6  C   UNL     1       0.989  10.139  18.859  0.00  0.00    +0.000 A 
ATOM      7  C   UNL     1      -0.039  10.043  17.929  0.00  0.00    +0.000 A 
ATOM      8  C   UNL     1      -1.286  10.658  18.183  0.00  0.00    +0.000 A 
ATOM      9  C   UNL     1      -2.365  10.620  17.251  0.00  0.00    +0.000 A 
ATOM     10  S   UNL     1      -2.407   9.850  15.696  0.00  0.00    +0.000 S 
ATOM     11  C   UNL     1      -3.986  10.382  15.374  0.00  0.00    +0.000 A 
ATOM     12  C   UNL     1      -4.502  11.112  16.414  0.00  0.00    +0.000 A 
ATOM     13  C   UNL     1      -3.581  11.266  17.516  0.00  0.00    +0.000 A 
ENDROOT
BRANCH   4  14
ATOM     14  C   UNL     1      -0.599  12.215  21.559  0.00  0.00    +0.000 A 
ATOM     15  N   UNL     1       0.202  13.154  22.034  0.00  0.00    +0.000 NA
ATOM     16  N   UNL     1      -0.331  13.633  23.212  0.00  0.00    +0.000 NA
ATOM     17  C   UNL     1      -1.444  12.976  23.437  0.00  0.00    +0.000 A 
ATOM     18  N   UNL     1      -1.640  12.070  22.445  0.00  0.00    +0.000 N 
ATOM     19  H   UNL     1      -2.409  11.421  22.328  0.00  0.00    +0.000 HD
ENDBRANCH   4  14
BRANCH   1  20
ATOM     20  N   UNL     1      -4.859  12.707  19.084  0.00  0.00    +0.000 N 
ATOM     21  H   UNL     1      -4.706  13.705  19.144  0.00  0.00    +0.000 HD
BRANCH  20  26
ATOM     22  C   UNL     1      -7.122  12.568  22.028  0.00  0.00    +0.000 A 
ATOM     23  C   UNL     1      -7.912  11.457  21.724  0.00  0.00    +0.000 A 
ATOM     24  C   UNL     1      -7.680  10.742  20.552  0.00  0.00    +0.000 A 
ATOM     25  C   UNL     1      -6.664  11.144  19.687  0.00  0.00    +0.000 A 
ATOM     26  C   UNL     1      -5.875  12.272  19.963  0.00  0.00    +0.000 A 
ATOM     27  C   UNL     1      -6.110  12.975  21.151  0.00  0.00    +0.000 A 
BRANCH  22  29
ATOM     28  C   UNL     1      -7.505  13.890  24.268  0.00  0.00    +0.000 C 
ATOM     29  C   UNL     1      -7.340  13.285  23.246  0.00  0.00    +0.000 C 
ENDBRANCH  22  29
ENDBRANCH  20  26
ENDBRANCH   1  20
TORSDOF 4
ENDMDL
MODEL 5
REMARK VINA RESULT:      -7.2      4.634      8.696
REMARK  Name = 
REMARK  4 active torsions:
REMARK  status: ('A' for Active; 'I' for Inactive)
REMARK    1  A    between atoms: C_2  and  C_3
REMARK    2  A    between atoms: C_7  and  N_8
REMARK    3  A    between atoms: N_8  and  C_9
REMARK    4  A    between atoms: C_12  and  C_13
REMARK                            x       y       z     vdW  Elec       q    Type
REMARK                         _______ _______ _______ _____ _____    ______ ____
ROOT
ATOM      1  C   UNL     1       0.255  11.115  18.510  0.00  0.00    +0.000 A 
ATOM      2  N   UNL     1       0.548  12.153  19.336  0.00  0.00    +0.000 NA
ATOM      3  C   UNL     1      -0.382  12.939  19.899  0.00  0.00    +0.000 A 
ATOM      4  C   UNL     1      -0.010  13.950  20.803  0.00  0.00    +0.000 A 
ATOM      5  C   UNL     1      -0.993  14.757  21.406  0.00  0.00    +0.000 A 
ATOM      6  C   UNL     1      -2.342  14.572  21.119  0.00  0.00    +0.000 A 
ATOM      7  C   UNL     1      -2.723  13.574  20.230  0.00  0.00    +0.000 A 
ATOM      8  C   UNL     1      -1.746  12.754  19.622  0.00  0.00    +0.000 A 
ATOM      9  C   UNL     1      -2.082  11.694  18.728  0.00  0.00    +0.000 A 
ATOM     10  S   UNL     1      -3.660  11.203  18.198  0.00  0.00    +0.000 S 
ATOM     11  C   UNL     1      -3.049   9.923  17.266  0.00  0.00    +0.000 A 
ATOM     12  C   UNL     1      -1.679   9.858  17.321  0.00  0.00    +0.000 A 
ATOM     13  C   UNL     1      -1.094  10.875  18.163  0.00  0.00    +0.000 A 
ENDROOT
BRANCH   4  14
ATOM     14  C   UNL     1       1.395  14.174  21.173  0.00  0.00    +0.000 A 
ATOM     15  N   UNL     1       1.873  14.555  22.346  0.00  0.00    +0.000 NA
ATOM     16  N   UNL     1       3.248  14.596  22.268  0.00  0.00    +0.000 NA
ATOM     17  C   UNL     1       3.585  14.246  21.050  0.00  0.00    +0.000 A 
ATOM     18  N   UNL     1       2.464  13.994  20.328  0.00  0.00    +0.000 N 
ATOM     19  H   UNL     1       2.390  13.695  19.363  0.00  0.00    +0.000 HD
ENDBRANCH   4  14
BRANCH   1  20
ATOM     20  N   UNL     1       1.326  10.327  18.057  0.00  0.00    +0.000 N 
ATOM     21  H   UNL     1       1.472  10.365  17.056  0.00  0.00    +0.000 HD
BRANCH  20  26
ATOM     22  C   UNL     1       2.932   6.991  18.378  0.00  0.00    +0.000 A 
ATOM     23  C   UNL     1       2.552   6.619  19.669  0.00  0.00    +0.000 A 
ATOM     24  C   UNL     1       1.745   7.466  20.425  0.00  0.00    +0.000 A 
ATOM     25  C   UNL     1       1.328   8.683  19.890  0.00  0.00    +0.000 A 
ATOM     26  C   UNL     1       1.720   9.085  18.603  0.00  0.00    +0.000 A 
ATOM     27  C   UNL     1       2.519   8.220  17.848  0.00  0.00    +0.000 A 
BRANCH  22  29
ATOM     28  C   UNL     1       4.405   5.355  16.942  0.00  0.00    +0.000 C 
ATOM     29  C   UNL     1       3.735   6.109  17.590  0.00  0.00    +0.000 C 
ENDBRANCH  22  29
ENDBRANCH  20  26
ENDBRANCH   1  20
TORSDOF 4
ENDMDL
MODEL 6
REMARK VINA RESULT:      -7.2      2.711      7.144
REMARK  Name = 
REMARK  4 active torsions:
REMARK  status: ('A' for Active; 'I' for Inactive)
REMARK    1  A    between atoms: C_2  and  C_3
REMARK    2  A    between atoms: C_7  and  N_8
REMARK    3  A    between atoms: N_8  and  C_9
REMARK    4  A    between atoms: C_12  and  C_13
REMARK                            x       y       z     vdW  Elec       q    Type
REMARK                         _______ _______ _______ _____ _____    ______ ____
ROOT
ATOM      1  C   UNL     1       2.977   7.510  18.022  0.00  0.00    +0.000 A 
ATOM      2  N   UNL     1       2.349   8.648  18.415  0.00  0.00    +0.000 NA
ATOM      3  C   UNL     1       1.620   8.743  19.538  0.00  0.00    +0.000 A 
ATOM      4  C   UNL     1       1.058   9.975  19.921  0.00  0.00    +0.000 A 
ATOM      5  C   UNL     1       0.313  10.072  21.111  0.00  0.00    +0.000 A 
ATOM      6  C   UNL     1       0.118   8.960  21.924  0.00  0.00    +0.000 A 
ATOM      7  C   UNL     1       0.672   7.739  21.559  0.00  0.00    +0.000 A 
ATOM      8  C   UNL     1       1.427   7.629  20.369  0.00  0.00    +0.000 A 
ATOM      9  C   UNL     1       2.045   6.409  19.962  0.00  0.00    +0.000 A 
ATOM     10  S   UNL     1       2.008   4.873  20.768  0.00  0.00    +0.000 S 
ATOM     11  C   UNL     1       3.007   4.138  19.608  0.00  0.00    +0.000 A 
ATOM     12  C   UNL     1       3.360   5.011  18.610  0.00  0.00    +0.000 A 
ATOM     13  C   UNL     1       2.814   6.336  18.792  0.00  0.00    +0.000 A 
ENDROOT
BRANCH   4  14
ATOM     14  C   UNL     1       1.254  11.194  19.122  0.00  0.00    +0.000 A 
ATOM     15  N   UNL     1       0.505  12.284  19.112  0.00  0.00    +0.000 NA
ATOM     16  N   UNL     1       1.076  13.201  18.255  0.00  0.00    +0.000 NA
ATOM     17  C   UNL     1       2.158  12.653  17.755  0.00  0.00    +0.000 A 
ATOM     18  N   UNL     1       2.298  11.398  18.251  0.00  0.00    +0.000 N 
ATOM     19  H   UNL     1       3.032  10.726  18.067  0.00  0.00    +0.000 HD
ENDBRANCH   4  14
BRANCH   1  20
ATOM     20  N   UNL     1       3.771   7.577  16.865  0.00  0.00    +0.000 N 
ATOM     21  H   UNL     1       3.249   7.744  16.015  0.00  0.00    +0.000 HD
BRANCH  20  26
ATOM     22  C   UNL     1       6.154   5.217  15.264  0.00  0.00    +0.000 A 
ATOM     23  C   UNL     1       7.264   5.325  16.104  0.00  0.00    +0.000 A 
ATOM     24  C   UNL     1       7.215   6.164  17.213  0.00  0.00    +0.000 A 
ATOM     25  C   UNL     1       6.058   6.897  17.475  0.00  0.00    +0.000 A 
ATOM     26  C   UNL     1       4.941   6.821  16.628  0.00  0.00    +0.000 A 
ATOM     27  C   UNL     1       4.998   5.964  15.523  0.00  0.00    +0.000 A 
BRANCH  22  29
ATOM     28  C   UNL     1       6.209   3.594  13.196  0.00  0.00    +0.000 C 
ATOM     29  C   UNL     1       6.194   4.333  14.140  0.00  0.00    +0.000 C 
ENDBRANCH  22  29
ENDBRANCH  20  26
ENDBRANCH   1  20
TORSDOF 4
ENDMDL
MODEL 7
REMARK VINA RESULT:      -7.2      3.404      7.463
REMARK  Name = 
REMARK  4 active torsions:
REMARK  status: ('A' for Active; 'I' for Inactive)
REMARK    1  A    between atoms: C_2  and  C_3
REMARK    2  A    between atoms: C_7  and  N_8
REMARK    3  A    between atoms: N_8  and  C_9
REMARK    4  A    between atoms: C_12  and  C_13
REMARK                            x       y       z     vdW  Elec       q    Type
REMARK                         _______ _______ _______ _____ _____    ______ ____
ROOT
ATOM      1  C   UNL     1       5.615   4.376  17.920  0.00  0.00    +0.000 A 
ATOM      2  N   UNL     1       5.337   3.486  18.907  0.00  0.00    +0.000 NA
ATOM      3  C   UNL     1       4.252   3.564  19.691  0.00  0.00    +0.000 A 
ATOM      4  C   UNL     1       3.989   2.565  20.647  0.00  0.00    +0.000 A 
ATOM      5  C   UNL     1       2.837   2.641  21.452  0.00  0.00    +0.000 A 
ATOM      6  C   UNL     1       1.944   3.700  21.320  0.00  0.00    +0.000 A 
ATOM      7  C   UNL     1       2.190   4.691  20.377  0.00  0.00    +0.000 A 
ATOM      8  C   UNL     1       3.340   4.622  19.559  0.00  0.00    +0.000 A 
ATOM      9  C   UNL     1       3.626   5.594  18.554  0.00  0.00    +0.000 A 
ATOM     10  S   UNL     1       2.700   7.000  18.134  0.00  0.00    +0.000 S 
ATOM     11  C   UNL     1       3.761   7.437  16.883  0.00  0.00    +0.000 A 
ATOM     12  C   UNL     1       4.814   6.564  16.777  0.00  0.00    +0.000 A 
ATOM     13  C   UNL     1       4.758   5.485  17.735  0.00  0.00    +0.000 A 
ENDROOT
BRANCH   4  14
ATOM     14  C   UNL     1       4.876   1.404  20.813  0.00  0.00    +0.000 A 
ATOM     15  N   UNL     1       5.573   1.065  21.885  0.00  0.00    +0.000 NA
ATOM     16  N   UNL     1       6.231  -0.118  21.624  0.00  0.00    +0.000 NA
ATOM     17  C   UNL     1       5.929  -0.477  20.399  0.00  0.00    +0.000 A 
ATOM     18  N   UNL     1       5.104   0.450  19.850  0.00  0.00    +0.000 N 
ATOM     19  H   UNL     1       4.689   0.456  18.926  0.00  0.00    +0.000 HD
ENDBRANCH   4  14
BRANCH   1  20
ATOM     20  N   UNL     1       6.746   4.126  17.124  0.00  0.00    +0.000 N 
ATOM     21  H   UNL     1       7.626   4.242  17.609  0.00  0.00    +0.000 HD
BRANCH  20  26
ATOM     22  C   UNL     1       6.093   4.064  13.466  0.00  0.00    +0.000 A 
ATOM     23  C   UNL     1       7.030   4.987  12.997  0.00  0.00    +0.000 A 
ATOM     24  C   UNL     1       7.893   5.614  13.892  0.00  0.00    +0.000 A 
ATOM     25  C   UNL     1       7.811   5.320  15.252  0.00  0.00    +0.000 A 
ATOM     26  C   UNL     1       6.859   4.414  15.745  0.00  0.00    +0.000 A 
ATOM     27  C   UNL     1       6.006   3.781  14.834  0.00  0.00    +0.000 A 
BRANCH  22  29
ATOM     28  C   UNL     1       4.509   2.848  11.756  0.00  0.00    +0.000 C 
ATOM     29  C   UNL     1       5.227   3.398  12.544  0.00  0.00    +0.000 C 
ENDBRANCH  22  29
ENDBRANCH  20  26
ENDBRANCH   1  20
TORSDOF 4
ENDMDL
MODEL 8
REMARK VINA RESULT:      -7.2      5.417      9.992
REMARK  Name = 
REMARK  4 active torsions:
REMARK  status: ('A' for Active; 'I' for Inactive)
REMARK    1  A    between atoms: C_2  and  C_3
REMARK    2  A    between atoms: C_7  and  N_8
REMARK    3  A    between atoms: N_8  and  C_9
REMARK    4  A    between atoms: C_12  and  C_13
REMARK                            x       y       z     vdW  Elec       q    Type
REMARK                         _______ _______ _______ _____ _____    ______ ____
ROOT
ATOM      1  C   UNL     1      -1.083  11.669  19.804  0.00  0.00    +0.000 A 
ATOM      2  N   UNL     1      -1.996  11.449  18.823  0.00  0.00    +0.000 NA
ATOM      3  C   UNL     1      -3.276  11.843  18.899  0.00  0.00    +0.000 A 
ATOM      4  C   UNL     1      -4.149  11.646  17.812  0.00  0.00    +0.000 A 
ATOM      5  C   UNL     1      -5.484  12.081  17.890  0.00  0.00    +0.000 A 
ATOM      6  C   UNL     1      -5.965  12.709  19.035  0.00  0.00    +0.000 A 
ATOM      7  C   UNL     1      -5.112  12.914  20.113  0.00  0.00    +0.000 A 
ATOM      8  C   UNL     1      -3.767  12.486  20.046  0.00  0.00    +0.000 A 
ATOM      9  C   UNL     1      -2.839  12.698  21.109  0.00  0.00    +0.000 A 
ATOM     10  S   UNL     1      -3.125  13.467  22.638  0.00  0.00    +0.000 S 
ATOM     11  C   UNL     1      -1.512  13.287  23.134  0.00  0.00    +0.000 A 
ATOM     12  C   UNL     1      -0.755  12.643  22.188  0.00  0.00    +0.000 A 
ATOM     13  C   UNL     1      -1.502  12.291  21.003  0.00  0.00    +0.000 A 
ENDROOT
BRANCH   4  14
ATOM     14  C   UNL     1      -3.695  11.018  16.563  0.00  0.00    +0.000 A 
ATOM     15  N   UNL     1      -3.892  11.442  15.326  0.00  0.00    +0.000 NA
ATOM     16  N   UNL     1      -3.256  10.579  14.459  0.00  0.00    +0.000 NA
ATOM     17  C   UNL     1      -2.686   9.643  15.181  0.00  0.00    +0.000 A 
ATOM     18  N   UNL     1      -2.950   9.865  16.493  0.00  0.00    +0.000 N 
ATOM     19  H   UNL     1      -2.646   9.328  17.296  0.00  0.00    +0.000 HD
ENDBRANCH   4  14
BRANCH   1  20
ATOM     20  N   UNL     1       0.241  11.272  19.556  0.00  0.00    +0.000 N 
ATOM     21  H   UNL     1       0.656  11.705  18.742  0.00  0.00    +0.000 HD
BRANCH  20  26
ATOM     22  C   UNL     1       2.137   8.113  19.070  0.00  0.00    +0.000 A 
ATOM     23  C   UNL     1       1.873   7.440  20.264  0.00  0.00    +0.000 A 
ATOM     24  C   UNL     1       1.049   8.024  21.222  0.00  0.00    +0.000 A 
ATOM     25  C   UNL     1       0.497   9.282  20.984  0.00  0.00    +0.000 A 
ATOM     26  C   UNL     1       0.771   9.985  19.800  0.00  0.00    +0.000 A 
ATOM     27  C   UNL     1       1.591   9.382  18.840  0.00  0.00    +0.000 A 
BRANCH  22  29
ATOM     28  C   UNL     1       3.664   6.997  17.244  0.00  0.00    +0.000 C 
ATOM     29  C   UNL     1       2.960   7.500  18.073  0.00  0.00    +0.000 C 
ENDBRANCH  22  29
ENDBRANCH  20  26
ENDBRANCH   1  20
TORSDOF 4
ENDMDL
MODEL 9
REMARK VINA RESULT:      -7.0      7.804     10.612
REMARK  Name = 
REMARK  4 active torsions:
REMARK  status: ('A' for Active; 'I' for Inactive)
REMARK    1  A    between atoms: C_2  and  C_3
REMARK    2  A    between atoms: C_7  and  N_8
REMARK    3  A    between atoms: N_8  and  C_9
REMARK    4  A    between atoms: C_12  and  C_13
REMARK                            x       y       z     vdW  Elec       q    Type
REMARK                         _______ _______ _______ _____ _____    ______ ____
ROOT
ATOM      1  C   UNL     1      -2.309  12.628  20.319  0.00  0.00    +0.000 A 
ATOM      2  N   UNL     1      -3.297  12.424  19.409  0.00  0.00    +0.000 NA
ATOM      3  C   UNL     1      -3.188  11.577  18.374  0.00  0.00    +0.000 A 
ATOM      4  C   UNL     1      -4.278  11.361  17.512  0.00  0.00    +0.000 A 
ATOM      5  C   UNL     1      -4.164  10.456  16.440  0.00  0.00    +0.000 A 
ATOM      6  C   UNL     1      -2.979   9.763  16.215  0.00  0.00    +0.000 A 
ATOM      7  C   UNL     1      -1.896   9.965  17.062  0.00  0.00    +0.000 A 
ATOM      8  C   UNL     1      -1.999  10.868  18.144  0.00  0.00    +0.000 A 
ATOM      9  C   UNL     1      -0.931  11.089  19.064  0.00  0.00    +0.000 A 
ATOM     10  S   UNL     1       0.646  10.364  19.064  0.00  0.00    +0.000 S 
ATOM     11  C   UNL     1       1.118  11.174  20.479  0.00  0.00    +0.000 A 
ATOM     12  C   UNL     1       0.128  11.999  20.951  0.00  0.00    +0.000 A 
ATOM     13  C   UNL     1      -1.071  11.967  20.148  0.00  0.00    +0.000 A 
ENDROOT
BRANCH   4  14
ATOM     14  C   UNL     1      -5.568  12.037  17.715  0.00  0.00    +0.000 A 
ATOM     15  N   UNL     1      -6.738  11.484  17.986  0.00  0.00    +0.000 NA
ATOM     16  N   UNL     1      -7.672  12.486  18.144  0.00  0.00    +0.000 NA
ATOM     17  C   UNL     1      -7.057  13.630  17.963  0.00  0.00    +0.000 A 
ATOM     18  N   UNL     1      -5.752  13.399  17.675  0.00  0.00    +0.000 N 
ATOM     19  H   UNL     1      -5.018  14.072  17.493  0.00  0.00    +0.000 HD
ENDBRANCH   4  14
BRANCH   1  20
ATOM     20  N   UNL     1      -2.591  13.484  21.397  0.00  0.00    +0.000 N 
ATOM     21  H   UNL     1      -1.805  14.049  21.692  0.00  0.00    +0.000 HD
BRANCH  20  26
ATOM     22  C   UNL     1      -5.593  13.551  23.586  0.00  0.00    +0.000 A 
ATOM     23  C   UNL     1      -5.248  12.619  24.566  0.00  0.00    +0.000 A 
ATOM     24  C   UNL     1      -4.010  11.983  24.513  0.00  0.00    +0.000 A 
ATOM     25  C   UNL     1      -3.126  12.278  23.477  0.00  0.00    +0.000 A 
ATOM     26  C   UNL     1      -3.465  13.194  22.468  0.00  0.00    +0.000 A 
ATOM     27  C   UNL     1      -4.706  13.836  22.541  0.00  0.00    +0.000 A 
BRANCH  22  29
ATOM     28  C   UNL     1      -7.915  14.776  23.721  0.00  0.00    +0.000 C 
ATOM     29  C   UNL     1      -6.852  14.227  23.658  0.00  0.00    +0.000 C 
ENDBRANCH  22  29
ENDBRANCH  20  26
ENDBRANCH   1  20
TORSDOF 4
ENDMDL
