MODEL 1
REMARK VINA RESULT:      -7.7      0.000      0.000
REMARK  Name = 
REMARK  3 active torsions:
REMARK  status: ('A' for Active; 'I' for Inactive)
REMARK    1  A    between atoms: C_2  and  C_5
REMARK    2  A    between atoms: N_3  and  O_4
REMARK    3  A    between atoms: N_9  and  C_10
REMARK                            x       y       z     vdW  Elec       q    Type
REMARK                         _______ _______ _______ _____ _____    ______ ____
ROOT
ATOM      1  C   UNL     1       6.449   4.479  15.583  0.00  0.00    +0.000 A 
ATOM      2  C   UNL     1       7.253   4.537  16.698  0.00  0.00    +0.000 A 
ATOM      3  N   UNL     1       6.804   4.309  17.958  0.00  0.00    +0.000 NA
ATOM      4  C   UNL     1       5.499   4.030  18.098  0.00  0.00    +0.000 A 
ATOM      5  N   UNL     1       5.017   3.810  19.385  0.00  0.00    +0.000 N 
ATOM      6  N   UNL     1       4.654   3.930  17.055  0.00  0.00    +0.000 NA
ATOM      7  C   UNL     1       5.144   4.139  15.820  0.00  0.00    +0.000 A 
ATOM      8  H   UNL     1       5.760   3.781  20.068  0.00  0.00    +0.000 HD
ENDROOT
BRANCH   5   9
ATOM      9  C   UNL     1       3.705   3.951  19.856  0.00  0.00    +0.000 A 
ATOM     10  C   UNL     1       2.883   2.822  19.974  0.00  0.00    +0.000 A 
ATOM     11  C   UNL     1       1.540   2.947  20.350  0.00  0.00    +0.000 A 
ATOM     12  C   UNL     1       1.004   4.204  20.624  0.00  0.00    +0.000 A 
ATOM     13  C   UNL     1       1.811   5.330  20.519  0.00  0.00    +0.000 A 
ATOM     14 CL   UNL     1       1.166   6.889  20.859  0.00  0.00    +0.000 Cl
ATOM     15  C   UNL     1       3.145   5.207  20.133  0.00  0.00    +0.000 A 
ENDBRANCH   5   9
BRANCH   1  17
ATOM     16  O   UNL     1       6.531   4.089  13.274  0.00  0.00    +0.000 OA
ATOM     17  C   UNL     1       6.975   4.712  14.232  0.00  0.00    +0.000 C 
ATOM     18  N   UNL     1       7.981   5.642  14.110  0.00  0.00    +0.000 N 
ATOM     19  H   UNL     1       8.580   5.943  14.873  0.00  0.00    +0.000 HD
BRANCH  18  20
ATOM     20  O   UNL     1       8.512   5.802  12.810  0.00  0.00    +0.000 OA
ATOM     21  H   UNL     1       8.974   6.667  12.873  0.00  0.00    +0.000 HD
ENDBRANCH  18  20
ENDBRANCH   1  17
TORSDOF 3
ENDMDL
MODEL 2
REMARK VINA RESULT:      -7.4      1.420      1.899
REMARK  Name = 
REMARK  3 active torsions:
REMARK  status: ('A' for Active; 'I' for Inactive)
REMARK    1  A    between atoms: C_2  and  C_5
REMARK    2  A    between atoms: N_3  and  O_4
REMARK    3  A    between atoms: N_9  and  C_10
REMARK                            x       y       z     vdW  Elec       q    Type
REMARK                         _______ _______ _______ _____ _____    ______ ____
ROOT
ATOM      1  C   UNL     1       6.608   4.538  15.309  0.00  0.00    +0.000 A 
ATOM      2  C   UNL     1       7.441   4.689  16.393  0.00  0.00    +0.000 A 
ATOM      3  N   UNL     1       7.021   4.593  17.681  0.00  0.00    +0.000 NA
ATOM      4  C   UNL     1       5.715   4.355  17.879  0.00  0.00    +0.000 A 
ATOM      5  N   UNL     1       5.263   4.271  19.192  0.00  0.00    +0.000 N 
ATOM      6  N   UNL     1       4.842   4.170  16.871  0.00  0.00    +0.000 NA
ATOM      7  C   UNL     1       5.303   4.248  15.610  0.00  0.00    +0.000 A 
ATOM      8  H   UNL     1       6.023   4.293  19.857  0.00  0.00    +0.000 HD
ENDROOT
BRANCH   5   9
ATOM      9  C   UNL     1       3.966   4.481  19.679  0.00  0.00    +0.000 A 
ATOM     10  C   UNL     1       3.365   5.739  19.538  0.00  0.00    +0.000 A 
ATOM     11  C   UNL     1       2.110   6.003  20.099  0.00  0.00    +0.000 A 
ATOM     12  C   UNL     1       1.434   5.007  20.801  0.00  0.00    +0.000 A 
ATOM     13  C   UNL     1       2.016   3.752  20.941  0.00  0.00    +0.000 A 
ATOM     14 CL   UNL     1       1.192   2.510  21.801  0.00  0.00    +0.000 Cl
ATOM     15  C   UNL     1       3.270   3.493  20.392  0.00  0.00    +0.000 A 
ENDBRANCH   5   9
BRANCH   1  17
ATOM     16  O   UNL     1       7.905   5.499  13.611  0.00  0.00    +0.000 OA
ATOM     17  C   UNL     1       7.102   4.629  13.930  0.00  0.00    +0.000 C 
ATOM     18  N   UNL     1       6.611   3.709  13.033  0.00  0.00    +0.000 N 
ATOM     19  H   UNL     1       5.746   3.191  13.156  0.00  0.00    +0.000 HD
BRANCH  18  20
ATOM     20  O   UNL     1       7.054   3.857  11.699  0.00  0.00    +0.000 OA
ATOM     21  H   UNL     1       6.786   3.005  11.289  0.00  0.00    +0.000 HD
ENDBRANCH  18  20
ENDBRANCH   1  17
TORSDOF 3
ENDMDL
MODEL 3
REMARK VINA RESULT:      -7.0      2.022      2.396
REMARK  Name = 
REMARK  3 active torsions:
REMARK  status: ('A' for Active; 'I' for Inactive)
REMARK    1  A    between atoms: C_2  and  C_5
REMARK    2  A    between atoms: N_3  and  O_4
REMARK    3  A    between atoms: N_9  and  C_10
REMARK                            x       y       z     vdW  Elec       q    Type
REMARK                         _______ _______ _______ _____ _____    ______ ____
ROOT
ATOM      1  C   UNL     1       5.898   4.987  15.269  0.00  0.00    +0.000 A 
ATOM      2  C   UNL     1       5.440   6.252  15.560  0.00  0.00    +0.000 A 
ATOM      3  N   UNL     1       4.689   6.545  16.652  0.00  0.00    +0.000 NA
ATOM      4  C   UNL     1       4.377   5.525  17.467  0.00  0.00    +0.000 A 
ATOM      5  N   UNL     1       3.593   5.803  18.582  0.00  0.00    +0.000 N 
ATOM      6  N   UNL     1       4.808   4.265  17.264  0.00  0.00    +0.000 NA
ATOM      7  C   UNL     1       5.570   4.022  16.184  0.00  0.00    +0.000 A 
ATOM      8  H   UNL     1       3.442   6.793  18.703  0.00  0.00    +0.000 HD
ENDROOT
BRANCH   5   9
ATOM      9  C   UNL     1       2.774   4.927  19.308  0.00  0.00    +0.000 A 
ATOM     10  C   UNL     1       2.801   4.949  20.708  0.00  0.00    +0.000 A 
ATOM     11  C   UNL     1       2.065   4.021  21.456  0.00  0.00    +0.000 A 
ATOM     12  C   UNL     1       1.284   3.063  20.810  0.00  0.00    +0.000 A 
ATOM     13  C   UNL     1       1.243   3.037  19.421  0.00  0.00    +0.000 A 
ATOM     14 CL   UNL     1       0.280   1.864  18.608  0.00  0.00    +0.000 Cl
ATOM     15  C   UNL     1       1.985   3.953  18.677  0.00  0.00    +0.000 A 
ENDBRANCH   5   9
BRANCH   1  17
ATOM     16  O   UNL     1       7.725   5.383  13.857  0.00  0.00    +0.000 OA
ATOM     17  C   UNL     1       6.725   4.712  14.088  0.00  0.00    +0.000 C 
ATOM     18  N   UNL     1       6.313   3.689  13.267  0.00  0.00    +0.000 N 
ATOM     19  H   UNL     1       5.366   3.324  13.234  0.00  0.00    +0.000 HD
BRANCH  18  20
ATOM     20  O   UNL     1       7.090   3.486  12.104  0.00  0.00    +0.000 OA
ATOM     21  H   UNL     1       7.716   4.242  12.131  0.00  0.00    +0.000 HD
ENDBRANCH  18  20
ENDBRANCH   1  17
TORSDOF 3
ENDMDL
MODEL 4
REMARK VINA RESULT:      -6.9      3.301      3.795
REMARK  Name = 
REMARK  3 active torsions:
REMARK  status: ('A' for Active; 'I' for Inactive)
REMARK    1  A    between atoms: C_2  and  C_5
REMARK    2  A    between atoms: N_3  and  O_4
REMARK    3  A    between atoms: N_9  and  C_10
REMARK                            x       y       z     vdW  Elec       q    Type
REMARK                         _______ _______ _______ _____ _____    ______ ____
ROOT
ATOM      1  C   UNL     1       7.467   7.154  18.245  0.00  0.00    +0.000 A 
ATOM      2  C   UNL     1       8.049   6.146  18.979  0.00  0.00    +0.000 A 
ATOM      3  N   UNL     1       7.473   4.933  19.175  0.00  0.00    +0.000 NA
ATOM      4  C   UNL     1       6.263   4.738  18.626  0.00  0.00    +0.000 A 
ATOM      5  N   UNL     1       5.650   3.506  18.830  0.00  0.00    +0.000 N 
ATOM      6  N   UNL     1       5.641   5.665  17.873  0.00  0.00    +0.000 NA
ATOM      7  C   UNL     1       6.258   6.845  17.683  0.00  0.00    +0.000 A 
ATOM      8  H   UNL     1       6.261   2.850  19.293  0.00  0.00    +0.000 HD
ENDROOT
BRANCH   5   9
ATOM      9  C   UNL     1       4.283   3.198  18.779  0.00  0.00    +0.000 A 
ATOM     10  C   UNL     1       3.653   3.034  17.538  0.00  0.00    +0.000 A 
ATOM     11  C   UNL     1       2.272   2.821  17.457  0.00  0.00    +0.000 A 
ATOM     12  C   UNL     1       1.503   2.759  18.618  0.00  0.00    +0.000 A 
ATOM     13  C   UNL     1       2.118   2.911  19.855  0.00  0.00    +0.000 A 
ATOM     14 CL   UNL     1       1.184   2.831  21.299  0.00  0.00    +0.000 Cl
ATOM     15  C   UNL     1       3.492   3.135  19.935  0.00  0.00    +0.000 A 
ENDBRANCH   5   9
BRANCH   1  17
ATOM     16  O   UNL     1       8.022   9.040  16.970  0.00  0.00    +0.000 OA
ATOM     17  C   UNL     1       8.130   8.448  18.038  0.00  0.00    +0.000 C 
ATOM     18  N   UNL     1       8.874   8.938  19.087  0.00  0.00    +0.000 N 
ATOM     19  H   UNL     1       9.243   8.371  19.843  0.00  0.00    +0.000 HD
BRANCH  18  20
ATOM     20  O   UNL     1       9.552  10.153  18.840  0.00  0.00    +0.000 OA
ATOM     21  H   UNL     1      10.471   9.944  19.116  0.00  0.00    +0.000 HD
ENDBRANCH  18  20
ENDBRANCH   1  17
TORSDOF 3
ENDMDL
MODEL 5
REMARK VINA RESULT:      -6.8      1.364      1.723
REMARK  Name = 
REMARK  3 active torsions:
REMARK  status: ('A' for Active; 'I' for Inactive)
REMARK    1  A    between atoms: C_2  and  C_5
REMARK    2  A    between atoms: N_3  and  O_4
REMARK    3  A    between atoms: N_9  and  C_10
REMARK                            x       y       z     vdW  Elec       q    Type
REMARK                         _______ _______ _______ _____ _____    ______ ____
ROOT
ATOM      1  C   UNL     1       6.580   4.651  15.337  0.00  0.00    +0.000 A 
ATOM      2  C   UNL     1       7.280   4.884  16.498  0.00  0.00    +0.000 A 
ATOM      3  N   UNL     1       6.758   4.700  17.738  0.00  0.00    +0.000 NA
ATOM      4  C   UNL     1       5.484   4.285  17.806  0.00  0.00    +0.000 A 
ATOM      5  N   UNL     1       4.926   4.108  19.068  0.00  0.00    +0.000 N 
ATOM      6  N   UNL     1       4.742   4.010  16.716  0.00  0.00    +0.000 NA
ATOM      7  C   UNL     1       5.305   4.181  15.507  0.00  0.00    +0.000 A 
ATOM      8  H   UNL     1       5.610   4.215  19.803  0.00  0.00    +0.000 HD
ENDROOT
BRANCH   5   9
ATOM      9  C   UNL     1       3.572   4.130  19.431  0.00  0.00    +0.000 A 
ATOM     10  C   UNL     1       3.107   5.104  20.323  0.00  0.00    +0.000 A 
ATOM     11  C   UNL     1       1.782   5.091  20.775  0.00  0.00    +0.000 A 
ATOM     12  C   UNL     1       0.901   4.107  20.331  0.00  0.00    +0.000 A 
ATOM     13  C   UNL     1       1.348   3.139  19.438  0.00  0.00    +0.000 A 
ATOM     14 CL   UNL     1       0.272   1.920  18.876  0.00  0.00    +0.000 Cl
ATOM     15  C   UNL     1       2.671   3.146  18.998  0.00  0.00    +0.000 A 
ENDBRANCH   5   9
BRANCH   1  17
ATOM     16  O   UNL     1       6.799   4.186  13.051  0.00  0.00    +0.000 OA
ATOM     17  C   UNL     1       7.184   4.842  14.013  0.00  0.00    +0.000 C 
ATOM     18  N   UNL     1       8.195   5.770  13.921  0.00  0.00    +0.000 N 
ATOM     19  H   UNL     1       8.747   6.098  14.707  0.00  0.00    +0.000 HD
BRANCH  18  20
ATOM     20  O   UNL     1       8.802   5.890  12.650  0.00  0.00    +0.000 OA
ATOM     21  H   UNL     1       9.750   6.014  12.877  0.00  0.00    +0.000 HD
ENDBRANCH  18  20
ENDBRANCH   1  17
TORSDOF 3
ENDMDL
MODEL 6
REMARK VINA RESULT:      -6.8      1.786      2.036
REMARK  Name = 
REMARK  3 active torsions:
REMARK  status: ('A' for Active; 'I' for Inactive)
REMARK    1  A    between atoms: C_2  and  C_5
REMARK    2  A    between atoms: N_3  and  O_4
REMARK    3  A    between atoms: N_9  and  C_10
REMARK                            x       y       z     vdW  Elec       q    Type
REMARK                         _______ _______ _______ _____ _____    ______ ____
ROOT
ATOM      1  C   UNL     1       6.009   5.020  15.221  0.00  0.00    +0.000 A 
ATOM      2  C   UNL     1       5.505   6.222  15.660  0.00  0.00    +0.000 A 
ATOM      3  N   UNL     1       4.643   6.337  16.703  0.00  0.00    +0.000 NA
ATOM      4  C   UNL     1       4.266   5.201  17.309  0.00  0.00    +0.000 A 
ATOM      5  N   UNL     1       3.370   5.298  18.369  0.00  0.00    +0.000 N 
ATOM      6  N   UNL     1       4.735   3.989  16.955  0.00  0.00    +0.000 NA
ATOM      7  C   UNL     1       5.606   3.922  15.933  0.00  0.00    +0.000 A 
ATOM      8  H   UNL     1       3.192   6.257  18.629  0.00  0.00    +0.000 HD
ENDROOT
BRANCH   5   9
ATOM      9  C   UNL     1       2.496   4.318  18.860  0.00  0.00    +0.000 A 
ATOM     10  C   UNL     1       1.508   3.784  18.022  0.00  0.00    +0.000 A 
ATOM     11  C   UNL     1       0.563   2.876  18.514  0.00  0.00    +0.000 A 
ATOM     12  C   UNL     1       0.601   2.481  19.850  0.00  0.00    +0.000 A 
ATOM     13  C   UNL     1       1.582   2.997  20.689  0.00  0.00    +0.000 A 
ATOM     14 CL   UNL     1       1.645   2.515  22.340  0.00  0.00    +0.000 Cl
ATOM     15  C   UNL     1       2.515   3.910  20.202  0.00  0.00    +0.000 A 
ENDBRANCH   5   9
BRANCH   1  17
ATOM     16  O   UNL     1       6.770   4.140  13.187  0.00  0.00    +0.000 OA
ATOM     17  C   UNL     1       6.955   4.936  14.101  0.00  0.00    +0.000 C 
ATOM     18  N   UNL     1       8.043   5.776  14.144  0.00  0.00    +0.000 N 
ATOM     19  H   UNL     1       8.401   6.210  14.990  0.00  0.00    +0.000 HD
BRANCH  18  20
ATOM     20  O   UNL     1       8.970   5.631  13.087  0.00  0.00    +0.000 OA
ATOM     21  H   UNL     1       9.596   6.371  13.250  0.00  0.00    +0.000 HD
ENDBRANCH  18  20
ENDBRANCH   1  17
TORSDOF 3
ENDMDL
MODEL 7
REMARK VINA RESULT:      -6.8      1.903      2.205
REMARK  Name = 
REMARK  3 active torsions:
REMARK  status: ('A' for Active; 'I' for Inactive)
REMARK    1  A    between atoms: C_2  and  C_5
REMARK    2  A    between atoms: N_3  and  O_4
REMARK    3  A    between atoms: N_9  and  C_10
REMARK                            x       y       z     vdW  Elec       q    Type
REMARK                         _______ _______ _______ _____ _____    ______ ____
ROOT
ATOM      1  C   UNL     1       5.921   5.134  15.494  0.00  0.00    +0.000 A 
ATOM      2  C   UNL     1       5.374   6.367  15.766  0.00  0.00    +0.000 A 
ATOM      3  N   UNL     1       4.571   6.612  16.833  0.00  0.00    +0.000 NA
ATOM      4  C   UNL     1       4.298   5.574  17.639  0.00  0.00    +0.000 A 
ATOM      5  N   UNL     1       3.462   5.802  18.728  0.00  0.00    +0.000 N 
ATOM      6  N   UNL     1       4.815   4.345  17.454  0.00  0.00    +0.000 NA
ATOM      7  C   UNL     1       5.626   4.151  16.400  0.00  0.00    +0.000 A 
ATOM      8  H   UNL     1       3.244   6.781  18.841  0.00  0.00    +0.000 HD
ENDROOT
BRANCH   5   9
ATOM      9  C   UNL     1       2.677   4.875  19.429  0.00  0.00    +0.000 A 
ATOM     10  C   UNL     1       2.727   4.839  20.828  0.00  0.00    +0.000 A 
ATOM     11  C   UNL     1       2.027   3.862  21.547  0.00  0.00    +0.000 A 
ATOM     12  C   UNL     1       1.260   2.913  20.874  0.00  0.00    +0.000 A 
ATOM     13  C   UNL     1       1.196   2.944  19.486  0.00  0.00    +0.000 A 
ATOM     14 CL   UNL     1       0.249   1.782  18.640  0.00  0.00    +0.000 Cl
ATOM     15  C   UNL     1       1.902   3.910  18.770  0.00  0.00    +0.000 A 
ENDBRANCH   5   9
BRANCH   1  17
ATOM     16  O   UNL     1       6.576   4.003  13.550  0.00  0.00    +0.000 OA
ATOM     17  C   UNL     1       6.802   4.912  14.340  0.00  0.00    +0.000 C 
ATOM     18  N   UNL     1       7.879   5.758  14.211  0.00  0.00    +0.000 N 
ATOM     19  H   UNL     1       8.279   6.299  14.971  0.00  0.00    +0.000 HD
BRANCH  18  20
ATOM     20  O   UNL     1       8.746   5.483  13.129  0.00  0.00    +0.000 OA
ATOM     21  H   UNL     1       9.106   4.599  13.362  0.00  0.00    +0.000 HD
ENDBRANCH  18  20
ENDBRANCH   1  17
TORSDOF 3
ENDMDL
MODEL 8
REMARK VINA RESULT:      -6.7      2.288      2.995
REMARK  Name = 
REMARK  3 active torsions:
REMARK  status: ('A' for Active; 'I' for Inactive)
REMARK    1  A    between atoms: C_2  and  C_5
REMARK    2  A    between atoms: N_3  and  O_4
REMARK    3  A    between atoms: N_9  and  C_10
REMARK                            x       y       z     vdW  Elec       q    Type
REMARK                         _______ _______ _______ _____ _____    ______ ____
ROOT
ATOM      1  C   UNL     1       6.417   4.144  13.725  0.00  0.00    +0.000 A 
ATOM      2  C   UNL     1       7.366   4.980  14.267  0.00  0.00    +0.000 A 
ATOM      3  N   UNL     1       7.240   5.570  15.483  0.00  0.00    +0.000 NA
ATOM      4  C   UNL     1       6.112   5.322  16.165  0.00  0.00    +0.000 A 
ATOM      5  N   UNL     1       5.957   5.932  17.406  0.00  0.00    +0.000 N 
ATOM      6  N   UNL     1       5.148   4.496  15.715  0.00  0.00    +0.000 NA
ATOM      7  C   UNL     1       5.324   3.912  14.517  0.00  0.00    +0.000 A 
ATOM      8  H   UNL     1       6.793   6.419  17.697  0.00  0.00    +0.000 HD
ENDROOT
BRANCH   5   9
ATOM      9  C   UNL     1       4.768   6.214  18.093  0.00  0.00    +0.000 A 
ATOM     10  C   UNL     1       4.386   5.416  19.178  0.00  0.00    +0.000 A 
ATOM     11  C   UNL     1       3.158   5.617  19.820  0.00  0.00    +0.000 A 
ATOM     12  C   UNL     1       2.299   6.627  19.390  0.00  0.00    +0.000 A 
ATOM     13  C   UNL     1       2.672   7.431  18.318  0.00  0.00    +0.000 A 
ATOM     14 CL   UNL     1       1.625   8.686  17.777  0.00  0.00    +0.000 Cl
ATOM     15  C   UNL     1       3.889   7.223  17.672  0.00  0.00    +0.000 A 
ENDBRANCH   5   9
BRANCH   1  17
ATOM     16  O   UNL     1       7.246   4.065  11.536  0.00  0.00    +0.000 OA
ATOM     17  C   UNL     1       6.597   3.508  12.415  0.00  0.00    +0.000 C 
ATOM     18  N   UNL     1       5.997   2.284  12.232  0.00  0.00    +0.000 N 
ATOM     19  H   UNL     1       5.220   1.937  12.786  0.00  0.00    +0.000 HD
BRANCH  18  20
ATOM     20  O   UNL     1       6.133   1.723  10.942  0.00  0.00    +0.000 OA
ATOM     21  H   UNL     1       6.804   1.019  11.085  0.00  0.00    +0.000 HD
ENDBRANCH  18  20
ENDBRANCH   1  17
TORSDOF 3
ENDMDL
MODEL 9
REMARK VINA RESULT:      -6.7      5.979      7.437
REMARK  Name = 
REMARK  3 active torsions:
REMARK  status: ('A' for Active; 'I' for Inactive)
REMARK    1  A    between atoms: C_2  and  C_5
REMARK    2  A    between atoms: N_3  and  O_4
REMARK    3  A    between atoms: N_9  and  C_10
REMARK                            x       y       z     vdW  Elec       q    Type
REMARK                         _______ _______ _______ _____ _____    ______ ____
ROOT
ATOM      1  C   UNL     1       0.683   9.979  19.181  0.00  0.00    +0.000 A 
ATOM      2  C   UNL     1       0.668   9.309  20.383  0.00  0.00    +0.000 A 
ATOM      3  N   UNL     1       1.385   8.181  20.621  0.00  0.00    +0.000 NA
ATOM      4  C   UNL     1       2.125   7.705  19.608  0.00  0.00    +0.000 A 
ATOM      5  N   UNL     1       2.853   6.540  19.829  0.00  0.00    +0.000 N 
ATOM      6  N   UNL     1       2.212   8.317  18.412  0.00  0.00    +0.000 NA
ATOM      7  C   UNL     1       1.506   9.446  18.225  0.00  0.00    +0.000 A 
ATOM      8  H   UNL     1       2.816   6.247  20.794  0.00  0.00    +0.000 HD
ENDROOT
BRANCH   5   9
ATOM      9  C   UNL     1       3.316   5.614  18.884  0.00  0.00    +0.000 A 
ATOM     10  C   UNL     1       2.431   4.675  18.340  0.00  0.00    +0.000 A 
ATOM     11  C   UNL     1       2.888   3.678  17.468  0.00  0.00    +0.000 A 
ATOM     12  C   UNL     1       4.237   3.616  17.122  0.00  0.00    +0.000 A 
ATOM     13  C   UNL     1       5.123   4.547  17.649  0.00  0.00    +0.000 A 
ATOM     14 CL   UNL     1       6.791   4.486  17.228  0.00  0.00    +0.000 Cl
ATOM     15  C   UNL     1       4.670   5.531  18.526  0.00  0.00    +0.000 A 
ENDBRANCH   5   9
BRANCH   1  17
ATOM     16  O   UNL     1      -0.199  12.041  19.859  0.00  0.00    +0.000 OA
ATOM     17  C   UNL     1      -0.091  11.208  18.966  0.00  0.00    +0.000 C 
ATOM     18  N   UNL     1      -0.685  11.359  17.735  0.00  0.00    +0.000 N 
ATOM     19  H   UNL     1      -0.888  10.595  17.097  0.00  0.00    +0.000 HD
BRANCH  18  20
ATOM     20  O   UNL     1      -1.476  12.520  17.575  0.00  0.00    +0.000 OA
ATOM     21  H   UNL     1      -1.123  12.905  16.743  0.00  0.00    +0.000 HD
ENDBRANCH  18  20
ENDBRANCH   1  17
TORSDOF 3
ENDMDL
