MODEL 1
REMARK VINA RESULT:      -7.9      0.000      0.000
REMARK  Name = 
REMARK  6 active torsions:
REMARK  status: ('A' for Active; 'I' for Inactive)
REMARK    1  A    between atoms: C_1  and  C_2
REMARK    2  A    between atoms: C_4  and  O_5
REMARK    3  A    between atoms: O_5  and  C_6
REMARK    4  A    between atoms: C_6  and  C_8
REMARK    5  A    between atoms: C_15  and  C_16
REMARK    6  A    between atoms: C_15  and  C_17
REMARK                            x       y       z     vdW  Elec       q    Type
REMARK                         _______ _______ _______ _____ _____    ______ ____
ROOT
ATOM      1  O   UNL     1       5.543   3.640  18.929  0.00  0.00    +0.000 OA
ENDROOT
BRANCH   1   5
ATOM      2  C   UNL     1       1.379   4.482  17.439  0.00  0.00    +0.000 C 
ATOM      3  C   UNL     1       1.914   3.123  17.895  0.00  0.00    +0.000 C 
ATOM      4  C   UNL     1       3.444   3.061  17.826  0.00  0.00    +0.000 C 
ATOM      5  C   UNL     1       4.115   3.802  18.987  0.00  0.00    +0.000 C 
ATOM      6  C   UNL     1       3.635   3.228  20.327  0.00  0.00    +0.000 C 
ATOM      7  C   UNL     1       2.105   3.323  20.506  0.00  0.00    +0.000 C 
ATOM      8  C   UNL     1       1.672   4.784  20.736  0.00  0.00    +0.000 C 
ATOM      9  C   UNL     1       1.691   2.535  21.767  0.00  0.00    +0.000 C 
ATOM     10  C   UNL     1       1.397   2.694  19.280  0.00  0.00    +0.000 C 
ENDBRANCH   1   5
BRANCH   1  11
ATOM     11  C   UNL     1       6.268   4.794  18.880  0.00  0.00    +0.000 C 
ATOM     12  O   UNL     1       6.679   5.413  19.855  0.00  0.00    +0.000 OA
BRANCH  11  13
ATOM     13  C   UNL     1       6.553   5.214  17.437  0.00  0.00    +0.000 C 
ATOM     14  C   UNL     1       5.400   6.001  16.831  0.00  0.00    +0.000 C 
ATOM     15  C   UNL     1       5.517   5.730  15.333  0.00  0.00    +0.000 C 
ATOM     16  C   UNL     1       6.126   4.353  15.297  0.00  0.00    +0.000 C 
ATOM     17  O   UNL     1       6.137   3.588  14.350  0.00  0.00    +0.000 OA
ATOM     18  N   UNL     1       6.718   4.121  16.513  0.00  0.00    +0.000 N 
ATOM     19  H   UNL     1       7.174   3.242  16.729  0.00  0.00    +0.000 HD
ENDBRANCH  11  13
ENDBRANCH   1  11
TORSDOF 3
ENDMDL
MODEL 2
REMARK VINA RESULT:      -7.7      1.449      2.204
REMARK  Name = 
REMARK  6 active torsions:
REMARK  status: ('A' for Active; 'I' for Inactive)
REMARK    1  A    between atoms: C_1  and  C_2
REMARK    2  A    between atoms: C_4  and  O_5
REMARK    3  A    between atoms: O_5  and  C_6
REMARK    4  A    between atoms: C_6  and  C_8
REMARK    5  A    between atoms: C_15  and  C_16
REMARK    6  A    between atoms: C_15  and  C_17
REMARK                            x       y       z     vdW  Elec       q    Type
REMARK                         _______ _______ _______ _____ _____    ______ ____
ROOT
ATOM      1  O   UNL     1       5.968   5.244  18.728  0.00  0.00    +0.000 OA
ENDROOT
BRANCH   1   5
ATOM      2  C   UNL     1       3.209   1.716  18.283  0.00  0.00    +0.000 C 
ATOM      3  C   UNL     1       3.633   2.365  19.602  0.00  0.00    +0.000 C 
ATOM      4  C   UNL     1       4.938   3.154  19.453  0.00  0.00    +0.000 C 
ATOM      5  C   UNL     1       4.734   4.505  18.763  0.00  0.00    +0.000 C 
ATOM      6  C   UNL     1       3.710   5.345  19.539  0.00  0.00    +0.000 C 
ATOM      7  C   UNL     1       2.339   4.649  19.667  0.00  0.00    +0.000 C 
ATOM      8  C   UNL     1       1.608   4.629  18.311  0.00  0.00    +0.000 C 
ATOM      9  C   UNL     1       1.449   5.454  20.637  0.00  0.00    +0.000 C 
ATOM     10  C   UNL     1       2.529   3.224  20.245  0.00  0.00    +0.000 C 
ENDBRANCH   1   5
BRANCH   1  11
ATOM     11  C   UNL     1       6.868   4.847  17.784  0.00  0.00    +0.000 C 
ATOM     12  O   UNL     1       7.959   4.339  18.017  0.00  0.00    +0.000 OA
BRANCH  11  13
ATOM     13  C   UNL     1       6.333   5.074  16.370  0.00  0.00    +0.000 C 
ATOM     14  C   UNL     1       5.976   3.768  15.675  0.00  0.00    +0.000 C 
ATOM     15  C   UNL     1       6.146   4.082  14.191  0.00  0.00    +0.000 C 
ATOM     16  C   UNL     1       7.225   5.133  14.200  0.00  0.00    +0.000 C 
ATOM     17  O   UNL     1       7.911   5.479  13.256  0.00  0.00    +0.000 OA
ATOM     18  N   UNL     1       7.273   5.678  15.459  0.00  0.00    +0.000 N 
ATOM     19  H   UNL     1       7.946   6.393  15.710  0.00  0.00    +0.000 HD
ENDBRANCH  11  13
ENDBRANCH   1  11
TORSDOF 3
ENDMDL
MODEL 3
REMARK VINA RESULT:      -7.7      2.483      5.708
REMARK  Name = 
REMARK  6 active torsions:
REMARK  status: ('A' for Active; 'I' for Inactive)
REMARK    1  A    between atoms: C_1  and  C_2
REMARK    2  A    between atoms: C_4  and  O_5
REMARK    3  A    between atoms: O_5  and  C_6
REMARK    4  A    between atoms: C_6  and  C_8
REMARK    5  A    between atoms: C_15  and  C_16
REMARK    6  A    between atoms: C_15  and  C_17
REMARK                            x       y       z     vdW  Elec       q    Type
REMARK                         _______ _______ _______ _____ _____    ______ ____
ROOT
ATOM      1  O   UNL     1       4.130   5.166  19.740  0.00  0.00    +0.000 OA
ENDROOT
BRANCH   1   5
ATOM      2  C   UNL     1       7.633   7.219  17.797  0.00  0.00    +0.000 C 
ATOM      3  C   UNL     1       7.538   5.730  18.137  0.00  0.00    +0.000 C 
ATOM      4  C   UNL     1       6.498   5.462  19.230  0.00  0.00    +0.000 C 
ATOM      5  C   UNL     1       5.062   5.512  18.700  0.00  0.00    +0.000 C 
ATOM      6  C   UNL     1       4.885   4.500  17.560  0.00  0.00    +0.000 C 
ATOM      7  C   UNL     1       5.850   4.751  16.382  0.00  0.00    +0.000 C 
ATOM      8  C   UNL     1       5.444   6.017  15.604  0.00  0.00    +0.000 C 
ATOM      9  C   UNL     1       5.756   3.572  15.390  0.00  0.00    +0.000 C 
ATOM     10  C   UNL     1       7.305   4.834  16.908  0.00  0.00    +0.000 C 
ENDBRANCH   1   5
BRANCH   1  11
ATOM     11  C   UNL     1       2.929   5.811  19.696  0.00  0.00    +0.000 C 
ATOM     12  O   UNL     1       2.764   6.978  19.359  0.00  0.00    +0.000 OA
BRANCH  11  13
ATOM     13  C   UNL     1       1.780   4.879  20.084  0.00  0.00    +0.000 C 
ATOM     14  C   UNL     1       2.232   3.774  21.028  0.00  0.00    +0.000 C 
ATOM     15  C   UNL     1       1.254   2.634  20.754  0.00  0.00    +0.000 C 
ATOM     16  C   UNL     1       0.899   2.848  19.306  0.00  0.00    +0.000 C 
ATOM     17  O   UNL     1       0.393   2.035  18.554  0.00  0.00    +0.000 OA
ATOM     18  N   UNL     1       1.201   4.148  18.985  0.00  0.00    +0.000 N 
ATOM     19  H   UNL     1       1.069   4.515  18.050  0.00  0.00    +0.000 HD
ENDBRANCH  11  13
ENDBRANCH   1  11
TORSDOF 3
ENDMDL
MODEL 4
REMARK VINA RESULT:      -7.3      1.162      1.692
REMARK  Name = 
REMARK  6 active torsions:
REMARK  status: ('A' for Active; 'I' for Inactive)
REMARK    1  A    between atoms: C_1  and  C_2
REMARK    2  A    between atoms: C_4  and  O_5
REMARK    3  A    between atoms: O_5  and  C_6
REMARK    4  A    between atoms: C_6  and  C_8
REMARK    5  A    between atoms: C_15  and  C_16
REMARK    6  A    between atoms: C_15  and  C_17
REMARK                            x       y       z     vdW  Elec       q    Type
REMARK                         _______ _______ _______ _____ _____    ______ ____
ROOT
ATOM      1  O   UNL     1       5.552   3.822  19.035  0.00  0.00    +0.000 OA
ENDROOT
BRANCH   1   5
ATOM      2  C   UNL     1       2.329   6.947  19.368  0.00  0.00    +0.000 C 
ATOM      3  C   UNL     1       2.504   5.954  18.217  0.00  0.00    +0.000 C 
ATOM      4  C   UNL     1       3.938   5.419  18.140  0.00  0.00    +0.000 C 
ATOM      5  C   UNL     1       4.227   4.356  19.204  0.00  0.00    +0.000 C 
ATOM      6  C   UNL     1       3.235   3.193  19.071  0.00  0.00    +0.000 C 
ATOM      7  C   UNL     1       1.765   3.641  19.214  0.00  0.00    +0.000 C 
ATOM      8  C   UNL     1       1.449   4.019  20.673  0.00  0.00    +0.000 C 
ATOM      9  C   UNL     1       0.838   2.461  18.852  0.00  0.00    +0.000 C 
ATOM     10  C   UNL     1       1.478   4.807  18.236  0.00  0.00    +0.000 C 
ENDBRANCH   1   5
BRANCH   1  11
ATOM     11  C   UNL     1       6.554   4.742  18.946  0.00  0.00    +0.000 C 
ATOM     12  O   UNL     1       6.910   5.491  19.849  0.00  0.00    +0.000 OA
BRANCH  11  13
ATOM     13  C   UNL     1       7.228   4.704  17.574  0.00  0.00    +0.000 C 
ATOM     14  C   UNL     1       7.132   6.040  16.851  0.00  0.00    +0.000 C 
ATOM     15  C   UNL     1       7.186   5.663  15.372  0.00  0.00    +0.000 C 
ATOM     16  C   UNL     1       6.563   4.292  15.361  0.00  0.00    +0.000 C 
ATOM     17  O   UNL     1       6.113   3.706  14.394  0.00  0.00    +0.000 OA
ATOM     18  N   UNL     1       6.632   3.787  16.635  0.00  0.00    +0.000 N 
ATOM     19  H   UNL     1       6.249   2.879  16.875  0.00  0.00    +0.000 HD
ENDBRANCH  11  13
ENDBRANCH   1  11
TORSDOF 3
ENDMDL
MODEL 5
REMARK VINA RESULT:      -7.2      1.112      1.355
REMARK  Name = 
REMARK  6 active torsions:
REMARK  status: ('A' for Active; 'I' for Inactive)
REMARK    1  A    between atoms: C_1  and  C_2
REMARK    2  A    between atoms: C_4  and  O_5
REMARK    3  A    between atoms: O_5  and  C_6
REMARK    4  A    between atoms: C_6  and  C_8
REMARK    5  A    between atoms: C_15  and  C_16
REMARK    6  A    between atoms: C_15  and  C_17
REMARK                            x       y       z     vdW  Elec       q    Type
REMARK                         _______ _______ _______ _____ _____    ______ ____
ROOT
ATOM      1  O   UNL     1       5.370   3.396  18.249  0.00  0.00    +0.000 OA
ENDROOT
BRANCH   1   5
ATOM      2  C   UNL     1       1.143   4.782  17.561  0.00  0.00    +0.000 C 
ATOM      3  C   UNL     1       1.577   3.356  17.904  0.00  0.00    +0.000 C 
ATOM      4  C   UNL     1       3.048   3.109  17.553  0.00  0.00    +0.000 C 
ATOM      5  C   UNL     1       4.008   3.730  18.572  0.00  0.00    +0.000 C 
ATOM      6  C   UNL     1       3.715   3.183  19.976  0.00  0.00    +0.000 C 
ATOM      7  C   UNL     1       2.267   3.460  20.435  0.00  0.00    +0.000 C 
ATOM      8  C   UNL     1       2.071   4.955  20.748  0.00  0.00    +0.000 C 
ATOM      9  C   UNL     1       1.997   2.694  21.747  0.00  0.00    +0.000 C 
ATOM     10  C   UNL     1       1.273   2.956  19.359  0.00  0.00    +0.000 C 
ENDBRANCH   1   5
BRANCH   1  11
ATOM     11  C   UNL     1       6.162   4.440  17.872  0.00  0.00    +0.000 C 
ATOM     12  O   UNL     1       6.980   5.003  18.591  0.00  0.00    +0.000 OA
BRANCH  11  13
ATOM     13  C   UNL     1       5.939   4.809  16.405  0.00  0.00    +0.000 C 
ATOM     14  C   UNL     1       5.854   3.580  15.511  0.00  0.00    +0.000 C 
ATOM     15  C   UNL     1       6.325   4.082  14.148  0.00  0.00    +0.000 C 
ATOM     16  C   UNL     1       7.286   5.181  14.519  0.00  0.00    +0.000 C 
ATOM     17  O   UNL     1       8.135   5.676  13.801  0.00  0.00    +0.000 OA
ATOM     18  N   UNL     1       7.007   5.569  15.806  0.00  0.00    +0.000 N 
ATOM     19  H   UNL     1       7.547   6.284  16.280  0.00  0.00    +0.000 HD
ENDBRANCH  11  13
ENDBRANCH   1  11
TORSDOF 3
ENDMDL
MODEL 6
REMARK VINA RESULT:      -7.2      3.467      5.120
REMARK  Name = 
REMARK  6 active torsions:
REMARK  status: ('A' for Active; 'I' for Inactive)
REMARK    1  A    between atoms: C_1  and  C_2
REMARK    2  A    between atoms: C_4  and  O_5
REMARK    3  A    between atoms: O_5  and  C_6
REMARK    4  A    between atoms: C_6  and  C_8
REMARK    5  A    between atoms: C_15  and  C_16
REMARK    6  A    between atoms: C_15  and  C_17
REMARK                            x       y       z     vdW  Elec       q    Type
REMARK                         _______ _______ _______ _____ _____    ______ ____
ROOT
ATOM      1  O   UNL     1       6.528   4.027  14.708  0.00  0.00    +0.000 OA
ENDROOT
BRANCH   1   5
ATOM      2  C   UNL     1       4.103   6.917  17.163  0.00  0.00    +0.000 C 
ATOM      3  C   UNL     1       4.536   5.514  17.593  0.00  0.00    +0.000 C 
ATOM      4  C   UNL     1       4.862   4.626  16.388  0.00  0.00    +0.000 C 
ATOM      5  C   UNL     1       6.229   4.944  15.775  0.00  0.00    +0.000 C 
ATOM      6  C   UNL     1       7.330   4.800  16.835  0.00  0.00    +0.000 C 
ATOM      7  C   UNL     1       7.112   5.723  18.053  0.00  0.00    +0.000 C 
ATOM      8  C   UNL     1       7.375   7.194  17.677  0.00  0.00    +0.000 C 
ATOM      9  C   UNL     1       8.131   5.359  19.154  0.00  0.00    +0.000 C 
ATOM     10  C   UNL     1       5.685   5.514  18.618  0.00  0.00    +0.000 C 
ENDBRANCH   1   5
BRANCH   1  11
ATOM     11  C   UNL     1       7.096   4.577  13.597  0.00  0.00    +0.000 C 
ATOM     12  O   UNL     1       8.002   5.402  13.600  0.00  0.00    +0.000 OA
BRANCH  11  13
ATOM     13  C   UNL     1       6.488   4.003  12.316  0.00  0.00    +0.000 C 
ATOM     14  C   UNL     1       4.979   3.834  12.423  0.00  0.00    +0.000 C 
ATOM     15  C   UNL     1       4.667   2.692  11.459  0.00  0.00    +0.000 C 
ATOM     16  C   UNL     1       5.931   1.874  11.502  0.00  0.00    +0.000 C 
ATOM     17  O   UNL     1       6.062   0.718  11.141  0.00  0.00    +0.000 OA
ATOM     18  N   UNL     1       6.938   2.676  11.979  0.00  0.00    +0.000 N 
ATOM     19  H   UNL     1       7.880   2.330  12.118  0.00  0.00    +0.000 HD
ENDBRANCH  11  13
ENDBRANCH   1  11
TORSDOF 3
ENDMDL
MODEL 7
REMARK VINA RESULT:      -7.2      1.861      3.126
REMARK  Name = 
REMARK  6 active torsions:
REMARK  status: ('A' for Active; 'I' for Inactive)
REMARK    1  A    between atoms: C_1  and  C_2
REMARK    2  A    between atoms: C_4  and  O_5
REMARK    3  A    between atoms: O_5  and  C_6
REMARK    4  A    between atoms: C_6  and  C_8
REMARK    5  A    between atoms: C_15  and  C_16
REMARK    6  A    between atoms: C_15  and  C_17
REMARK                            x       y       z     vdW  Elec       q    Type
REMARK                         _______ _______ _______ _____ _____    ______ ____
ROOT
ATOM      1  O   UNL     1       5.859   3.844  18.630  0.00  0.00    +0.000 OA
ENDROOT
BRANCH   1   5
ATOM      2  C   UNL     1       1.751   2.085  19.171  0.00  0.00    +0.000 C 
ATOM      3  C   UNL     1       2.536   2.876  20.220  0.00  0.00    +0.000 C 
ATOM      4  C   UNL     1       4.041   2.864  19.931  0.00  0.00    +0.000 C 
ATOM      5  C   UNL     1       4.431   3.824  18.803  0.00  0.00    +0.000 C 
ATOM      6  C   UNL     1       3.982   5.251  19.144  0.00  0.00    +0.000 C 
ATOM      7  C   UNL     1       2.460   5.360  19.376  0.00  0.00    +0.000 C 
ATOM      8  C   UNL     1       1.694   5.213  18.048  0.00  0.00    +0.000 C 
ATOM      9  C   UNL     1       2.130   6.765  19.923  0.00  0.00    +0.000 C 
ATOM     10  C   UNL     1       2.015   4.310  20.424  0.00  0.00    +0.000 C 
ENDBRANCH   1   5
BRANCH   1  11
ATOM     11  C   UNL     1       6.302   4.257  17.409  0.00  0.00    +0.000 C 
ATOM     12  O   UNL     1       5.827   3.916  16.331  0.00  0.00    +0.000 OA
BRANCH  11  13
ATOM     13  C   UNL     1       7.456   5.251  17.539  0.00  0.00    +0.000 C 
ATOM     14  C   UNL     1       7.677   5.688  18.981  0.00  0.00    +0.000 C 
ATOM     15  C   UNL     1       8.296   7.077  18.853  0.00  0.00    +0.000 C 
ATOM     16  C   UNL     1       7.700   7.585  17.566  0.00  0.00    +0.000 C 
ATOM     17  O   UNL     1       7.652   8.743  17.195  0.00  0.00    +0.000 OA
ATOM     18  N   UNL     1       7.257   6.501  16.851  0.00  0.00    +0.000 N 
ATOM     19  H   UNL     1       6.793   6.602  15.955  0.00  0.00    +0.000 HD
ENDBRANCH  11  13
ENDBRANCH   1  11
TORSDOF 3
ENDMDL
MODEL 8
REMARK VINA RESULT:      -7.1      1.155      1.327
REMARK  Name = 
REMARK  6 active torsions:
REMARK  status: ('A' for Active; 'I' for Inactive)
REMARK    1  A    between atoms: C_1  and  C_2
REMARK    2  A    between atoms: C_4  and  O_5
REMARK    3  A    between atoms: O_5  and  C_6
REMARK    4  A    between atoms: C_6  and  C_8
REMARK    5  A    between atoms: C_15  and  C_16
REMARK    6  A    between atoms: C_15  and  C_17
REMARK                            x       y       z     vdW  Elec       q    Type
REMARK                         _______ _______ _______ _____ _____    ______ ____
ROOT
ATOM      1  O   UNL     1       5.312   3.435  19.438  0.00  0.00    +0.000 OA
ENDROOT
BRANCH   1   5
ATOM      2  C   UNL     1       1.331   4.079  17.440  0.00  0.00    +0.000 C 
ATOM      3  C   UNL     1       1.816   2.777  18.080  0.00  0.00    +0.000 C 
ATOM      4  C   UNL     1       3.344   2.728  18.180  0.00  0.00    +0.000 C 
ATOM      5  C   UNL     1       3.886   3.585  19.329  0.00  0.00    +0.000 C 
ATOM      6  C   UNL     1       3.266   3.137  20.660  0.00  0.00    +0.000 C 
ATOM      7  C   UNL     1       1.726   3.229  20.664  0.00  0.00    +0.000 C 
ATOM      8  C   UNL     1       1.268   4.700  20.705  0.00  0.00    +0.000 C 
ATOM      9  C   UNL     1       1.181   2.561  21.944  0.00  0.00    +0.000 C 
ATOM     10  C   UNL     1       1.154   2.476  19.437  0.00  0.00    +0.000 C 
ENDBRANCH   1   5
BRANCH   1  11
ATOM     11  C   UNL     1       6.057   4.408  18.840  0.00  0.00    +0.000 C 
ATOM     12  O   UNL     1       6.817   5.175  19.420  0.00  0.00    +0.000 OA
BRANCH  11  13
ATOM     13  C   UNL     1       5.864   4.406  17.323  0.00  0.00    +0.000 C 
ATOM     14  C   UNL     1       7.186   4.502  16.576  0.00  0.00    +0.000 C 
ATOM     15  C   UNL     1       6.814   5.164  15.251  0.00  0.00    +0.000 C 
ATOM     16  C   UNL     1       5.633   6.017  15.633  0.00  0.00    +0.000 C 
ATOM     17  O   UNL     1       5.176   6.951  14.999  0.00  0.00    +0.000 OA
ATOM     18  N   UNL     1       5.120   5.528  16.808  0.00  0.00    +0.000 N 
ATOM     19  H   UNL     1       4.331   5.962  17.272  0.00  0.00    +0.000 HD
ENDBRANCH  11  13
ENDBRANCH   1  11
TORSDOF 3
ENDMDL
MODEL 9
REMARK VINA RESULT:      -7.1      2.366      5.941
REMARK  Name = 
REMARK  6 active torsions:
REMARK  status: ('A' for Active; 'I' for Inactive)
REMARK    1  A    between atoms: C_1  and  C_2
REMARK    2  A    between atoms: C_4  and  O_5
REMARK    3  A    between atoms: O_5  and  C_6
REMARK    4  A    between atoms: C_6  and  C_8
REMARK    5  A    between atoms: C_15  and  C_16
REMARK    6  A    between atoms: C_15  and  C_17
REMARK                            x       y       z     vdW  Elec       q    Type
REMARK                         _______ _______ _______ _____ _____    ______ ____
ROOT
ATOM      1  O   UNL     1       4.313   5.106  19.429  0.00  0.00    +0.000 OA
ENDROOT
BRANCH   1   5
ATOM      2  C   UNL     1       7.490   7.682  17.553  0.00  0.00    +0.000 C 
ATOM      3  C   UNL     1       7.495   6.154  17.619  0.00  0.00    +0.000 C 
ATOM      4  C   UNL     1       6.595   5.631  18.744  0.00  0.00    +0.000 C 
ATOM      5  C   UNL     1       5.108   5.689  18.382  0.00  0.00    +0.000 C 
ATOM      6  C   UNL     1       4.846   4.890  17.098  0.00  0.00    +0.000 C 
ATOM      7  C   UNL     1       5.663   5.406  15.895  0.00  0.00    +0.000 C 
ATOM      8  C   UNL     1       5.121   6.765  15.410  0.00  0.00    +0.000 C 
ATOM      9  C   UNL     1       5.507   4.422  14.716  0.00  0.00    +0.000 C 
ATOM     10  C   UNL     1       7.162   5.481  16.276  0.00  0.00    +0.000 C 
ENDBRANCH   1   5
BRANCH   1  11
ATOM     11  C   UNL     1       4.382   3.748  19.540  0.00  0.00    +0.000 C 
ATOM     12  O   UNL     1       5.416   3.090  19.535  0.00  0.00    +0.000 OA
BRANCH  11  13
ATOM     13  C   UNL     1       2.994   3.131  19.716  0.00  0.00    +0.000 C 
ATOM     14  C   UNL     1       1.885   4.164  19.578  0.00  0.00    +0.000 C 
ATOM     15  C   UNL     1       0.746   3.596  20.423  0.00  0.00    +0.000 C 
ATOM     16  C   UNL     1       1.481   2.818  21.483  0.00  0.00    +0.000 C 
ATOM     17  O   UNL     1       1.031   2.439  22.548  0.00  0.00    +0.000 OA
ATOM     18  N   UNL     1       2.748   2.565  21.019  0.00  0.00    +0.000 N 
ATOM     19  H   UNL     1       3.436   2.073  21.577  0.00  0.00    +0.000 HD
ENDBRANCH  11  13
ENDBRANCH   1  11
TORSDOF 3
ENDMDL
