MODEL 1
REMARK VINA RESULT:      -8.4      0.000      0.000
REMARK  Name = 
REMARK  8 active torsions:
REMARK  status: ('A' for Active; 'I' for Inactive)
REMARK    1  A    between atoms: C_1  and  O_2
REMARK    2  A    between atoms: O_2  and  C_3
REMARK    3  A    between atoms: C_6  and  C_7
REMARK    4  A    between atoms: C_7  and  C_8
REMARK    5  A    between atoms: C_13  and  C_14
REMARK    6  A    between atoms: C_14  and  C_15
REMARK    7  A    between atoms: C_25  and  O_26
REMARK    8  A    between atoms: O_26  and  C_27
REMARK                            x       y       z     vdW  Elec       q    Type
REMARK                         _______ _______ _______ _____ _____    ______ ____
ROOT
ATOM      1  C   UNL     1       1.778   4.619  19.494  0.00  0.00    +0.000 C 
ATOM      2  C   UNL     1       0.961   3.599  20.260  0.00  0.00    +0.000 C 
ATOM      3  O   UNL     1       1.189   2.347  19.632  0.00  0.00    +0.000 OA
ATOM      4  C   UNL     1       2.354   2.376  18.948  0.00  0.00    +0.000 C 
ATOM      5  O   UNL     1       2.910   1.370  18.535  0.00  0.00    +0.000 OA
ATOM      6  C   UNL     1       2.875   3.798  18.817  0.00  0.00    +0.000 C 
ENDROOT
BRANCH   1   7
ATOM      7  C   UNL     1       2.363   5.710  20.394  0.00  0.00    +0.000 C 
BRANCH   7  11
ATOM      8  C   UNL     1       1.114   9.653  19.153  0.00  0.00    +0.000 A 
ATOM      9  C   UNL     1       1.847   8.826  18.284  0.00  0.00    +0.000 A 
ATOM     10  C   UNL     1       2.271   7.559  18.689  0.00  0.00    +0.000 A 
ATOM     11  C   UNL     1       2.003   7.110  19.981  0.00  0.00    +0.000 A 
ATOM     12  C   UNL     1       1.346   7.971  20.869  0.00  0.00    +0.000 A 
ATOM     13  C   UNL     1       0.907   9.243  20.477  0.00  0.00    +0.000 A 
BRANCH   8  15
ATOM     14  C   UNL     1      -0.733  10.913  18.368  0.00  0.00    +0.000 C 
ATOM     15  O   UNL     1       0.648  10.867  18.730  0.00  0.00    +0.000 OA
ENDBRANCH   8  15
BRANCH  13  16
ATOM     16  O   UNL     1       0.289   9.909  21.502  0.00  0.00    +0.000 OA
ATOM     17  C   UNL     1      -0.289   9.159  22.559  0.00  0.00    +0.000 C 
ENDBRANCH  13  16
ENDBRANCH   7  11
ENDBRANCH   1   7
BRANCH   6  18
ATOM     18  C   UNL     1       3.112   4.285  17.376  0.00  0.00    +0.000 C 
BRANCH  18  19
ATOM     19  C   UNL     1       4.486   4.883  17.203  0.00  0.00    +0.000 A 
ATOM     20  C   UNL     1       4.648   6.140  16.574  0.00  0.00    +0.000 A 
ATOM     21  C   UNL     1       5.819   6.878  16.758  0.00  0.00    +0.000 A 
ATOM     22  C   UNL     1       6.776   6.342  17.590  0.00  0.00    +0.000 A 
ATOM     23  C   UNL     1       6.661   5.073  18.116  0.00  0.00    +0.000 A 
ATOM     24  C   UNL     1       5.556   4.291  17.893  0.00  0.00    +0.000 A 
ATOM     25  O   UNL     1       7.665   4.783  18.989  0.00  0.00    +0.000 OA
ATOM     26  C   UNL     1       8.152   6.122  19.210  0.00  0.00    +0.000 C 
ATOM     27  O   UNL     1       7.858   6.998  18.101  0.00  0.00    +0.000 OA
ENDBRANCH  18  19
ENDBRANCH   6  18
TORSDOF 6
ENDMDL
MODEL 2
REMARK VINA RESULT:      -8.3      2.026      6.593
REMARK  Name = 
REMARK  8 active torsions:
REMARK  status: ('A' for Active; 'I' for Inactive)
REMARK    1  A    between atoms: C_1  and  O_2
REMARK    2  A    between atoms: O_2  and  C_3
REMARK    3  A    between atoms: C_6  and  C_7
REMARK    4  A    between atoms: C_7  and  C_8
REMARK    5  A    between atoms: C_13  and  C_14
REMARK    6  A    between atoms: C_14  and  C_15
REMARK    7  A    between atoms: C_25  and  O_26
REMARK    8  A    between atoms: O_26  and  C_27
REMARK                            x       y       z     vdW  Elec       q    Type
REMARK                         _______ _______ _______ _____ _____    ______ ____
ROOT
ATOM      1  C   UNL     1       4.036   3.537  18.720  0.00  0.00    +0.000 C 
ATOM      2  C   UNL     1       3.914   2.156  19.330  0.00  0.00    +0.000 C 
ATOM      3  O   UNL     1       3.322   2.331  20.608  0.00  0.00    +0.000 OA
ATOM      4  C   UNL     1       2.643   3.500  20.649  0.00  0.00    +0.000 C 
ATOM      5  O   UNL     1       1.839   3.773  21.526  0.00  0.00    +0.000 OA
ATOM      6  C   UNL     1       2.984   4.370  19.451  0.00  0.00    +0.000 C 
ENDROOT
BRANCH   1   7
ATOM      7  C   UNL     1       3.808   3.540  17.206  0.00  0.00    +0.000 C 
BRANCH   7  11
ATOM      8  C   UNL     1       7.054   5.094  14.821  0.00  0.00    +0.000 A 
ATOM      9  C   UNL     1       6.298   3.997  14.374  0.00  0.00    +0.000 A 
ATOM     10  C   UNL     1       5.261   3.478  15.153  0.00  0.00    +0.000 A 
ATOM     11  C   UNL     1       4.985   4.021  16.406  0.00  0.00    +0.000 A 
ATOM     12  C   UNL     1       5.797   5.060  16.882  0.00  0.00    +0.000 A 
ATOM     13  C   UNL     1       6.837   5.597  16.111  0.00  0.00    +0.000 A 
BRANCH   8  15
ATOM     14  C   UNL     1       7.972   5.284  12.645  0.00  0.00    +0.000 C 
ATOM     15  O   UNL     1       8.028   5.637  14.028  0.00  0.00    +0.000 OA
ENDBRANCH   8  15
BRANCH  13  16
ATOM     16  O   UNL     1       7.495   6.602  16.770  0.00  0.00    +0.000 OA
ATOM     17  C   UNL     1       7.607   6.538  18.183  0.00  0.00    +0.000 C 
ENDBRANCH  13  16
ENDBRANCH   7  11
ENDBRANCH   1   7
BRANCH   6  18
ATOM     18  C   UNL     1       3.531   5.770  19.785  0.00  0.00    +0.000 C 
BRANCH  18  19
ATOM     19  C   UNL     1       2.481   6.840  19.619  0.00  0.00    +0.000 A 
ATOM     20  C   UNL     1       1.711   7.270  20.725  0.00  0.00    +0.000 A 
ATOM     21  C   UNL     1       1.044   8.496  20.691  0.00  0.00    +0.000 A 
ATOM     22  C   UNL     1       1.197   9.262  19.557  0.00  0.00    +0.000 A 
ATOM     23  C   UNL     1       1.860   8.797  18.442  0.00  0.00    +0.000 A 
ATOM     24  C   UNL     1       2.462   7.565  18.416  0.00  0.00    +0.000 A 
ATOM     25  O   UNL     1       1.981   9.751  17.478  0.00  0.00    +0.000 OA
ATOM     26  C   UNL     1       1.670  10.908  18.279  0.00  0.00    +0.000 C 
ATOM     27  O   UNL     1       0.852  10.576  19.421  0.00  0.00    +0.000 OA
ENDBRANCH  18  19
ENDBRANCH   6  18
TORSDOF 6
ENDMDL
MODEL 3
REMARK VINA RESULT:      -8.2      1.110      6.063
REMARK  Name = 
REMARK  8 active torsions:
REMARK  status: ('A' for Active; 'I' for Inactive)
REMARK    1  A    between atoms: C_1  and  O_2
REMARK    2  A    between atoms: O_2  and  C_3
REMARK    3  A    between atoms: C_6  and  C_7
REMARK    4  A    between atoms: C_7  and  C_8
REMARK    5  A    between atoms: C_13  and  C_14
REMARK    6  A    between atoms: C_14  and  C_15
REMARK    7  A    between atoms: C_25  and  O_26
REMARK    8  A    between atoms: O_26  and  C_27
REMARK                            x       y       z     vdW  Elec       q    Type
REMARK                         _______ _______ _______ _____ _____    ______ ____
ROOT
ATOM      1  C   UNL     1       3.206   3.263  18.605  0.00  0.00    +0.000 C 
ATOM      2  C   UNL     1       2.358   2.026  18.820  0.00  0.00    +0.000 C 
ATOM      3  O   UNL     1       1.388   2.369  19.798  0.00  0.00    +0.000 OA
ATOM      4  C   UNL     1       1.218   3.710  19.833  0.00  0.00    +0.000 C 
ATOM      5  O   UNL     1       0.274   4.247  20.390  0.00  0.00    +0.000 OA
ATOM      6  C   UNL     1       2.315   4.419  19.058  0.00  0.00    +0.000 C 
ENDROOT
BRANCH   1   7
ATOM      7  C   UNL     1       3.655   3.430  17.151  0.00  0.00    +0.000 C 
BRANCH   7  11
ATOM      8  C   UNL     1       6.924   6.229  16.797  0.00  0.00    +0.000 A 
ATOM      9  C   UNL     1       5.840   6.276  15.903  0.00  0.00    +0.000 A 
ATOM     10  C   UNL     1       4.791   5.359  16.001  0.00  0.00    +0.000 A 
ATOM     11  C   UNL     1       4.824   4.356  16.969  0.00  0.00    +0.000 A 
ATOM     12  C   UNL     1       5.946   4.263  17.802  0.00  0.00    +0.000 A 
ATOM     13  C   UNL     1       7.004   5.179  17.722  0.00  0.00    +0.000 A 
BRANCH   8  15
ATOM     14  C   UNL     1       7.746   8.311  17.573  0.00  0.00    +0.000 C 
ATOM     15  O   UNL     1       7.917   7.167  16.735  0.00  0.00    +0.000 OA
ENDBRANCH   8  15
BRANCH  13  16
ATOM     16  O   UNL     1       7.992   4.901  18.630  0.00  0.00    +0.000 OA
ATOM     17  C   UNL     1       7.986   5.573  19.879  0.00  0.00    +0.000 C 
ENDBRANCH  13  16
ENDBRANCH   7  11
ENDBRANCH   1   7
BRANCH   6  18
ATOM     18  C   UNL     1       3.127   5.454  19.858  0.00  0.00    +0.000 C 
BRANCH  18  19
ATOM     19  C   UNL     1       2.767   6.868  19.479  0.00  0.00    +0.000 A 
ATOM     20  C   UNL     1       2.965   7.330  18.156  0.00  0.00    +0.000 A 
ATOM     21  C   UNL     1       2.289   8.460  17.691  0.00  0.00    +0.000 A 
ATOM     22  C   UNL     1       1.414   9.071  18.561  0.00  0.00    +0.000 A 
ATOM     23  C   UNL     1       1.301   8.683  19.879  0.00  0.00    +0.000 A 
ATOM     24  C   UNL     1       2.009   7.624  20.388  0.00  0.00    +0.000 A 
ATOM     25  O   UNL     1       0.309   9.350  20.530  0.00  0.00    +0.000 OA
ATOM     26  C   UNL     1      -0.386   9.877  19.383  0.00  0.00    +0.000 C 
ATOM     27  O   UNL     1       0.480  10.011  18.236  0.00  0.00    +0.000 OA
ENDBRANCH  18  19
ENDBRANCH   6  18
TORSDOF 6
ENDMDL
MODEL 4
REMARK VINA RESULT:      -8.2      1.642      6.075
REMARK  Name = 
REMARK  8 active torsions:
REMARK  status: ('A' for Active; 'I' for Inactive)
REMARK    1  A    between atoms: C_1  and  O_2
REMARK    2  A    between atoms: O_2  and  C_3
REMARK    3  A    between atoms: C_6  and  C_7
REMARK    4  A    between atoms: C_7  and  C_8
REMARK    5  A    between atoms: C_13  and  C_14
REMARK    6  A    between atoms: C_14  and  C_15
REMARK    7  A    between atoms: C_25  and  O_26
REMARK    8  A    between atoms: O_26  and  C_27
REMARK                            x       y       z     vdW  Elec       q    Type
REMARK                         _______ _______ _______ _____ _____    ______ ____
ROOT
ATOM      1  C   UNL     1       3.302   2.916  19.318  0.00  0.00    +0.000 C 
ATOM      2  C   UNL     1       2.766   1.828  18.410  0.00  0.00    +0.000 C 
ATOM      3  O   UNL     1       1.581   2.342  17.823  0.00  0.00    +0.000 OA
ATOM      4  C   UNL     1       1.596   3.694  17.854  0.00  0.00    +0.000 C 
ATOM      5  O   UNL     1       0.833   4.384  17.196  0.00  0.00    +0.000 OA
ATOM      6  C   UNL     1       2.700   4.206  18.763  0.00  0.00    +0.000 C 
ENDROOT
BRANCH   1   7
ATOM      7  C   UNL     1       4.832   2.970  19.341  0.00  0.00    +0.000 C 
BRANCH   7  11
ATOM      8  C   UNL     1       6.711   6.288  17.314  0.00  0.00    +0.000 A 
ATOM      9  C   UNL     1       6.690   6.225  18.718  0.00  0.00    +0.000 A 
ATOM     10  C   UNL     1       6.064   5.165  19.377  0.00  0.00    +0.000 A 
ATOM     11  C   UNL     1       5.418   4.168  18.648  0.00  0.00    +0.000 A 
ATOM     12  C   UNL     1       5.371   4.281  17.252  0.00  0.00    +0.000 A 
ATOM     13  C   UNL     1       5.999   5.334  16.574  0.00  0.00    +0.000 A 
BRANCH   8  15
ATOM     14  C   UNL     1       7.857   8.353  17.506  0.00  0.00    +0.000 C 
ATOM     15  O   UNL     1       7.378   7.295  16.673  0.00  0.00    +0.000 OA
ENDBRANCH   8  15
BRANCH  13  16
ATOM     16  O   UNL     1       5.827   5.244  15.218  0.00  0.00    +0.000 OA
ATOM     17  C   UNL     1       6.420   4.160  14.521  0.00  0.00    +0.000 C 
ENDBRANCH  13  16
ENDBRANCH   7  11
ENDBRANCH   1   7
BRANCH   6  18
ATOM     18  C   UNL     1       2.241   5.130  19.906  0.00  0.00    +0.000 C 
BRANCH  18  19
ATOM     19  C   UNL     1       2.375   6.587  19.541  0.00  0.00    +0.000 A 
ATOM     20  C   UNL     1       2.919   6.968  18.292  0.00  0.00    +0.000 A 
ATOM     21  C   UNL     1       2.687   8.245  17.778  0.00  0.00    +0.000 A 
ATOM     22  C   UNL     1       1.892   9.087  18.522  0.00  0.00    +0.000 A 
ATOM     23  C   UNL     1       1.451   8.752  19.784  0.00  0.00    +0.000 A 
ATOM     24  C   UNL     1       1.725   7.533  20.350  0.00  0.00    +0.000 A 
ATOM     25  O   UNL     1       0.598   9.682  20.297  0.00  0.00    +0.000 OA
ATOM     26  C   UNL     1       0.290  10.387  19.078  0.00  0.00    +0.000 C 
ATOM     27  O   UNL     1       1.339  10.260  18.095  0.00  0.00    +0.000 OA
ENDBRANCH  18  19
ENDBRANCH   6  18
TORSDOF 6
ENDMDL
MODEL 5
REMARK VINA RESULT:      -7.9      1.344      4.652
REMARK  Name = 
REMARK  8 active torsions:
REMARK  status: ('A' for Active; 'I' for Inactive)
REMARK    1  A    between atoms: C_1  and  O_2
REMARK    2  A    between atoms: O_2  and  C_3
REMARK    3  A    between atoms: C_6  and  C_7
REMARK    4  A    between atoms: C_7  and  C_8
REMARK    5  A    between atoms: C_13  and  C_14
REMARK    6  A    between atoms: C_14  and  C_15
REMARK    7  A    between atoms: C_25  and  O_26
REMARK    8  A    between atoms: O_26  and  C_27
REMARK                            x       y       z     vdW  Elec       q    Type
REMARK                         _______ _______ _______ _____ _____    ______ ____
ROOT
ATOM      1  C   UNL     1       4.888   6.256  17.475  0.00  0.00    +0.000 C 
ATOM      2  C   UNL     1       6.150   7.042  17.764  0.00  0.00    +0.000 C 
ATOM      3  O   UNL     1       7.237   6.194  17.427  0.00  0.00    +0.000 OA
ATOM      4  C   UNL     1       6.833   5.248  16.550  0.00  0.00    +0.000 C 
ATOM      5  O   UNL     1       7.611   4.560  15.907  0.00  0.00    +0.000 OA
ATOM      6  C   UNL     1       5.318   5.206  16.452  0.00  0.00    +0.000 C 
ENDROOT
BRANCH   1   7
ATOM      7  C   UNL     1       3.751   7.132  16.942  0.00  0.00    +0.000 C 
BRANCH   7  11
ATOM      8  C   UNL     1       1.248   8.767  20.058  0.00  0.00    +0.000 A 
ATOM      9  C   UNL     1       1.941   7.560  20.254  0.00  0.00    +0.000 A 
ATOM     10  C   UNL     1       2.734   7.017  19.241  0.00  0.00    +0.000 A 
ATOM     11  C   UNL     1       2.821   7.650  18.002  0.00  0.00    +0.000 A 
ATOM     12  C   UNL     1       2.062   8.807  17.785  0.00  0.00    +0.000 A 
ATOM     13  C   UNL     1       1.266   9.370  18.793  0.00  0.00    +0.000 A 
BRANCH   8  15
ATOM     14  C   UNL     1       1.112   9.253  22.373  0.00  0.00    +0.000 C 
ATOM     15  O   UNL     1       0.523   9.326  21.073  0.00  0.00    +0.000 OA
ENDBRANCH   8  15
BRANCH  13  16
ATOM     16  O   UNL     1       0.617  10.496  18.362  0.00  0.00    +0.000 OA
ATOM     17  C   UNL     1      -0.794  10.461  18.213  0.00  0.00    +0.000 C 
ENDBRANCH  13  16
ENDBRANCH   7  11
ENDBRANCH   1   7
BRANCH   6  18
ATOM     18  C   UNL     1       4.673   3.843  16.763  0.00  0.00    +0.000 C 
BRANCH  18  19
ATOM     19  C   UNL     1       3.587   3.958  17.803  0.00  0.00    +0.000 A 
ATOM     20  C   UNL     1       2.225   3.992  17.420  0.00  0.00    +0.000 A 
ATOM     21  C   UNL     1       1.221   3.696  18.345  0.00  0.00    +0.000 A 
ATOM     22  C   UNL     1       1.621   3.348  19.616  0.00  0.00    +0.000 A 
ATOM     23  C   UNL     1       2.938   3.418  20.014  0.00  0.00    +0.000 A 
ATOM     24  C   UNL     1       3.941   3.778  19.150  0.00  0.00    +0.000 A 
ATOM     25  O   UNL     1       3.123   2.934  21.273  0.00  0.00    +0.000 OA
ATOM     26  C   UNL     1       1.872   2.232  21.421  0.00  0.00    +0.000 C 
ATOM     27  O   UNL     1       0.837   2.785  20.580  0.00  0.00    +0.000 OA
ENDBRANCH  18  19
ENDBRANCH   6  18
TORSDOF 6
ENDMDL
MODEL 6
REMARK VINA RESULT:      -7.7      1.805      2.163
REMARK  Name = 
REMARK  8 active torsions:
REMARK  status: ('A' for Active; 'I' for Inactive)
REMARK    1  A    between atoms: C_1  and  O_2
REMARK    2  A    between atoms: O_2  and  C_3
REMARK    3  A    between atoms: C_6  and  C_7
REMARK    4  A    between atoms: C_7  and  C_8
REMARK    5  A    between atoms: C_13  and  C_14
REMARK    6  A    between atoms: C_14  and  C_15
REMARK    7  A    between atoms: C_25  and  O_26
REMARK    8  A    between atoms: O_26  and  C_27
REMARK                            x       y       z     vdW  Elec       q    Type
REMARK                         _______ _______ _______ _____ _____    ______ ____
ROOT
ATOM      1  C   UNL     1       2.756   4.957  18.746  0.00  0.00    +0.000 C 
ATOM      2  C   UNL     1       1.515   4.601  17.953  0.00  0.00    +0.000 C 
ATOM      3  O   UNL     1       1.699   3.270  17.496  0.00  0.00    +0.000 OA
ATOM      4  C   UNL     1       2.597   2.630  18.279  0.00  0.00    +0.000 C 
ATOM      5  O   UNL     1       2.745   1.418  18.269  0.00  0.00    +0.000 OA
ATOM      6  C   UNL     1       3.332   3.610  19.178  0.00  0.00    +0.000 C 
ENDROOT
BRANCH   1   7
ATOM      7  C   UNL     1       2.455   5.855  19.950  0.00  0.00    +0.000 C 
BRANCH   7  11
ATOM      8  C   UNL     1       1.335   9.878  18.853  0.00  0.00    +0.000 A 
ATOM      9  C   UNL     1       2.124   9.094  17.993  0.00  0.00    +0.000 A 
ATOM     10  C   UNL     1       2.506   7.800  18.354  0.00  0.00    +0.000 A 
ATOM     11  C   UNL     1       2.139   7.280  19.594  0.00  0.00    +0.000 A 
ATOM     12  C   UNL     1       1.424   8.097  20.480  0.00  0.00    +0.000 A 
ATOM     13  C   UNL     1       1.027   9.395  20.131  0.00  0.00    +0.000 A 
BRANCH   8  15
ATOM     14  C   UNL     1       1.853  12.181  18.651  0.00  0.00    +0.000 C 
ATOM     15  O   UNL     1       0.913  11.121  18.468  0.00  0.00    +0.000 OA
ENDBRANCH   8  15
BRANCH  13  16
ATOM     16  O   UNL     1       0.339  10.008  21.145  0.00  0.00    +0.000 OA
ATOM     17  C   UNL     1       0.404   9.457  22.450  0.00  0.00    +0.000 C 
ENDBRANCH  13  16
ENDBRANCH   7  11
ENDBRANCH   1   7
BRANCH   6  18
ATOM     18  C   UNL     1       4.866   3.604  19.046  0.00  0.00    +0.000 C 
BRANCH  18  19
ATOM     19  C   UNL     1       5.337   4.461  17.898  0.00  0.00    +0.000 A 
ATOM     20  C   UNL     1       6.297   5.479  18.108  0.00  0.00    +0.000 A 
ATOM     21  C   UNL     1       7.027   5.997  17.035  0.00  0.00    +0.000 A 
ATOM     22  C   UNL     1       6.787   5.455  15.793  0.00  0.00    +0.000 A 
ATOM     23  C   UNL     1       5.780   4.540  15.574  0.00  0.00    +0.000 A 
ATOM     24  C   UNL     1       4.994   4.067  16.594  0.00  0.00    +0.000 A 
ATOM     25  O   UNL     1       5.784   4.061  14.300  0.00  0.00    +0.000 OA
ATOM     26  C   UNL     1       7.106   4.488  13.914  0.00  0.00    +0.000 C 
ATOM     27  O   UNL     1       7.554   5.629  14.677  0.00  0.00    +0.000 OA
ENDBRANCH  18  19
ENDBRANCH   6  18
TORSDOF 6
ENDMDL
MODEL 7
REMARK VINA RESULT:      -7.7      1.125      2.079
REMARK  Name = 
REMARK  8 active torsions:
REMARK  status: ('A' for Active; 'I' for Inactive)
REMARK    1  A    between atoms: C_1  and  O_2
REMARK    2  A    between atoms: O_2  and  C_3
REMARK    3  A    between atoms: C_6  and  C_7
REMARK    4  A    between atoms: C_7  and  C_8
REMARK    5  A    between atoms: C_13  and  C_14
REMARK    6  A    between atoms: C_14  and  C_15
REMARK    7  A    between atoms: C_25  and  O_26
REMARK    8  A    between atoms: O_26  and  C_27
REMARK                            x       y       z     vdW  Elec       q    Type
REMARK                         _______ _______ _______ _____ _____    ______ ____
ROOT
ATOM      1  C   UNL     1       1.775   4.107  19.780  0.00  0.00    +0.000 C 
ATOM      2  C   UNL     1       1.166   2.913  20.485  0.00  0.00    +0.000 C 
ATOM      3  O   UNL     1       1.570   1.765  19.755  0.00  0.00    +0.000 OA
ATOM      4  C   UNL     1       2.687   2.036  19.044  0.00  0.00    +0.000 C 
ATOM      5  O   UNL     1       3.383   1.169  18.539  0.00  0.00    +0.000 OA
ATOM      6  C   UNL     1       2.964   3.530  19.012  0.00  0.00    +0.000 C 
ENDROOT
BRANCH   1   7
ATOM      7  C   UNL     1       2.210   5.211  20.748  0.00  0.00    +0.000 C 
BRANCH   7  11
ATOM      8  C   UNL     1       1.306   9.272  19.591  0.00  0.00    +0.000 A 
ATOM      9  C   UNL     1       0.790   8.734  20.783  0.00  0.00    +0.000 A 
ATOM     10  C   UNL     1       1.062   7.414  21.150  0.00  0.00    +0.000 A 
ATOM     11  C   UNL     1       1.823   6.597  20.316  0.00  0.00    +0.000 A 
ATOM     12  C   UNL     1       2.265   7.113  19.090  0.00  0.00    +0.000 A 
ATOM     13  C   UNL     1       2.006   8.437  18.710  0.00  0.00    +0.000 A 
BRANCH   8  15
ATOM     14  C   UNL     1      -0.276  10.950  19.052  0.00  0.00    +0.000 C 
ATOM     15  O   UNL     1       1.087  10.582  19.268  0.00  0.00    +0.000 OA
ENDBRANCH   8  15
BRANCH  13  16
ATOM     16  O   UNL     1       2.531   8.727  17.478  0.00  0.00    +0.000 OA
ATOM     17  C   UNL     1       3.684   8.024  17.040  0.00  0.00    +0.000 C 
ENDBRANCH  13  16
ENDBRANCH   7  11
ENDBRANCH   1   7
BRANCH   6  18
ATOM     18  C   UNL     1       3.063   4.154  17.608  0.00  0.00    +0.000 C 
BRANCH  18  19
ATOM     19  C   UNL     1       4.485   4.494  17.241  0.00  0.00    +0.000 A 
ATOM     20  C   UNL     1       4.857   4.662  15.887  0.00  0.00    +0.000 A 
ATOM     21  C   UNL     1       6.025   5.352  15.552  0.00  0.00    +0.000 A 
ATOM     22  C   UNL     1       6.764   5.874  16.590  0.00  0.00    +0.000 A 
ATOM     23  C   UNL     1       6.457   5.621  17.909  0.00  0.00    +0.000 A 
ATOM     24  C   UNL     1       5.359   4.883  18.270  0.00  0.00    +0.000 A 
ATOM     25  O   UNL     1       7.253   6.315  18.767  0.00  0.00    +0.000 OA
ATOM     26  C   UNL     1       7.789   7.276  17.835  0.00  0.00    +0.000 C 
ATOM     27  O   UNL     1       7.777   6.783  16.478  0.00  0.00    +0.000 OA
ENDBRANCH  18  19
ENDBRANCH   6  18
TORSDOF 6
ENDMDL
MODEL 8
REMARK VINA RESULT:      -7.7      1.876      6.364
REMARK  Name = 
REMARK  8 active torsions:
REMARK  status: ('A' for Active; 'I' for Inactive)
REMARK    1  A    between atoms: C_1  and  O_2
REMARK    2  A    between atoms: O_2  and  C_3
REMARK    3  A    between atoms: C_6  and  C_7
REMARK    4  A    between atoms: C_7  and  C_8
REMARK    5  A    between atoms: C_13  and  C_14
REMARK    6  A    between atoms: C_14  and  C_15
REMARK    7  A    between atoms: C_25  and  O_26
REMARK    8  A    between atoms: O_26  and  C_27
REMARK                            x       y       z     vdW  Elec       q    Type
REMARK                         _______ _______ _______ _____ _____    ______ ____
ROOT
ATOM      1  C   UNL     1       2.724   6.395  18.992  0.00  0.00    +0.000 C 
ATOM      2  C   UNL     1       2.890   7.709  18.257  0.00  0.00    +0.000 C 
ATOM      3  O   UNL     1       1.900   8.587  18.773  0.00  0.00    +0.000 OA
ATOM      4  C   UNL     1       1.511   8.176  20.001  0.00  0.00    +0.000 C 
ATOM      5  O   UNL     1       0.871   8.880  20.767  0.00  0.00    +0.000 OA
ATOM      6  C   UNL     1       2.016   6.773  20.293  0.00  0.00    +0.000 C 
ENDROOT
BRANCH   1   7
ATOM      7  C   UNL     1       4.057   5.691  19.259  0.00  0.00    +0.000 C 
BRANCH   7  11
ATOM      8  C   UNL     1       6.346   5.234  15.626  0.00  0.00    +0.000 A 
ATOM      9  C   UNL     1       5.269   4.376  15.908  0.00  0.00    +0.000 A 
ATOM     10  C   UNL     1       4.540   4.507  17.091  0.00  0.00    +0.000 A 
ATOM     11  C   UNL     1       4.896   5.472  18.032  0.00  0.00    +0.000 A 
ATOM     12  C   UNL     1       6.021   6.269  17.784  0.00  0.00    +0.000 A 
ATOM     13  C   UNL     1       6.760   6.155  16.598  0.00  0.00    +0.000 A 
BRANCH   8  15
ATOM     14  C   UNL     1       6.506   4.185  13.508  0.00  0.00    +0.000 C 
ATOM     15  O   UNL     1       7.017   5.141  14.439  0.00  0.00    +0.000 OA
ENDBRANCH   8  15
BRANCH  13  16
ATOM     16  O   UNL     1       7.814   7.030  16.567  0.00  0.00    +0.000 OA
ATOM     17  C   UNL     1       7.880   8.060  17.540  0.00  0.00    +0.000 C 
ENDBRANCH  13  16
ENDBRANCH   7  11
ENDBRANCH   1   7
BRANCH   6  18
ATOM     18  C   UNL     1       0.930   5.740  20.644  0.00  0.00    +0.000 C 
BRANCH  18  19
ATOM     19  C   UNL     1       1.360   4.334  20.309  0.00  0.00    +0.000 A 
ATOM     20  C   UNL     1       1.029   3.759  19.059  0.00  0.00    +0.000 A 
ATOM     21  C   UNL     1       1.734   2.655  18.577  0.00  0.00    +0.000 A 
ATOM     22  C   UNL     1       2.768   2.183  19.354  0.00  0.00    +0.000 A 
ATOM     23  C   UNL     1       3.021   2.676  20.616  0.00  0.00    +0.000 A 
ATOM     24  C   UNL     1       2.297   3.711  21.150  0.00  0.00    +0.000 A 
ATOM     25  O   UNL     1       4.146   2.140  21.164  0.00  0.00    +0.000 OA
ATOM     26  C   UNL     1       4.726   1.586  19.967  0.00  0.00    +0.000 C 
ATOM     27  O   UNL     1       3.730   1.297  18.963  0.00  0.00    +0.000 OA
ENDBRANCH  18  19
ENDBRANCH   6  18
TORSDOF 6
ENDMDL
MODEL 9
REMARK VINA RESULT:      -7.6      1.788      6.532
REMARK  Name = 
REMARK  8 active torsions:
REMARK  status: ('A' for Active; 'I' for Inactive)
REMARK    1  A    between atoms: C_1  and  O_2
REMARK    2  A    between atoms: O_2  and  C_3
REMARK    3  A    between atoms: C_6  and  C_7
REMARK    4  A    between atoms: C_7  and  C_8
REMARK    5  A    between atoms: C_13  and  C_14
REMARK    6  A    between atoms: C_14  and  C_15
REMARK    7  A    between atoms: C_25  and  O_26
REMARK    8  A    between atoms: O_26  and  C_27
REMARK                            x       y       z     vdW  Elec       q    Type
REMARK                         _______ _______ _______ _____ _____    ______ ____
ROOT
ATOM      1  C   UNL     1       3.264   3.651  18.337  0.00  0.00    +0.000 C 
ATOM      2  C   UNL     1       2.788   2.224  18.519  0.00  0.00    +0.000 C 
ATOM      3  O   UNL     1       2.117   2.181  19.769  0.00  0.00    +0.000 OA
ATOM      4  C   UNL     1       1.702   3.421  20.117  0.00  0.00    +0.000 C 
ATOM      5  O   UNL     1       0.888   3.627  21.003  0.00  0.00    +0.000 OA
ATOM      6  C   UNL     1       2.344   4.478  19.234  0.00  0.00    +0.000 C 
ENDROOT
BRANCH   1   7
ATOM      7  C   UNL     1       3.202   4.117  16.880  0.00  0.00    +0.000 C 
BRANCH   7  11
ATOM      8  C   UNL     1       6.949   5.093  14.970  0.00  0.00    +0.000 A 
ATOM      9  C   UNL     1       6.231   3.944  14.595  0.00  0.00    +0.000 A 
ATOM     10  C   UNL     1       5.029   3.614  15.225  0.00  0.00    +0.000 A 
ATOM     11  C   UNL     1       4.542   4.403  16.265  0.00  0.00    +0.000 A 
ATOM     12  C   UNL     1       5.305   5.499  16.691  0.00  0.00    +0.000 A 
ATOM     13  C   UNL     1       6.509   5.849  16.065  0.00  0.00    +0.000 A 
BRANCH   8  15
ATOM     14  C   UNL     1       8.027   5.394  12.881  0.00  0.00    +0.000 C 
ATOM     15  O   UNL     1       8.092   5.445  14.308  0.00  0.00    +0.000 OA
ENDBRANCH   8  15
BRANCH  13  16
ATOM     16  O   UNL     1       7.082   6.952  16.641  0.00  0.00    +0.000 OA
ATOM     17  C   UNL     1       7.598   6.849  17.958  0.00  0.00    +0.000 C 
ENDBRANCH  13  16
ENDBRANCH   7  11
ENDBRANCH   1   7
BRANCH   6  18
ATOM     18  C   UNL     1       3.139   5.566  19.978  0.00  0.00    +0.000 C 
BRANCH  18  19
ATOM     19  C   UNL     1       2.703   6.954  19.580  0.00  0.00    +0.000 A 
ATOM     20  C   UNL     1       2.796   7.378  18.233  0.00  0.00    +0.000 A 
ATOM     21  C   UNL     1       2.050   8.468  17.780  0.00  0.00    +0.000 A 
ATOM     22  C   UNL     1       1.213   9.077  18.688  0.00  0.00    +0.000 A 
ATOM     23  C   UNL     1       1.202   8.729  20.022  0.00  0.00    +0.000 A 
ATOM     24  C   UNL     1       1.980   7.713  20.514  0.00  0.00    +0.000 A 
ATOM     25  O   UNL     1       0.232   9.384  20.717  0.00  0.00    +0.000 OA
ATOM     26  C   UNL     1      -0.557   9.847  19.604  0.00  0.00    +0.000 C 
ATOM     27  O   UNL     1       0.226   9.973  18.397  0.00  0.00    +0.000 OA
ENDBRANCH  18  19
ENDBRANCH   6  18
TORSDOF 6
ENDMDL
