MODEL 1
REMARK VINA RESULT:      -8.4      0.000      0.000
REMARK  Name = 
REMARK  7 active torsions:
REMARK  status: ('A' for Active; 'I' for Inactive)
REMARK    1  A    between atoms: C_1  and  C_2
REMARK    2  A    between atoms: C_2  and  C_3
REMARK    3  A    between atoms: C_7  and  N_8
REMARK    4  A    between atoms: C_9  and  C_11
REMARK    5  A    between atoms: C_16  and  O_17
REMARK    6  A    between atoms: O_17  and  C_18
REMARK    7  A    between atoms: C_24  and  N_25
REMARK                            x       y       z     vdW  Elec       q    Type
REMARK                         _______ _______ _______ _____ _____    ______ ____
ROOT
ATOM      1  C   UNL     1       5.243   4.578  13.778  0.00  0.00    +0.000 C 
ATOM      2  C   UNL     1       5.920   4.930  15.109  0.00  0.00    +0.000 C 
ATOM      3  C   UNL     1       7.432   4.744  14.970  0.00  0.00    +0.000 C 
ATOM      4  C   UNL     1       5.546   6.360  15.583  0.00  0.00    +0.000 C 
ATOM      5  C   UNL     1       4.669   6.048  16.736  0.00  0.00    +0.000 A 
ATOM      6  C   UNL     1       3.925   6.891  17.549  0.00  0.00    +0.000 A 
ATOM      7  C   UNL     1       3.162   6.353  18.601  0.00  0.00    +0.000 A 
ATOM      8  C   UNL     1       3.126   4.932  18.796  0.00  0.00    +0.000 A 
ATOM      9  C   UNL     1       3.969   4.136  17.993  0.00  0.00    +0.000 A 
ATOM     10  C   UNL     1       4.702   4.696  16.978  0.00  0.00    +0.000 A 
ATOM     11  O   UNL     1       5.472   3.973  16.108  0.00  0.00    +0.000 OA
ENDROOT
BRANCH   8  12
ATOM     12  N   UNL     1       2.366   4.259  19.753  0.00  0.00    +0.000 N 
ATOM     13  C   UNL     1       2.463   4.531  21.179  0.00  0.00    +0.000 C 
ATOM     14  C   UNL     1       2.208   3.227  21.951  0.00  0.00    +0.000 C 
ATOM     15  O   UNL     1       0.963   2.609  21.579  0.00  0.00    +0.000 OA
ATOM     16  C   UNL     1       0.946   2.319  20.170  0.00  0.00    +0.000 C 
ATOM     17  C   UNL     1       1.112   3.599  19.344  0.00  0.00    +0.000 C 
ENDBRANCH   8  12
BRANCH   7  18
ATOM     18  N   UNL     1       2.390   7.270  19.372  0.00  0.00    +0.000 N 
ATOM     19  C   UNL     1       1.804   8.399  18.815  0.00  0.00    +0.000 C 
ATOM     20  O   UNL     1       1.895   8.688  17.629  0.00  0.00    +0.000 OA
ATOM     21  H   UNL     1       2.222   7.059  20.349  0.00  0.00    +0.000 HD
BRANCH  19  22
ATOM     22  C   UNL     1       1.056   9.271  19.714  0.00  0.00    +0.000 A 
ATOM     23  C   UNL     1       1.403   9.455  21.081  0.00  0.00    +0.000 A 
ATOM     24  N   UNL     1       0.648  10.345  21.710  0.00  0.00    +0.000 NA
ATOM     25  N   UNL     1      -0.231  10.754  20.779  0.00  0.00    +0.000 N 
ATOM     26  C   UNL     1      -1.188  11.745  20.924  0.00  0.00    +0.000 A 
ATOM     27  C   UNL     1      -2.028  12.042  19.946  0.00  0.00    +0.000 A 
ATOM     28  C   UNL     1      -1.883  11.170  18.722  0.00  0.00    +0.000 A 
ATOM     29  N   UNL     1      -0.958  10.261  18.523  0.00  0.00    +0.000 NA
ATOM     30  C   UNL     1      -0.078  10.063  19.557  0.00  0.00    +0.000 A 
BRANCH  27  31
ATOM     31  O   UNL     1      -2.943  13.073  20.092  0.00  0.00    +0.000 OA
BRANCH  31  32
ATOM     32  C   UNL     1      -3.423  13.321  21.402  0.00  0.00    +0.000 C 
ATOM     33  F   UNL     1      -3.844  14.606  21.511  0.00  0.00    +0.000 F 
ATOM     34  F   UNL     1      -4.493  12.520  21.614  0.00  0.00    +0.000 F 
ENDBRANCH  31  32
ENDBRANCH  27  31
ENDBRANCH  19  22
ENDBRANCH   7  18
TORSDOF 5
ENDMDL
MODEL 2
REMARK VINA RESULT:      -8.4      0.908      1.139
REMARK  Name = 
REMARK  7 active torsions:
REMARK  status: ('A' for Active; 'I' for Inactive)
REMARK    1  A    between atoms: C_1  and  C_2
REMARK    2  A    between atoms: C_2  and  C_3
REMARK    3  A    between atoms: C_7  and  N_8
REMARK    4  A    between atoms: C_9  and  C_11
REMARK    5  A    between atoms: C_16  and  O_17
REMARK    6  A    between atoms: O_17  and  C_18
REMARK    7  A    between atoms: C_24  and  N_25
REMARK                            x       y       z     vdW  Elec       q    Type
REMARK                         _______ _______ _______ _____ _____    ______ ____
ROOT
ATOM      1  C   UNL     1       5.305   4.228  13.264  0.00  0.00    +0.000 C 
ATOM      2  C   UNL     1       6.022   4.595  14.569  0.00  0.00    +0.000 C 
ATOM      3  C   UNL     1       7.534   4.516  14.353  0.00  0.00    +0.000 C 
ATOM      4  C   UNL     1       5.576   5.985  15.098  0.00  0.00    +0.000 C 
ATOM      5  C   UNL     1       4.780   5.587  16.283  0.00  0.00    +0.000 A 
ATOM      6  C   UNL     1       4.023   6.360  17.152  0.00  0.00    +0.000 A 
ATOM      7  C   UNL     1       3.351   5.746  18.225  0.00  0.00    +0.000 A 
ATOM      8  C   UNL     1       3.420   4.323  18.385  0.00  0.00    +0.000 A 
ATOM      9  C   UNL     1       4.274   3.604  17.521  0.00  0.00    +0.000 A 
ATOM     10  C   UNL     1       4.916   4.236  16.488  0.00  0.00    +0.000 A 
ATOM     11  O   UNL     1       5.689   3.587  15.563  0.00  0.00    +0.000 OA
ENDROOT
BRANCH   8  12
ATOM     12  N   UNL     1       2.755   3.577  19.359  0.00  0.00    +0.000 N 
ATOM     13  C   UNL     1       1.323   3.323  19.325  0.00  0.00    +0.000 C 
ATOM     14  C   UNL     1       0.799   3.248  20.767  0.00  0.00    +0.000 C 
ATOM     15  O   UNL     1       1.521   2.289  21.560  0.00  0.00    +0.000 OA
ATOM     16  C   UNL     1       2.920   2.621  21.597  0.00  0.00    +0.000 C 
ATOM     17  C   UNL     1       3.521   2.627  20.188  0.00  0.00    +0.000 C 
ENDBRANCH   8  12
BRANCH   7  18
ATOM     18  N   UNL     1       2.558   6.591  19.055  0.00  0.00    +0.000 N 
ATOM     19  C   UNL     1       2.205   7.881  18.682  0.00  0.00    +0.000 C 
ATOM     20  O   UNL     1       2.535   8.387  17.617  0.00  0.00    +0.000 OA
ATOM     21  H   UNL     1       2.197   6.214  19.925  0.00  0.00    +0.000 HD
BRANCH  19  22
ATOM     22  C   UNL     1       1.408   8.653  19.629  0.00  0.00    +0.000 A 
ATOM     23  C   UNL     1       1.442   8.428  21.033  0.00  0.00    +0.000 A 
ATOM     24  N   UNL     1       0.706   9.282  21.730  0.00  0.00    +0.000 NA
ATOM     25  N   UNL     1       0.148  10.077  20.801  0.00  0.00    +0.000 N 
ATOM     26  C   UNL     1      -0.650  11.185  21.032  0.00  0.00    +0.000 A 
ATOM     27  C   UNL     1      -1.176  11.878  20.035  0.00  0.00    +0.000 A 
ATOM     28  C   UNL     1      -0.879  11.312  18.666  0.00  0.00    +0.000 A 
ATOM     29  N   UNL     1      -0.086  10.301  18.402  0.00  0.00    +0.000 NA
ATOM     30  C   UNL     1       0.480   9.681  19.487  0.00  0.00    +0.000 A 
BRANCH  27  31
ATOM     31  O   UNL     1      -1.929  13.014  20.285  0.00  0.00    +0.000 OA
BRANCH  31  32
ATOM     32  C   UNL     1      -3.180  12.824  20.922  0.00  0.00    +0.000 C 
ATOM     33  F   UNL     1      -3.697  14.017  21.306  0.00  0.00    +0.000 F 
ATOM     34  F   UNL     1      -4.030  12.280  20.019  0.00  0.00    +0.000 F 
ENDBRANCH  31  32
ENDBRANCH  27  31
ENDBRANCH  19  22
ENDBRANCH   7  18
TORSDOF 5
ENDMDL
MODEL 3
REMARK VINA RESULT:      -8.3      4.402      9.792
REMARK  Name = 
REMARK  7 active torsions:
REMARK  status: ('A' for Active; 'I' for Inactive)
REMARK    1  A    between atoms: C_1  and  C_2
REMARK    2  A    between atoms: C_2  and  C_3
REMARK    3  A    between atoms: C_7  and  N_8
REMARK    4  A    between atoms: C_9  and  C_11
REMARK    5  A    between atoms: C_16  and  O_17
REMARK    6  A    between atoms: O_17  and  C_18
REMARK    7  A    between atoms: C_24  and  N_25
REMARK                            x       y       z     vdW  Elec       q    Type
REMARK                         _______ _______ _______ _____ _____    ______ ____
ROOT
ATOM      1  C   UNL     1      -5.565  12.553  17.060  0.00  0.00    +0.000 C 
ATOM      2  C   UNL     1      -5.103  11.766  18.293  0.00  0.00    +0.000 C 
ATOM      3  C   UNL     1      -6.273  11.624  19.269  0.00  0.00    +0.000 C 
ATOM      4  C   UNL     1      -4.495  10.392  17.902  0.00  0.00    +0.000 C 
ATOM      5  C   UNL     1      -3.062  10.632  18.191  0.00  0.00    +0.000 A 
ATOM      6  C   UNL     1      -1.956   9.823  17.969  0.00  0.00    +0.000 A 
ATOM      7  C   UNL     1      -0.676  10.273  18.340  0.00  0.00    +0.000 A 
ATOM      8  C   UNL     1      -0.521  11.583  18.904  0.00  0.00    +0.000 A 
ATOM      9  C   UNL     1      -1.690  12.322  19.183  0.00  0.00    +0.000 A 
ATOM     10  C   UNL     1      -2.922  11.850  18.810  0.00  0.00    +0.000 A 
ATOM     11  O   UNL     1      -4.085  12.552  18.972  0.00  0.00    +0.000 OA
ENDROOT
BRANCH   8  12
ATOM     12  N   UNL     1       0.689  12.181  19.255  0.00  0.00    +0.000 N 
ATOM     13  C   UNL     1       1.192  12.214  20.620  0.00  0.00    +0.000 C 
ATOM     14  C   UNL     1       1.985  13.514  20.825  0.00  0.00    +0.000 C 
ATOM     15  O   UNL     1       3.021  13.681  19.841  0.00  0.00    +0.000 OA
ATOM     16  C   UNL     1       2.459  13.690  18.517  0.00  0.00    +0.000 C 
ATOM     17  C   UNL     1       1.724  12.378  18.222  0.00  0.00    +0.000 C 
ENDBRANCH   8  12
BRANCH   7  18
ATOM     18  N   UNL     1       0.420   9.410  18.046  0.00  0.00    +0.000 N 
ATOM     19  C   UNL     1       1.115   8.729  19.036  0.00  0.00    +0.000 C 
ATOM     20  O   UNL     1       0.839   8.806  20.227  0.00  0.00    +0.000 OA
ATOM     21  H   UNL     1       0.663   9.252  17.075  0.00  0.00    +0.000 HD
BRANCH  19  22
ATOM     22  C   UNL     1       2.232   7.893  18.609  0.00  0.00    +0.000 A 
ATOM     23  C   UNL     1       3.172   8.302  17.622  0.00  0.00    +0.000 A 
ATOM     24  N   UNL     1       4.156   7.435  17.428  0.00  0.00    +0.000 NA
ATOM     25  N   UNL     1       3.876   6.421  18.265  0.00  0.00    +0.000 N 
ATOM     26  C   UNL     1       4.655   5.298  18.492  0.00  0.00    +0.000 A 
ATOM     27  C   UNL     1       4.263   4.342  19.317  0.00  0.00    +0.000 A 
ATOM     28  C   UNL     1       2.892   4.562  19.911  0.00  0.00    +0.000 A 
ATOM     29  N   UNL     1       2.148   5.633  19.766  0.00  0.00    +0.000 NA
ATOM     30  C   UNL     1       2.659   6.614  18.953  0.00  0.00    +0.000 A 
BRANCH  27  31
ATOM     31  O   UNL     1       5.080   3.251  19.572  0.00  0.00    +0.000 OA
BRANCH  31  32
ATOM     32  C   UNL     1       4.440   2.061  20.000  0.00  0.00    +0.000 C 
ATOM     33  F   UNL     1       4.009   1.350  18.928  0.00  0.00    +0.000 F 
ATOM     34  F   UNL     1       5.356   1.305  20.650  0.00  0.00    +0.000 F 
ENDBRANCH  31  32
ENDBRANCH  27  31
ENDBRANCH  19  22
ENDBRANCH   7  18
TORSDOF 5
ENDMDL
MODEL 4
REMARK VINA RESULT:      -8.2      1.919      2.176
REMARK  Name = 
REMARK  7 active torsions:
REMARK  status: ('A' for Active; 'I' for Inactive)
REMARK    1  A    between atoms: C_1  and  C_2
REMARK    2  A    between atoms: C_2  and  C_3
REMARK    3  A    between atoms: C_7  and  N_8
REMARK    4  A    between atoms: C_9  and  C_11
REMARK    5  A    between atoms: C_16  and  O_17
REMARK    6  A    between atoms: O_17  and  C_18
REMARK    7  A    between atoms: C_24  and  N_25
REMARK                            x       y       z     vdW  Elec       q    Type
REMARK                         _______ _______ _______ _____ _____    ______ ____
ROOT
ATOM      1  C   UNL     1       5.209   4.433  13.226  0.00  0.00    +0.000 C 
ATOM      2  C   UNL     1       5.994   4.643  14.527  0.00  0.00    +0.000 C 
ATOM      3  C   UNL     1       7.485   4.435  14.255  0.00  0.00    +0.000 C 
ATOM      4  C   UNL     1       5.699   6.030  15.158  0.00  0.00    +0.000 C 
ATOM      5  C   UNL     1       4.902   5.632  16.341  0.00  0.00    +0.000 A 
ATOM      6  C   UNL     1       4.247   6.413  17.283  0.00  0.00    +0.000 A 
ATOM      7  C   UNL     1       3.549   5.796  18.337  0.00  0.00    +0.000 A 
ATOM      8  C   UNL     1       3.484   4.365  18.403  0.00  0.00    +0.000 A 
ATOM      9  C   UNL     1       4.240   3.628  17.468  0.00  0.00    +0.000 A 
ATOM     10  C   UNL     1       4.911   4.264  16.455  0.00  0.00    +0.000 A 
ATOM     11  O   UNL     1       5.592   3.607  15.466  0.00  0.00    +0.000 OA
ENDROOT
BRANCH   8  12
ATOM     12  N   UNL     1       2.778   3.622  19.350  0.00  0.00    +0.000 N 
ATOM     13  C   UNL     1       1.345   3.385  19.265  0.00  0.00    +0.000 C 
ATOM     14  C   UNL     1       0.770   3.309  20.688  0.00  0.00    +0.000 C 
ATOM     15  O   UNL     1       1.453   2.338  21.501  0.00  0.00    +0.000 OA
ATOM     16  C   UNL     1       2.854   2.653  21.588  0.00  0.00    +0.000 C 
ATOM     17  C   UNL     1       3.504   2.659  20.200  0.00  0.00    +0.000 C 
ENDBRANCH   8  12
BRANCH   7  18
ATOM     18  N   UNL     1       2.864   6.655  19.246  0.00  0.00    +0.000 N 
ATOM     19  C   UNL     1       2.104   7.735  18.818  0.00  0.00    +0.000 C 
ATOM     20  O   UNL     1       1.955   8.027  17.638  0.00  0.00    +0.000 OA
ATOM     21  H   UNL     1       2.894   6.434  20.235  0.00  0.00    +0.000 HD
BRANCH  19  22
ATOM     22  C   UNL     1       1.470   8.551  19.847  0.00  0.00    +0.000 A 
ATOM     23  C   UNL     1       1.192   8.069  21.156  0.00  0.00    +0.000 A 
ATOM     24  N   UNL     1       0.684   8.985  21.968  0.00  0.00    +0.000 NA
ATOM     25  N   UNL     1       0.591  10.089  21.208  0.00  0.00    +0.000 N 
ATOM     26  C   UNL     1       0.188  11.348  21.624  0.00  0.00    +0.000 A 
ATOM     27  C   UNL     1       0.101  12.360  20.776  0.00  0.00    +0.000 A 
ATOM     28  C   UNL     1       0.411  11.994  19.344  0.00  0.00    +0.000 A 
ATOM     29  N   UNL     1       0.848  10.833  18.919  0.00  0.00    +0.000 NA
ATOM     30  C   UNL     1       0.982   9.855  19.872  0.00  0.00    +0.000 A 
BRANCH  27  31
ATOM     31  O   UNL     1      -0.253  13.624  21.221  0.00  0.00    +0.000 OA
BRANCH  31  32
ATOM     32  C   UNL     1       0.773  14.600  21.254  0.00  0.00    +0.000 C 
ATOM     33  F   UNL     1       1.969  14.014  21.512  0.00  0.00    +0.000 F 
ATOM     34  F   UNL     1       0.851  15.166  20.027  0.00  0.00    +0.000 F 
ENDBRANCH  31  32
ENDBRANCH  27  31
ENDBRANCH  19  22
ENDBRANCH   7  18
TORSDOF 5
ENDMDL
MODEL 5
REMARK VINA RESULT:      -8.1      1.434      1.497
REMARK  Name = 
REMARK  7 active torsions:
REMARK  status: ('A' for Active; 'I' for Inactive)
REMARK    1  A    between atoms: C_1  and  C_2
REMARK    2  A    between atoms: C_2  and  C_3
REMARK    3  A    between atoms: C_7  and  N_8
REMARK    4  A    between atoms: C_9  and  C_11
REMARK    5  A    between atoms: C_16  and  O_17
REMARK    6  A    between atoms: O_17  and  C_18
REMARK    7  A    between atoms: C_24  and  N_25
REMARK                            x       y       z     vdW  Elec       q    Type
REMARK                         _______ _______ _______ _____ _____    ______ ____
ROOT
ATOM      1  C   UNL     1       5.129   4.602  13.676  0.00  0.00    +0.000 C 
ATOM      2  C   UNL     1       5.856   4.891  14.995  0.00  0.00    +0.000 C 
ATOM      3  C   UNL     1       7.353   4.633  14.814  0.00  0.00    +0.000 C 
ATOM      4  C   UNL     1       5.566   6.328  15.507  0.00  0.00    +0.000 C 
ATOM      5  C   UNL     1       4.703   6.035  16.676  0.00  0.00    +0.000 A 
ATOM      6  C   UNL     1       4.023   6.897  17.525  0.00  0.00    +0.000 A 
ATOM      7  C   UNL     1       3.261   6.375  18.586  0.00  0.00    +0.000 A 
ATOM      8  C   UNL     1       3.158   4.954  18.753  0.00  0.00    +0.000 A 
ATOM      9  C   UNL     1       3.940   4.134  17.912  0.00  0.00    +0.000 A 
ATOM     10  C   UNL     1       4.674   4.679  16.890  0.00  0.00    +0.000 A 
ATOM     11  O   UNL     1       5.385   3.937  15.987  0.00  0.00    +0.000 OA
ENDROOT
BRANCH   8  12
ATOM     12  N   UNL     1       2.389   4.300  19.716  0.00  0.00    +0.000 N 
ATOM     13  C   UNL     1       2.531   4.541  21.144  0.00  0.00    +0.000 C 
ATOM     14  C   UNL     1       2.232   3.237  21.899  0.00  0.00    +0.000 C 
ATOM     15  O   UNL     1       0.952   2.683  21.546  0.00  0.00    +0.000 OA
ATOM     16  C   UNL     1       0.891   2.420  20.133  0.00  0.00    +0.000 C 
ATOM     17  C   UNL     1       1.097   3.706  19.325  0.00  0.00    +0.000 C 
ENDBRANCH   8  12
BRANCH   7  18
ATOM     18  N   UNL     1       2.555   7.314  19.394  0.00  0.00    +0.000 N 
ATOM     19  C   UNL     1       1.829   8.365  18.851  0.00  0.00    +0.000 C 
ATOM     20  O   UNL     1       1.730   8.562  17.646  0.00  0.00    +0.000 OA
ATOM     21  H   UNL     1       2.543   7.174  20.398  0.00  0.00    +0.000 HD
BRANCH  19  22
ATOM     22  C   UNL     1       1.168   9.269  19.784  0.00  0.00    +0.000 A 
ATOM     23  C   UNL     1       1.208   9.090  21.195  0.00  0.00    +0.000 A 
ATOM     24  N   UNL     1       0.612  10.060  21.875  0.00  0.00    +0.000 NA
ATOM     25  N   UNL     1       0.143  10.891  20.928  0.00  0.00    +0.000 N 
ATOM     26  C   UNL     1      -0.493  12.105  21.135  0.00  0.00    +0.000 A 
ATOM     27  C   UNL     1      -0.945  12.827  20.124  0.00  0.00    +0.000 A 
ATOM     28  C   UNL     1      -0.764  12.180  18.771  0.00  0.00    +0.000 A 
ATOM     29  N   UNL     1      -0.121  11.063  18.528  0.00  0.00    +0.000 NA
ATOM     30  C   UNL     1       0.384  10.409  19.624  0.00  0.00    +0.000 A 
BRANCH  27  31
ATOM     31  O   UNL     1      -1.531  14.063  20.347  0.00  0.00    +0.000 OA
BRANCH  31  32
ATOM     32  C   UNL     1      -0.741  15.205  20.065  0.00  0.00    +0.000 C 
ATOM     33  F   UNL     1       0.512  15.040  20.556  0.00  0.00    +0.000 F 
ATOM     34  F   UNL     1      -0.642  15.323  18.720  0.00  0.00    +0.000 F 
ENDBRANCH  31  32
ENDBRANCH  27  31
ENDBRANCH  19  22
ENDBRANCH   7  18
TORSDOF 5
ENDMDL
MODEL 6
REMARK VINA RESULT:      -8.1      4.626      9.352
REMARK  Name = 
REMARK  7 active torsions:
REMARK  status: ('A' for Active; 'I' for Inactive)
REMARK    1  A    between atoms: C_1  and  C_2
REMARK    2  A    between atoms: C_2  and  C_3
REMARK    3  A    between atoms: C_7  and  N_8
REMARK    4  A    between atoms: C_9  and  C_11
REMARK    5  A    between atoms: C_16  and  O_17
REMARK    6  A    between atoms: O_17  and  C_18
REMARK    7  A    between atoms: C_24  and  N_25
REMARK                            x       y       z     vdW  Elec       q    Type
REMARK                         _______ _______ _______ _____ _____    ______ ____
ROOT
ATOM      1  C   UNL     1       1.310  16.803  20.948  0.00  0.00    +0.000 C 
ATOM      2  C   UNL     1       1.657  16.257  19.557  0.00  0.00    +0.000 C 
ATOM      3  C   UNL     1       2.161  17.403  18.677  0.00  0.00    +0.000 C 
ATOM      4  C   UNL     1       2.675  15.087  19.638  0.00  0.00    +0.000 C 
ATOM      5  C   UNL     1       1.808  13.942  19.274  0.00  0.00    +0.000 A 
ATOM      6  C   UNL     1       2.085  12.583  19.247  0.00  0.00    +0.000 A 
ATOM      7  C   UNL     1       1.085  11.674  18.855  0.00  0.00    +0.000 A 
ATOM      8  C   UNL     1      -0.225  12.158  18.528  0.00  0.00    +0.000 A 
ATOM      9  C   UNL     1      -0.420  13.555  18.491  0.00  0.00    +0.000 A 
ATOM     10  C   UNL     1       0.580  14.411  18.877  0.00  0.00    +0.000 A 
ATOM     11  O   UNL     1       0.431  15.770  18.947  0.00  0.00    +0.000 OA
ENDROOT
BRANCH   8  12
ATOM     12  N   UNL     1      -1.324  11.371  18.187  0.00  0.00    +0.000 N 
ATOM     13  C   UNL     1      -1.206  10.107  17.475  0.00  0.00    +0.000 C 
ATOM     14  C   UNL     1      -2.444   9.923  16.584  0.00  0.00    +0.000 C 
ATOM     15  O   UNL     1      -3.672  10.038  17.325  0.00  0.00    +0.000 OA
ATOM     16  C   UNL     1      -3.754  11.324  17.965  0.00  0.00    +0.000 C 
ATOM     17  C   UNL     1      -2.586  11.531  18.935  0.00  0.00    +0.000 C 
ENDBRANCH   8  12
BRANCH   7  18
ATOM     18  N   UNL     1       1.424  10.290  18.890  0.00  0.00    +0.000 N 
ATOM     19  C   UNL     1       1.295   9.522  20.039  0.00  0.00    +0.000 C 
ATOM     20  O   UNL     1       0.876   9.966  21.101  0.00  0.00    +0.000 OA
ATOM     21  H   UNL     1       1.719   9.842  18.029  0.00  0.00    +0.000 HD
BRANCH  19  22
ATOM     22  C   UNL     1       1.695   8.122  19.952  0.00  0.00    +0.000 A 
ATOM     23  C   UNL     1       1.337   7.152  20.929  0.00  0.00    +0.000 A 
ATOM     24  N   UNL     1       1.731   5.922  20.632  0.00  0.00    +0.000 NA
ATOM     25  N   UNL     1       2.381   6.053  19.463  0.00  0.00    +0.000 N 
ATOM     26  C   UNL     1       2.915   5.032  18.695  0.00  0.00    +0.000 A 
ATOM     27  C   UNL     1       3.567   5.282  17.571  0.00  0.00    +0.000 A 
ATOM     28  C   UNL     1       3.722   6.752  17.261  0.00  0.00    +0.000 A 
ATOM     29  N   UNL     1       3.186   7.744  17.930  0.00  0.00    +0.000 NA
ATOM     30  C   UNL     1       2.461   7.398  19.043  0.00  0.00    +0.000 A 
BRANCH  27  31
ATOM     31  O   UNL     1       4.049   4.243  16.790  0.00  0.00    +0.000 OA
BRANCH  31  32
ATOM     32  C   UNL     1       5.329   4.423  16.207  0.00  0.00    +0.000 C 
ATOM     33  F   UNL     1       5.833   3.230  15.806  0.00  0.00    +0.000 F 
ATOM     34  F   UNL     1       5.181   5.196  15.106  0.00  0.00    +0.000 F 
ENDBRANCH  31  32
ENDBRANCH  27  31
ENDBRANCH  19  22
ENDBRANCH   7  18
TORSDOF 5
ENDMDL
MODEL 7
REMARK VINA RESULT:      -8.0      1.204      1.425
REMARK  Name = 
REMARK  7 active torsions:
REMARK  status: ('A' for Active; 'I' for Inactive)
REMARK    1  A    between atoms: C_1  and  C_2
REMARK    2  A    between atoms: C_2  and  C_3
REMARK    3  A    between atoms: C_7  and  N_8
REMARK    4  A    between atoms: C_9  and  C_11
REMARK    5  A    between atoms: C_16  and  O_17
REMARK    6  A    between atoms: O_17  and  C_18
REMARK    7  A    between atoms: C_24  and  N_25
REMARK                            x       y       z     vdW  Elec       q    Type
REMARK                         _______ _______ _______ _____ _____    ______ ____
ROOT
ATOM      1  C   UNL     1       5.304   4.179  13.429  0.00  0.00    +0.000 C 
ATOM      2  C   UNL     1       6.025   4.624  14.707  0.00  0.00    +0.000 C 
ATOM      3  C   UNL     1       7.536   4.595  14.470  0.00  0.00    +0.000 C 
ATOM      4  C   UNL     1       5.533   6.015  15.189  0.00  0.00    +0.000 C 
ATOM      5  C   UNL     1       4.771   5.634  16.401  0.00  0.00    +0.000 A 
ATOM      6  C   UNL     1       3.997   6.410  17.252  0.00  0.00    +0.000 A 
ATOM      7  C   UNL     1       3.365   5.814  18.359  0.00  0.00    +0.000 A 
ATOM      8  C   UNL     1       3.492   4.401  18.572  0.00  0.00    +0.000 A 
ATOM      9  C   UNL     1       4.360   3.683  17.723  0.00  0.00    +0.000 A 
ATOM     10  C   UNL     1       4.962   4.298  16.656  0.00  0.00    +0.000 A 
ATOM     11  O   UNL     1       5.746   3.644  15.745  0.00  0.00    +0.000 OA
ENDROOT
BRANCH   8  12
ATOM     12  N   UNL     1       2.871   3.670  19.585  0.00  0.00    +0.000 N 
ATOM     13  C   UNL     1       1.463   3.814  19.919  0.00  0.00    +0.000 C 
ATOM     14  C   UNL     1       1.285   3.578  21.427  0.00  0.00    +0.000 C 
ATOM     15  O   UNL     1       1.837   2.319  21.851  0.00  0.00    +0.000 OA
ATOM     16  C   UNL     1       3.240   2.255  21.538  0.00  0.00    +0.000 C 
ATOM     17  C   UNL     1       3.475   2.399  20.031  0.00  0.00    +0.000 C 
ENDBRANCH   8  12
BRANCH   7  18
ATOM     18  N   UNL     1       2.551   6.659  19.169  0.00  0.00    +0.000 N 
ATOM     19  C   UNL     1       2.162   7.928  18.761  0.00  0.00    +0.000 C 
ATOM     20  O   UNL     1       2.475   8.413  17.681  0.00  0.00    +0.000 OA
ATOM     21  H   UNL     1       2.205   6.297  20.050  0.00  0.00    +0.000 HD
BRANCH  19  22
ATOM     22  C   UNL     1       1.348   8.704  19.690  0.00  0.00    +0.000 A 
ATOM     23  C   UNL     1       1.368   8.496  21.097  0.00  0.00    +0.000 A 
ATOM     24  N   UNL     1       0.616   9.352  21.775  0.00  0.00    +0.000 NA
ATOM     25  N   UNL     1       0.061  10.130  20.830  0.00  0.00    +0.000 N 
ATOM     26  C   UNL     1      -0.750  11.234  21.039  0.00  0.00    +0.000 A 
ATOM     27  C   UNL     1      -1.270  11.909  20.028  0.00  0.00    +0.000 A 
ATOM     28  C   UNL     1      -0.953  11.329  18.669  0.00  0.00    +0.000 A 
ATOM     29  N   UNL     1      -0.148  10.323  18.426  0.00  0.00    +0.000 NA
ATOM     30  C   UNL     1       0.412   9.721  19.525  0.00  0.00    +0.000 A 
BRANCH  27  31
ATOM     31  O   UNL     1      -2.037  13.041  20.255  0.00  0.00    +0.000 OA
BRANCH  31  32
ATOM     32  C   UNL     1      -1.335  14.249  20.499  0.00  0.00    +0.000 C 
ATOM     33  F   UNL     1      -0.505  14.524  19.463  0.00  0.00    +0.000 F 
ATOM     34  F   UNL     1      -2.242  15.250  20.575  0.00  0.00    +0.000 F 
ENDBRANCH  31  32
ENDBRANCH  27  31
ENDBRANCH  19  22
ENDBRANCH   7  18
TORSDOF 5
ENDMDL
MODEL 8
REMARK VINA RESULT:      -8.0      1.582      1.921
REMARK  Name = 
REMARK  7 active torsions:
REMARK  status: ('A' for Active; 'I' for Inactive)
REMARK    1  A    between atoms: C_1  and  C_2
REMARK    2  A    between atoms: C_2  and  C_3
REMARK    3  A    between atoms: C_7  and  N_8
REMARK    4  A    between atoms: C_9  and  C_11
REMARK    5  A    between atoms: C_16  and  O_17
REMARK    6  A    between atoms: O_17  and  C_18
REMARK    7  A    between atoms: C_24  and  N_25
REMARK                            x       y       z     vdW  Elec       q    Type
REMARK                         _______ _______ _______ _____ _____    ______ ____
ROOT
ATOM      1  C   UNL     1       5.096   4.161  13.306  0.00  0.00    +0.000 C 
ATOM      2  C   UNL     1       5.877   4.534  14.572  0.00  0.00    +0.000 C 
ATOM      3  C   UNL     1       7.348   4.158  14.386  0.00  0.00    +0.000 C 
ATOM      4  C   UNL     1       5.696   6.032  14.939  0.00  0.00    +0.000 C 
ATOM      5  C   UNL     1       4.849   5.919  16.149  0.00  0.00    +0.000 A 
ATOM      6  C   UNL     1       4.251   6.908  16.918  0.00  0.00    +0.000 A 
ATOM      7  C   UNL     1       3.487   6.550  18.044  0.00  0.00    +0.000 A 
ATOM      8  C   UNL     1       3.297   5.164  18.360  0.00  0.00    +0.000 A 
ATOM      9  C   UNL     1       3.999   4.211  17.593  0.00  0.00    +0.000 A 
ATOM     10  C   UNL     1       4.738   4.598  16.504  0.00  0.00    +0.000 A 
ATOM     11  O   UNL     1       5.373   3.720  15.667  0.00  0.00    +0.000 OA
ENDROOT
BRANCH   8  12
ATOM     12  N   UNL     1       2.514   4.665  19.402  0.00  0.00    +0.000 N 
ATOM     13  C   UNL     1       2.819   4.897  20.805  0.00  0.00    +0.000 C 
ATOM     14  C   UNL     1       2.369   3.674  21.620  0.00  0.00    +0.000 C 
ATOM     15  O   UNL     1       0.988   3.345  21.391  0.00  0.00    +0.000 OA
ATOM     16  C   UNL     1       0.759   3.078  19.996  0.00  0.00    +0.000 C 
ATOM     17  C   UNL     1       1.110   4.298  19.138  0.00  0.00    +0.000 C 
ENDBRANCH   8  12
BRANCH   7  18
ATOM     18  N   UNL     1       2.867   7.612  18.765  0.00  0.00    +0.000 N 
ATOM     19  C   UNL     1       1.966   8.486  18.173  0.00  0.00    +0.000 C 
ATOM     20  O   UNL     1       1.627   8.409  16.998  0.00  0.00    +0.000 OA
ATOM     21  H   UNL     1       3.054   7.696  19.758  0.00  0.00    +0.000 HD
BRANCH  19  22
ATOM     22  C   UNL     1       1.416   9.544  19.012  0.00  0.00    +0.000 A 
ATOM     23  C   UNL     1       1.491  10.923  18.668  0.00  0.00    +0.000 A 
ATOM     24  N   UNL     1       0.866  11.722  19.521  0.00  0.00    +0.000 NA
ATOM     25  N   UNL     1       0.385  10.893  20.463  0.00  0.00    +0.000 N 
ATOM     26  C   UNL     1      -0.416  11.241  21.539  0.00  0.00    +0.000 A 
ATOM     27  C   UNL     1      -0.806  10.342  22.428  0.00  0.00    +0.000 A 
ATOM     28  C   UNL     1      -0.248   8.958  22.192  0.00  0.00    +0.000 A 
ATOM     29  N   UNL     1       0.465   8.577  21.161  0.00  0.00    +0.000 NA
ATOM     30  C   UNL     1       0.766   9.552  20.243  0.00  0.00    +0.000 A 
BRANCH  27  31
ATOM     31  O   UNL     1      -1.651  10.699  23.468  0.00  0.00    +0.000 OA
BRANCH  31  32
ATOM     32  C   UNL     1      -2.410  11.883  23.296  0.00  0.00    +0.000 C 
ATOM     33  F   UNL     1      -3.572  11.799  23.990  0.00  0.00    +0.000 F 
ATOM     34  F   UNL     1      -1.699  12.913  23.811  0.00  0.00    +0.000 F 
ENDBRANCH  31  32
ENDBRANCH  27  31
ENDBRANCH  19  22
ENDBRANCH   7  18
TORSDOF 5
ENDMDL
MODEL 9
REMARK VINA RESULT:      -8.0      4.224     10.204
REMARK  Name = 
REMARK  7 active torsions:
REMARK  status: ('A' for Active; 'I' for Inactive)
REMARK    1  A    between atoms: C_1  and  C_2
REMARK    2  A    between atoms: C_2  and  C_3
REMARK    3  A    between atoms: C_7  and  N_8
REMARK    4  A    between atoms: C_9  and  C_11
REMARK    5  A    between atoms: C_16  and  O_17
REMARK    6  A    between atoms: O_17  and  C_18
REMARK    7  A    between atoms: C_24  and  N_25
REMARK                            x       y       z     vdW  Elec       q    Type
REMARK                         _______ _______ _______ _____ _____    ______ ____
ROOT
ATOM      1  C   UNL     1      -3.691  13.311  24.593  0.00  0.00    +0.000 C 
ATOM      2  C   UNL     1      -2.990  14.094  23.475  0.00  0.00    +0.000 C 
ATOM      3  C   UNL     1      -3.046  15.589  23.795  0.00  0.00    +0.000 C 
ATOM      4  C   UNL     1      -1.537  13.595  23.250  0.00  0.00    +0.000 C 
ATOM      5  C   UNL     1      -1.678  12.915  21.942  0.00  0.00    +0.000 A 
ATOM      6  C   UNL     1      -0.757  12.172  21.216  0.00  0.00    +0.000 A 
ATOM      7  C   UNL     1      -1.128  11.621  19.975  0.00  0.00    +0.000 A 
ATOM      8  C   UNL     1      -2.468  11.796  19.494  0.00  0.00    +0.000 A 
ATOM      9  C   UNL     1      -3.330  12.632  20.235  0.00  0.00    +0.000 A 
ATOM     10  C   UNL     1      -2.933  13.154  21.439  0.00  0.00    +0.000 A 
ATOM     11  O   UNL     1      -3.746  13.901  22.248  0.00  0.00    +0.000 OA
ENDROOT
BRANCH   8  12
ATOM     12  N   UNL     1      -2.991  11.254  18.319  0.00  0.00    +0.000 N 
ATOM     13  C   UNL     1      -2.422  10.088  17.662  0.00  0.00    +0.000 C 
ATOM     14  C   UNL     1      -2.621  10.228  16.144  0.00  0.00    +0.000 C 
ATOM     15  O   UNL     1      -3.998  10.456  15.794  0.00  0.00    +0.000 OA
ATOM     16  C   UNL     1      -4.489  11.647  16.434  0.00  0.00    +0.000 C 
ATOM     17  C   UNL     1      -4.394  11.531  17.959  0.00  0.00    +0.000 C 
ENDBRANCH   8  12
BRANCH   7  18
ATOM     18  N   UNL     1      -0.149  10.835  19.301  0.00  0.00    +0.000 N 
ATOM     19  C   UNL     1       0.339   9.645  19.825  0.00  0.00    +0.000 C 
ATOM     20  O   UNL     1      -0.037   9.176  20.893  0.00  0.00    +0.000 OA
ATOM     21  H   UNL     1       0.161  11.132  18.383  0.00  0.00    +0.000 HD
BRANCH  19  22
ATOM     22  C   UNL     1       1.355   8.944  19.050  0.00  0.00    +0.000 A 
ATOM     23  C   UNL     1       1.884   9.450  17.830  0.00  0.00    +0.000 A 
ATOM     24  N   UNL     1       2.852   8.705  17.316  0.00  0.00    +0.000 NA
ATOM     25  N   UNL     1       2.970   7.675  18.171  0.00  0.00    +0.000 N 
ATOM     26  C   UNL     1       3.907   6.656  18.115  0.00  0.00    +0.000 A 
ATOM     27  C   UNL     1       3.907   5.669  18.996  0.00  0.00    +0.000 A 
ATOM     28  C   UNL     1       2.775   5.732  19.994  0.00  0.00    +0.000 A 
ATOM     29  N   UNL     1       1.903   6.704  20.116  0.00  0.00    +0.000 NA
ATOM     30  C   UNL     1       2.015   7.729  19.210  0.00  0.00    +0.000 A 
BRANCH  27  31
ATOM     31  O   UNL     1       4.885   4.687  18.955  0.00  0.00    +0.000 OA
BRANCH  31  32
ATOM     32  C   UNL     1       5.729   4.674  17.816  0.00  0.00    +0.000 C 
ATOM     33  F   UNL     1       7.001   4.377  18.180  0.00  0.00    +0.000 F 
ATOM     34  F   UNL     1       5.299   3.691  16.990  0.00  0.00    +0.000 F 
ENDBRANCH  31  32
ENDBRANCH  27  31
ENDBRANCH  19  22
ENDBRANCH   7  18
TORSDOF 5
ENDMDL
