MODEL 1
REMARK VINA RESULT:      -7.5      0.000      0.000
REMARK  Name = 
REMARK  5 active torsions:
REMARK  status: ('A' for Active; 'I' for Inactive)
REMARK    1  A    between atoms: C_1  and  O_2
REMARK    2  A    between atoms: O_2  and  C_3
REMARK    3  A    between atoms: C_3  and  C_5
REMARK    4  A    between atoms: N_14  and  C_15
REMARK    5  A    between atoms: C_20  and  C_21
REMARK                            x       y       z     vdW  Elec       q    Type
REMARK                         _______ _______ _______ _____ _____    ______ ____
ROOT
ATOM      1  C   UNL     1       5.680   5.330  16.936  0.00  0.00    +0.000 A 
ATOM      2  C   UNL     1       4.972   4.396  17.709  0.00  0.00    +0.000 A 
ATOM      3  C   UNL     1       3.838   4.766  18.423  0.00  0.00    +0.000 A 
ATOM      4  C   UNL     1       3.447   6.095  18.301  0.00  0.00    +0.000 A 
ATOM      5  N   UNL     1       2.407   6.772  18.851  0.00  0.00    +0.000 N 
ATOM      6  C   UNL     1       2.406   8.048  18.364  0.00  0.00    +0.000 A 
ATOM      7  N   UNL     1       1.359   8.821  18.702  0.00  0.00    +0.000 N 
ATOM      8  C   UNL     1       0.989   9.966  17.844  0.00  0.00    +0.000 C 
ATOM      9  C   UNL     1      -0.515  10.300  18.079  0.00  0.00    +0.000 C 
ATOM     10  N   UNL     1      -0.706  10.552  19.524  0.00  0.00    +0.000 N 
ATOM     11  C   UNL     1      -0.373   9.382  20.352  0.00  0.00    +0.000 C 
ATOM     12  C   UNL     1       1.125   9.071  20.140  0.00  0.00    +0.000 C 
ATOM     13  N   UNL     1       3.416   8.246  17.551  0.00  0.00    +0.000 NA
ATOM     14  C   UNL     1       4.095   7.044  17.522  0.00  0.00    +0.000 A 
ATOM     15  C   UNL     1       5.256   6.670  16.836  0.00  0.00    +0.000 A 
ATOM     16  H   UNL     1       1.691   6.395  19.444  0.00  0.00    +0.000 HD
ENDROOT
BRANCH  10  17
ATOM     17  C   UNL     1      -1.664  11.443  19.943  0.00  0.00    +0.000 A 
ATOM     18  N   UNL     1      -2.799  11.522  19.206  0.00  0.00    +0.000 NA
ATOM     19  C   UNL     1      -3.750  12.418  19.552  0.00  0.00    +0.000 A 
ATOM     20  C   UNL     1      -3.642  13.272  20.628  0.00  0.00    +0.000 A 
ATOM     21  C   UNL     1      -2.481  13.204  21.375  0.00  0.00    +0.000 A 
ATOM     22  C   UNL     1      -1.460  12.297  21.030  0.00  0.00    +0.000 A 
BRANCH  22  23
ATOM     23  C   UNL     1      -0.196  12.377  21.837  0.00  0.00    +0.000 C 
ATOM     24  F   UNL     1       0.982  12.400  21.166  0.00  0.00    +0.000 F 
ATOM     25  F   UNL     1      -0.161  13.491  22.627  0.00  0.00    +0.000 F 
ATOM     26  F   UNL     1      -0.090  11.324  22.704  0.00  0.00    +0.000 F 
ENDBRANCH  22  23
ENDBRANCH  10  17
BRANCH   1  27
ATOM     27  C   UNL     1       6.900   4.930  16.191  0.00  0.00    +0.000 C 
ATOM     28  O   UNL     1       7.864   4.416  16.717  0.00  0.00    +0.000 OA
BRANCH  27  30
ATOM     29  C   UNL     1       6.312   4.134  14.070  0.00  0.00    +0.000 C 
ATOM     30  O   UNL     1       6.773   5.226  14.870  0.00  0.00    +0.000 OA
ENDBRANCH  27  30
ENDBRANCH   1  27
TORSDOF 4
ENDMDL
MODEL 2
REMARK VINA RESULT:      -7.4      5.147      9.803
REMARK  Name = 
REMARK  5 active torsions:
REMARK  status: ('A' for Active; 'I' for Inactive)
REMARK    1  A    between atoms: C_1  and  O_2
REMARK    2  A    between atoms: O_2  and  C_3
REMARK    3  A    between atoms: C_3  and  C_5
REMARK    4  A    between atoms: N_14  and  C_15
REMARK    5  A    between atoms: C_20  and  C_21
REMARK                            x       y       z     vdW  Elec       q    Type
REMARK                         _______ _______ _______ _____ _____    ______ ____
ROOT
ATOM      1  C   UNL     1      -2.489  12.964  21.329  0.00  0.00    +0.000 A 
ATOM      2  C   UNL     1      -1.738  12.785  22.501  0.00  0.00    +0.000 A 
ATOM      3  C   UNL     1      -0.720  11.840  22.565  0.00  0.00    +0.000 A 
ATOM      4  C   UNL     1      -0.485  11.118  21.401  0.00  0.00    +0.000 A 
ATOM      5  N   UNL     1       0.417  10.141  21.124  0.00  0.00    +0.000 N 
ATOM      6  C   UNL     1       0.303   9.795  19.808  0.00  0.00    +0.000 A 
ATOM      7  N   UNL     1       1.217   8.933  19.330  0.00  0.00    +0.000 N 
ATOM      8  C   UNL     1       1.514   8.912  17.883  0.00  0.00    +0.000 C 
ATOM      9  C   UNL     1       2.942   8.323  17.675  0.00  0.00    +0.000 C 
ATOM     10  N   UNL     1       2.982   6.989  18.311  0.00  0.00    +0.000 N 
ATOM     11  C   UNL     1       2.727   7.045  19.759  0.00  0.00    +0.000 C 
ATOM     12  C   UNL     1       1.301   7.600  19.962  0.00  0.00    +0.000 C 
ATOM     13  N   UNL     1      -0.654  10.474  19.222  0.00  0.00    +0.000 NA
ATOM     14  C   UNL     1      -1.178  11.285  20.210  0.00  0.00    +0.000 A 
ATOM     15  C   UNL     1      -2.225  12.213  20.167  0.00  0.00    +0.000 A 
ATOM     16  H   UNL     1       1.123   9.783  21.742  0.00  0.00    +0.000 HD
ENDROOT
BRANCH  10  17
ATOM     17  C   UNL     1       3.787   6.006  17.790  0.00  0.00    +0.000 A 
ATOM     18  N   UNL     1       5.022   6.376  17.368  0.00  0.00    +0.000 NA
ATOM     19  C   UNL     1       5.832   5.452  16.804  0.00  0.00    +0.000 A 
ATOM     20  C   UNL     1       5.481   4.132  16.628  0.00  0.00    +0.000 A 
ATOM     21  C   UNL     1       4.219   3.752  17.045  0.00  0.00    +0.000 A 
ATOM     22  C   UNL     1       3.341   4.693  17.617  0.00  0.00    +0.000 A 
BRANCH  22  23
ATOM     23  C   UNL     1       1.957   4.205  17.936  0.00  0.00    +0.000 C 
ATOM     24  F   UNL     1       1.530   4.310  19.219  0.00  0.00    +0.000 F 
ATOM     25  F   UNL     1       1.002   4.855  17.205  0.00  0.00    +0.000 F 
ATOM     26  F   UNL     1       1.808   2.883  17.620  0.00  0.00    +0.000 F 
ENDBRANCH  22  23
ENDBRANCH  10  17
BRANCH   1  27
ATOM     27  C   UNL     1      -3.587  13.962  21.275  0.00  0.00    +0.000 C 
ATOM     28  O   UNL     1      -3.409  15.156  21.395  0.00  0.00    +0.000 OA
BRANCH  27  30
ATOM     29  C   UNL     1      -5.449  12.979  22.293  0.00  0.00    +0.000 C 
ATOM     30  O   UNL     1      -4.784  13.348  21.083  0.00  0.00    +0.000 OA
ENDBRANCH  27  30
ENDBRANCH   1  27
TORSDOF 4
ENDMDL
MODEL 3
REMARK VINA RESULT:      -7.4      0.902      1.170
REMARK  Name = 
REMARK  5 active torsions:
REMARK  status: ('A' for Active; 'I' for Inactive)
REMARK    1  A    between atoms: C_1  and  O_2
REMARK    2  A    between atoms: O_2  and  C_3
REMARK    3  A    between atoms: C_3  and  C_5
REMARK    4  A    between atoms: N_14  and  C_15
REMARK    5  A    between atoms: C_20  and  C_21
REMARK                            x       y       z     vdW  Elec       q    Type
REMARK                         _______ _______ _______ _____ _____    ______ ____
ROOT
ATOM      1  C   UNL     1       5.308   4.838  16.951  0.00  0.00    +0.000 A 
ATOM      2  C   UNL     1       4.476   3.994  17.704  0.00  0.00    +0.000 A 
ATOM      3  C   UNL     1       3.400   4.501  18.424  0.00  0.00    +0.000 A 
ATOM      4  C   UNL     1       3.193   5.873  18.327  0.00  0.00    +0.000 A 
ATOM      5  N   UNL     1       2.253   6.674  18.889  0.00  0.00    +0.000 N 
ATOM      6  C   UNL     1       2.427   7.948  18.428  0.00  0.00    +0.000 A 
ATOM      7  N   UNL     1       1.493   8.849  18.779  0.00  0.00    +0.000 N 
ATOM      8  C   UNL     1       1.286  10.050  17.944  0.00  0.00    +0.000 C 
ATOM      9  C   UNL     1      -0.160  10.581  18.183  0.00  0.00    +0.000 C 
ATOM     10  N   UNL     1      -0.321  10.828  19.632  0.00  0.00    +0.000 N 
ATOM     11  C   UNL     1      -0.154   9.607  20.437  0.00  0.00    +0.000 C 
ATOM     12  C   UNL     1       1.288   9.100  20.221  0.00  0.00    +0.000 C 
ATOM     13  N   UNL     1       3.458   8.022  17.621  0.00  0.00    +0.000 NA
ATOM     14  C   UNL     1       3.968   6.740  17.569  0.00  0.00    +0.000 A 
ATOM     15  C   UNL     1       5.070   6.225  16.877  0.00  0.00    +0.000 A 
ATOM     16  H   UNL     1       1.489   6.386  19.473  0.00  0.00    +0.000 HD
ENDROOT
BRANCH  10  17
ATOM     17  C   UNL     1      -1.151  11.833  20.067  0.00  0.00    +0.000 A 
ATOM     18  N   UNL     1      -2.483  11.658  19.881  0.00  0.00    +0.000 NA
ATOM     19  C   UNL     1      -3.335  12.640  20.251  0.00  0.00    +0.000 A 
ATOM     20  C   UNL     1      -2.933  13.830  20.817  0.00  0.00    +0.000 A 
ATOM     21  C   UNL     1      -1.575  14.018  20.996  0.00  0.00    +0.000 A 
ATOM     22  C   UNL     1      -0.658  13.024  20.603  0.00  0.00    +0.000 A 
BRANCH  22  23
ATOM     23  C   UNL     1       0.797  13.370  20.741  0.00  0.00    +0.000 C 
ATOM     24  F   UNL     1       1.634  12.407  21.203  0.00  0.00    +0.000 F 
ATOM     25  F   UNL     1       1.348  13.757  19.552  0.00  0.00    +0.000 F 
ATOM     26  F   UNL     1       0.982  14.433  21.580  0.00  0.00    +0.000 F 
ENDBRANCH  22  23
ENDBRANCH  10  17
BRANCH   1  27
ATOM     27  C   UNL     1       6.465   4.291  16.200  0.00  0.00    +0.000 C 
ATOM     28  O   UNL     1       7.620   4.524  16.492  0.00  0.00    +0.000 OA
BRANCH  27  30
ATOM     29  C   UNL     1       6.392   4.031  13.876  0.00  0.00    +0.000 C 
ATOM     30  O   UNL     1       6.043   3.519  15.165  0.00  0.00    +0.000 OA
ENDBRANCH  27  30
ENDBRANCH   1  27
TORSDOF 4
ENDMDL
MODEL 4
REMARK VINA RESULT:      -7.4      5.260      9.911
REMARK  Name = 
REMARK  5 active torsions:
REMARK  status: ('A' for Active; 'I' for Inactive)
REMARK    1  A    between atoms: C_1  and  O_2
REMARK    2  A    between atoms: O_2  and  C_3
REMARK    3  A    between atoms: C_3  and  C_5
REMARK    4  A    between atoms: N_14  and  C_15
REMARK    5  A    between atoms: C_20  and  C_21
REMARK                            x       y       z     vdW  Elec       q    Type
REMARK                         _______ _______ _______ _____ _____    ______ ____
ROOT
ATOM      1  C   UNL     1      -2.092  12.903  22.351  0.00  0.00    +0.000 A 
ATOM      2  C   UNL     1      -2.753  12.877  21.112  0.00  0.00    +0.000 A 
ATOM      3  C   UNL     1      -2.290  12.086  20.067  0.00  0.00    +0.000 A 
ATOM      4  C   UNL     1      -1.164  11.317  20.336  0.00  0.00    +0.000 A 
ATOM      5  N   UNL     1      -0.468  10.451  19.556  0.00  0.00    +0.000 N 
ATOM      6  C   UNL     1       0.524   9.884  20.303  0.00  0.00    +0.000 A 
ATOM      7  N   UNL     1       1.228   8.897  19.721  0.00  0.00    +0.000 N 
ATOM      8  C   UNL     1       1.914   7.895  20.562  0.00  0.00    +0.000 C 
ATOM      9  C   UNL     1       2.118   6.596  19.725  0.00  0.00    +0.000 C 
ATOM     10  N   UNL     1       2.863   6.956  18.500  0.00  0.00    +0.000 N 
ATOM     11  C   UNL     1       2.137   7.921  17.659  0.00  0.00    +0.000 C 
ATOM     12  C   UNL     1       1.962   9.217  18.479  0.00  0.00    +0.000 C 
ATOM     13  N   UNL     1       0.531  10.365  21.523  0.00  0.00    +0.000 NA
ATOM     14  C   UNL     1      -0.499  11.284  21.554  0.00  0.00    +0.000 A 
ATOM     15  C   UNL     1      -0.951  12.111  22.588  0.00  0.00    +0.000 A 
ATOM     16  H   UNL     1      -0.685  10.185  18.613  0.00  0.00    +0.000 HD
ENDROOT
BRANCH  10  17
ATOM     17  C   UNL     1       3.717   6.046  17.925  0.00  0.00    +0.000 A 
ATOM     18  N   UNL     1       4.950   6.490  17.574  0.00  0.00    +0.000 NA
ATOM     19  C   UNL     1       5.807   5.643  16.963  0.00  0.00    +0.000 A 
ATOM     20  C   UNL     1       5.508   4.330  16.669  0.00  0.00    +0.000 A 
ATOM     21  C   UNL     1       4.248   3.877  17.014  0.00  0.00    +0.000 A 
ATOM     22  C   UNL     1       3.322   4.738  17.633  0.00  0.00    +0.000 A 
BRANCH  22  23
ATOM     23  C   UNL     1       1.948   4.181  17.868  0.00  0.00    +0.000 C 
ATOM     24  F   UNL     1       1.489   4.149  19.144  0.00  0.00    +0.000 F 
ATOM     25  F   UNL     1       0.990   4.870  17.179  0.00  0.00    +0.000 F 
ATOM     26  F   UNL     1       1.848   2.892  17.422  0.00  0.00    +0.000 F 
ENDBRANCH  22  23
ENDBRANCH  10  17
BRANCH   1  27
ATOM     27  C   UNL     1      -2.582  13.764  23.456  0.00  0.00    +0.000 C 
ATOM     28  O   UNL     1      -1.863  14.500  24.098  0.00  0.00    +0.000 OA
BRANCH  27  30
ATOM     29  C   UNL     1      -4.260  12.585  24.583  0.00  0.00    +0.000 C 
ATOM     30  O   UNL     1      -3.920  13.599  23.634  0.00  0.00    +0.000 OA
ENDBRANCH  27  30
ENDBRANCH   1  27
TORSDOF 4
ENDMDL
MODEL 5
REMARK VINA RESULT:      -7.3      1.901      2.420
REMARK  Name = 
REMARK  5 active torsions:
REMARK  status: ('A' for Active; 'I' for Inactive)
REMARK    1  A    between atoms: C_1  and  O_2
REMARK    2  A    between atoms: O_2  and  C_3
REMARK    3  A    between atoms: C_3  and  C_5
REMARK    4  A    between atoms: N_14  and  C_15
REMARK    5  A    between atoms: C_20  and  C_21
REMARK                            x       y       z     vdW  Elec       q    Type
REMARK                         _______ _______ _______ _____ _____    ______ ____
ROOT
ATOM      1  C   UNL     1       4.239   4.961  17.716  0.00  0.00    +0.000 A 
ATOM      2  C   UNL     1       3.811   4.152  18.780  0.00  0.00    +0.000 A 
ATOM      3  C   UNL     1       3.031   4.670  19.807  0.00  0.00    +0.000 A 
ATOM      4  C   UNL     1       2.689   6.013  19.697  0.00  0.00    +0.000 A 
ATOM      5  N   UNL     1       1.952   6.815  20.506  0.00  0.00    +0.000 N 
ATOM      6  C   UNL     1       1.840   8.046  19.925  0.00  0.00    +0.000 A 
ATOM      7  N   UNL     1       1.025   8.927  20.530  0.00  0.00    +0.000 N 
ATOM      8  C   UNL     1       0.429  10.028  19.747  0.00  0.00    +0.000 C 
ATOM      9  C   UNL     1      -0.871  10.504  20.463  0.00  0.00    +0.000 C 
ATOM     10  N   UNL     1      -0.516  10.882  21.848  0.00  0.00    +0.000 N 
ATOM     11  C   UNL     1       0.034   9.756  22.619  0.00  0.00    +0.000 C 
ATOM     12  C   UNL     1       1.337   9.305  21.924  0.00  0.00    +0.000 C 
ATOM     13  N   UNL     1       2.498   8.094  18.791  0.00  0.00    +0.000 NA
ATOM     14  C   UNL     1       3.060   6.842  18.647  0.00  0.00    +0.000 A 
ATOM     15  C   UNL     1       3.876   6.320  17.636  0.00  0.00    +0.000 A 
ATOM     16  H   UNL     1       1.480   6.546  21.350  0.00  0.00    +0.000 HD
ENDROOT
BRANCH  10  17
ATOM     17  C   UNL     1      -1.213  11.880  22.486  0.00  0.00    +0.000 A 
ATOM     18  N   UNL     1      -2.294  11.509  23.216  0.00  0.00    +0.000 NA
ATOM     19  C   UNL     1      -3.038  12.461  23.823  0.00  0.00    +0.000 A 
ATOM     20  C   UNL     1      -2.765  13.809  23.749  0.00  0.00    +0.000 A 
ATOM     21  C   UNL     1      -1.671  14.192  22.995  0.00  0.00    +0.000 A 
ATOM     22  C   UNL     1      -0.886  13.229  22.332  0.00  0.00    +0.000 A 
BRANCH  22  23
ATOM     23  C   UNL     1       0.212  13.755  21.453  0.00  0.00    +0.000 C 
ATOM     24  F   UNL     1       1.426  13.156  21.532  0.00  0.00    +0.000 F 
ATOM     25  F   UNL     1      -0.115  13.689  20.128  0.00  0.00    +0.000 F 
ATOM     26  F   UNL     1       0.453  15.079  21.693  0.00  0.00    +0.000 F 
ENDBRANCH  22  23
ENDBRANCH  10  17
BRANCH   1  27
ATOM     27  C   UNL     1       5.087   4.405  16.632  0.00  0.00    +0.000 C 
ATOM     28  O   UNL     1       4.745   4.370  15.468  0.00  0.00    +0.000 OA
BRANCH  27  30
ATOM     29  C   UNL     1       7.265   4.961  17.282  0.00  0.00    +0.000 C 
ATOM     30  O   UNL     1       6.266   3.949  17.132  0.00  0.00    +0.000 OA
ENDBRANCH  27  30
ENDBRANCH   1  27
TORSDOF 4
ENDMDL
MODEL 6
REMARK VINA RESULT:      -7.3      5.221      9.869
REMARK  Name = 
REMARK  5 active torsions:
REMARK  status: ('A' for Active; 'I' for Inactive)
REMARK    1  A    between atoms: C_1  and  O_2
REMARK    2  A    between atoms: O_2  and  C_3
REMARK    3  A    between atoms: C_3  and  C_5
REMARK    4  A    between atoms: N_14  and  C_15
REMARK    5  A    between atoms: C_20  and  C_21
REMARK                            x       y       z     vdW  Elec       q    Type
REMARK                         _______ _______ _______ _____ _____    ______ ____
ROOT
ATOM      1  C   UNL     1      -1.784  11.789  21.920  0.00  0.00    +0.000 A 
ATOM      2  C   UNL     1      -1.117  11.319  23.063  0.00  0.00    +0.000 A 
ATOM      3  C   UNL     1      -0.127  10.348  22.968  0.00  0.00    +0.000 A 
ATOM      4  C   UNL     1       0.170   9.902  21.685  0.00  0.00    +0.000 A 
ATOM      5  N   UNL     1       1.066   8.981  21.246  0.00  0.00    +0.000 N 
ATOM      6  C   UNL     1       1.032   8.950  19.881  0.00  0.00    +0.000 A 
ATOM      7  N   UNL     1       1.957   8.187  19.273  0.00  0.00    +0.000 N 
ATOM      8  C   UNL     1       2.350   8.485  17.880  0.00  0.00    +0.000 C 
ATOM      9  C   UNL     1       3.775   7.907  17.628  0.00  0.00    +0.000 C 
ATOM     10  N   UNL     1       3.742   6.462  17.942  0.00  0.00    +0.000 N 
ATOM     11  C   UNL     1       3.393   6.195  19.346  0.00  0.00    +0.000 C 
ATOM     12  C   UNL     1       1.969   6.742  19.585  0.00  0.00    +0.000 C 
ATOM     13  N   UNL     1       0.132   9.780  19.411  0.00  0.00    +0.000 NA
ATOM     14  C   UNL     1      -0.438  10.362  20.525  0.00  0.00    +0.000 A 
ATOM     15  C   UNL     1      -1.459  11.313  20.634  0.00  0.00    +0.000 A 
ATOM     16  H   UNL     1       1.721   8.466  21.805  0.00  0.00    +0.000 HD
ENDROOT
BRANCH  10  17
ATOM     17  C   UNL     1       4.559   5.595  17.257  0.00  0.00    +0.000 A 
ATOM     18  N   UNL     1       5.725   6.093  16.776  0.00  0.00    +0.000 NA
ATOM     19  C   UNL     1       6.539   5.289  16.055  0.00  0.00    +0.000 A 
ATOM     20  C   UNL     1       6.258   3.969  15.774  0.00  0.00    +0.000 A 
ATOM     21  C   UNL     1       5.064   3.461  16.251  0.00  0.00    +0.000 A 
ATOM     22  C   UNL     1       4.183   4.277  16.987  0.00  0.00    +0.000 A 
BRANCH  22  23
ATOM     23  C   UNL     1       2.866   3.662  17.367  0.00  0.00    +0.000 C 
ATOM     24  F   UNL     1       1.744   4.395  17.160  0.00  0.00    +0.000 F 
ATOM     25  F   UNL     1       2.636   2.490  16.702  0.00  0.00    +0.000 F 
ATOM     26  F   UNL     1       2.834   3.330  18.693  0.00  0.00    +0.000 F 
ENDBRANCH  22  23
ENDBRANCH  10  17
BRANCH   1  27
ATOM     27  C   UNL     1      -2.853  12.813  22.032  0.00  0.00    +0.000 C 
ATOM     28  O   UNL     1      -2.739  13.945  21.611  0.00  0.00    +0.000 OA
BRANCH  27  30
ATOM     29  C   UNL     1      -4.441  13.127  23.720  0.00  0.00    +0.000 C 
ATOM     30  O   UNL     1      -3.942  12.302  22.665  0.00  0.00    +0.000 OA
ENDBRANCH  27  30
ENDBRANCH   1  27
TORSDOF 4
ENDMDL
MODEL 7
REMARK VINA RESULT:      -7.2      3.149      4.877
REMARK  Name = 
REMARK  5 active torsions:
REMARK  status: ('A' for Active; 'I' for Inactive)
REMARK    1  A    between atoms: C_1  and  O_2
REMARK    2  A    between atoms: O_2  and  C_3
REMARK    3  A    between atoms: C_3  and  C_5
REMARK    4  A    between atoms: N_14  and  C_15
REMARK    5  A    between atoms: C_20  and  C_21
REMARK                            x       y       z     vdW  Elec       q    Type
REMARK                         _______ _______ _______ _____ _____    ______ ____
ROOT
ATOM      1  C   UNL     1       2.526   7.245  18.987  0.00  0.00    +0.000 A 
ATOM      2  C   UNL     1       2.640   8.124  17.898  0.00  0.00    +0.000 A 
ATOM      3  C   UNL     1       1.976   9.345  17.887  0.00  0.00    +0.000 A 
ATOM      4  C   UNL     1       1.225   9.641  19.019  0.00  0.00    +0.000 A 
ATOM      5  N   UNL     1       0.470  10.726  19.329  0.00  0.00    +0.000 N 
ATOM      6  C   UNL     1      -0.014  10.578  20.597  0.00  0.00    +0.000 A 
ATOM      7  N   UNL     1      -0.673  11.628  21.117  0.00  0.00    +0.000 N 
ATOM      8  C   UNL     1      -0.758  11.784  22.584  0.00  0.00    +0.000 C 
ATOM      9  C   UNL     1      -1.006  13.288  22.912  0.00  0.00    +0.000 C 
ATOM     10  N   UNL     1      -2.227  13.715  22.196  0.00  0.00    +0.000 N 
ATOM     11  C   UNL     1      -2.099  13.591  20.735  0.00  0.00    +0.000 C 
ATOM     12  C   UNL     1      -1.883  12.098  20.410  0.00  0.00    +0.000 C 
ATOM     13  N   UNL     1       0.360   9.433  21.116  0.00  0.00    +0.000 NA
ATOM     14  C   UNL     1       1.111   8.820  20.132  0.00  0.00    +0.000 A 
ATOM     15  C   UNL     1       1.754   7.577  20.118  0.00  0.00    +0.000 A 
ATOM     16  H   UNL     1       0.350  11.553  18.773  0.00  0.00    +0.000 HD
ENDROOT
BRANCH  10  17
ATOM     17  C   UNL     1      -3.034  14.686  22.738  0.00  0.00    +0.000 A 
ATOM     18  N   UNL     1      -2.576  15.962  22.701  0.00  0.00    +0.000 NA
ATOM     19  C   UNL     1      -3.315  16.945  23.264  0.00  0.00    +0.000 A 
ATOM     20  C   UNL     1      -4.527  16.732  23.884  0.00  0.00    +0.000 A 
ATOM     21  C   UNL     1      -4.990  15.431  23.936  0.00  0.00    +0.000 A 
ATOM     22  C   UNL     1      -4.237  14.380  23.378  0.00  0.00    +0.000 A 
BRANCH  22  23
ATOM     23  C   UNL     1      -4.775  12.993  23.582  0.00  0.00    +0.000 C 
ATOM     24  F   UNL     1      -4.013  12.116  24.281  0.00  0.00    +0.000 F 
ATOM     25  F   UNL     1      -5.975  12.999  24.236  0.00  0.00    +0.000 F 
ATOM     26  F   UNL     1      -5.025  12.373  22.389  0.00  0.00    +0.000 F 
ENDBRANCH  22  23
ENDBRANCH  10  17
BRANCH   1  27
ATOM     27  C   UNL     1       3.224   5.935  18.983  0.00  0.00    +0.000 C 
ATOM     28  O   UNL     1       4.394   5.803  19.273  0.00  0.00    +0.000 OA
BRANCH  27  30
ATOM     29  C   UNL     1       3.019   3.838  17.966  0.00  0.00    +0.000 C 
ATOM     30  O   UNL     1       2.376   4.941  18.610  0.00  0.00    +0.000 OA
ENDBRANCH  27  30
ENDBRANCH   1  27
TORSDOF 4
ENDMDL
MODEL 8
REMARK VINA RESULT:      -7.2      5.177      9.771
REMARK  Name = 
REMARK  5 active torsions:
REMARK  status: ('A' for Active; 'I' for Inactive)
REMARK    1  A    between atoms: C_1  and  O_2
REMARK    2  A    between atoms: O_2  and  C_3
REMARK    3  A    between atoms: C_3  and  C_5
REMARK    4  A    between atoms: N_14  and  C_15
REMARK    5  A    between atoms: C_20  and  C_21
REMARK                            x       y       z     vdW  Elec       q    Type
REMARK                         _______ _______ _______ _____ _____    ______ ____
ROOT
ATOM      1  C   UNL     1      -2.283  12.621  21.479  0.00  0.00    +0.000 A 
ATOM      2  C   UNL     1      -1.580  12.321  22.657  0.00  0.00    +0.000 A 
ATOM      3  C   UNL     1      -0.572  11.365  22.668  0.00  0.00    +0.000 A 
ATOM      4  C   UNL     1      -0.295  10.756  21.449  0.00  0.00    +0.000 A 
ATOM      5  N   UNL     1       0.610   9.801  21.114  0.00  0.00    +0.000 N 
ATOM      6  C   UNL     1       0.546   9.585  19.768  0.00  0.00    +0.000 A 
ATOM      7  N   UNL     1       1.473   8.765  19.244  0.00  0.00    +0.000 N 
ATOM      8  C   UNL     1       1.827   8.880  17.814  0.00  0.00    +0.000 C 
ATOM      9  C   UNL     1       3.258   8.300  17.605  0.00  0.00    +0.000 C 
ATOM     10  N   UNL     1       3.264   6.909  18.110  0.00  0.00    +0.000 N 
ATOM     11  C   UNL     1       2.953   6.827  19.546  0.00  0.00    +0.000 C 
ATOM     12  C   UNL     1       1.523   7.376  19.746  0.00  0.00    +0.000 C 
ATOM     13  N   UNL     1      -0.383  10.328  19.213  0.00  0.00    +0.000 NA
ATOM     14  C   UNL     1      -0.940  11.044  20.254  0.00  0.00    +0.000 A 
ATOM     15  C   UNL     1      -1.978  11.983  20.261  0.00  0.00    +0.000 A 
ATOM     16  H   UNL     1       1.289   9.378  21.721  0.00  0.00    +0.000 HD
ENDROOT
BRANCH  10  17
ATOM     17  C   UNL     1       4.083   5.973  17.528  0.00  0.00    +0.000 A 
ATOM     18  N   UNL     1       5.275   6.407  17.046  0.00  0.00    +0.000 NA
ATOM     19  C   UNL     1       6.093   5.531  16.423  0.00  0.00    +0.000 A 
ATOM     20  C   UNL     1       5.793   4.198  16.241  0.00  0.00    +0.000 A 
ATOM     21  C   UNL     1       4.574   3.754  16.718  0.00  0.00    +0.000 A 
ATOM     22  C   UNL     1       3.688   4.644  17.354  0.00  0.00    +0.000 A 
BRANCH  22  23
ATOM     23  C   UNL     1       2.347   4.088  17.739  0.00  0.00    +0.000 C 
ATOM     24  F   UNL     1       1.245   4.799  17.390  0.00  0.00    +0.000 F 
ATOM     25  F   UNL     1       2.134   2.847  17.208  0.00  0.00    +0.000 F 
ATOM     26  F   UNL     1       2.246   3.918  19.092  0.00  0.00    +0.000 F 
ENDBRANCH  22  23
ENDBRANCH  10  17
BRANCH   1  27
ATOM     27  C   UNL     1      -3.371  13.631  21.480  0.00  0.00    +0.000 C 
ATOM     28  O   UNL     1      -4.512  13.383  21.151  0.00  0.00    +0.000 OA
BRANCH  27  30
ATOM     29  C   UNL     1      -2.682  15.768  20.823  0.00  0.00    +0.000 C 
ATOM     30  O   UNL     1      -2.902  14.840  21.888  0.00  0.00    +0.000 OA
ENDBRANCH  27  30
ENDBRANCH   1  27
TORSDOF 4
ENDMDL
MODEL 9
REMARK VINA RESULT:      -7.2      1.847      2.411
REMARK  Name = 
REMARK  5 active torsions:
REMARK  status: ('A' for Active; 'I' for Inactive)
REMARK    1  A    between atoms: C_1  and  O_2
REMARK    2  A    between atoms: O_2  and  C_3
REMARK    3  A    between atoms: C_3  and  C_5
REMARK    4  A    between atoms: N_14  and  C_15
REMARK    5  A    between atoms: C_20  and  C_21
REMARK                            x       y       z     vdW  Elec       q    Type
REMARK                         _______ _______ _______ _____ _____    ______ ____
ROOT
ATOM      1  C   UNL     1       4.226   5.164  18.030  0.00  0.00    +0.000 A 
ATOM      2  C   UNL     1       3.833   4.638  19.271  0.00  0.00    +0.000 A 
ATOM      3  C   UNL     1       3.008   5.358  20.128  0.00  0.00    +0.000 A 
ATOM      4  C   UNL     1       2.587   6.601  19.668  0.00  0.00    +0.000 A 
ATOM      5  N   UNL     1       1.792   7.540  20.239  0.00  0.00    +0.000 N 
ATOM      6  C   UNL     1       1.613   8.565  19.354  0.00  0.00    +0.000 A 
ATOM      7  N   UNL     1       0.737   9.521  19.708  0.00  0.00    +0.000 N 
ATOM      8  C   UNL     1       0.086  10.339  18.664  0.00  0.00    +0.000 C 
ATOM      9  C   UNL     1      -1.250  10.904  19.233  0.00  0.00    +0.000 C 
ATOM     10  N   UNL     1      -0.938  11.655  20.468  0.00  0.00    +0.000 N 
ATOM     11  C   UNL     1      -0.332  10.807  21.507  0.00  0.00    +0.000 C 
ATOM     12  C   UNL     1       1.006  10.272  20.952  0.00  0.00    +0.000 C 
ATOM     13  N   UNL     1       2.283   8.354  18.246  0.00  0.00    +0.000 NA
ATOM     14  C   UNL     1       2.922   7.145  18.435  0.00  0.00    +0.000 A 
ATOM     15  C   UNL     1       3.781   6.428  17.596  0.00  0.00    +0.000 A 
ATOM     16  H   UNL     1       1.324   7.473  21.125  0.00  0.00    +0.000 HD
ENDROOT
BRANCH  10  17
ATOM     17  C   UNL     1      -1.703  12.739  20.822  0.00  0.00    +0.000 A 
ATOM     18  N   UNL     1      -2.791  12.502  21.597  0.00  0.00    +0.000 NA
ATOM     19  C   UNL     1      -3.600  13.532  21.932  0.00  0.00    +0.000 A 
ATOM     20  C   UNL     1      -3.388  14.834  21.531  0.00  0.00    +0.000 A 
ATOM     21  C   UNL     1      -2.289  15.077  20.730  0.00  0.00    +0.000 A 
ATOM     22  C   UNL     1      -1.436  14.025  20.345  0.00  0.00    +0.000 A 
BRANCH  22  23
ATOM     23  C   UNL     1      -0.334  14.376  19.387  0.00  0.00    +0.000 C 
ATOM     24  F   UNL     1       0.917  13.939  19.677  0.00  0.00    +0.000 F 
ATOM     25  F   UNL     1      -0.578  13.904  18.129  0.00  0.00    +0.000 F 
ATOM     26  F   UNL     1      -0.212  15.730  19.241  0.00  0.00    +0.000 F 
ENDBRANCH  22  23
ENDBRANCH  10  17
BRANCH   1  27
ATOM     27  C   UNL     1       5.121   4.396  17.129  0.00  0.00    +0.000 C 
ATOM     28  O   UNL     1       4.827   4.099  15.990  0.00  0.00    +0.000 OA
BRANCH  27  30
ATOM     29  C   UNL     1       7.414   4.828  17.306  0.00  0.00    +0.000 C 
ATOM     30  O   UNL     1       6.283   4.081  17.762  0.00  0.00    +0.000 OA
ENDBRANCH  27  30
ENDBRANCH   1  27
TORSDOF 4
ENDMDL
