MODEL 1
REMARK VINA RESULT:      -7.1      0.000      0.000
REMARK  Name = 
REMARK  3 active torsions:
REMARK  status: ('A' for Active; 'I' for Inactive)
REMARK    1  A    between atoms: C_2  and  C_3
REMARK    2  A    between atoms: C_8  and  C_10
REMARK    3  A    between atoms: C_12  and  C_13
REMARK                            x       y       z     vdW  Elec       q    Type
REMARK                         _______ _______ _______ _____ _____    ______ ____
ROOT
ATOM      1  C   UNL     1       4.310   5.000  18.079  0.00  0.00    +0.000 C 
ATOM      2  C   UNL     1       4.625   4.412  16.714  0.00  0.00    +0.000 C 
ATOM      3  C   UNL     1       5.214   5.571  15.910  0.00  0.00    +0.000 C 
ATOM      4  C   UNL     1       5.625   6.607  16.969  0.00  0.00    +0.000 C 
ATOM      5  N   UNL     1       5.309   6.050  18.287  0.00  0.00    +0.000 NA
ATOM      6  H   UNL     1       4.947   6.774  18.908  0.00  0.00    +0.000 HD
ENDROOT
BRANCH   3   7
ATOM      7  C   UNL     1       6.387   5.194  15.003  0.00  0.00    +0.000 C 
ATOM      8  O   UNL     1       7.474   5.770  15.119  0.00  0.00    +0.000 OA
ATOM      9  N   UNL     1       6.195   4.247  14.004  0.00  0.00    +0.000 N 
ATOM     10  C   UNL     1       7.360   3.806  13.231  0.00  0.00    +0.000 C 
ATOM     11  C   UNL     1       7.109   3.938  11.731  0.00  0.00    +0.000 C 
ATOM     12  C   UNL     1       5.835   3.201  11.327  0.00  0.00    +0.000 C 
ATOM     13  C   UNL     1       4.651   3.677  12.164  0.00  0.00    +0.000 C 
ATOM     14  C   UNL     1       4.940   3.580  13.663  0.00  0.00    +0.000 C 
ENDBRANCH   3   7
BRANCH   1  20
ATOM     15  C   UNL     1       1.761   4.246  19.764  0.00  0.00    +0.000 C 
ATOM     16  C   UNL     1       0.880   3.222  20.494  0.00  0.00    +0.000 C 
ATOM     17  C   UNL     1       1.772   2.753  21.635  0.00  0.00    +0.000 C 
ATOM     18  C   UNL     1       3.139   2.677  20.973  0.00  0.00    +0.000 C 
ATOM     19  N   UNL     1       3.119   3.691  19.927  0.00  0.00    +0.000 N 
ATOM     20  C   UNL     1       4.269   3.956  19.213  0.00  0.00    +0.000 C 
ATOM     21  O   UNL     1       5.321   3.374  19.504  0.00  0.00    +0.000 OA
BRANCH  15  23
ATOM     22  N   UNL     1       1.568   6.646  20.847  0.00  0.00    +0.000 NA
ATOM     23  C   UNL     1       1.632   5.579  20.392  0.00  0.00    +0.000 C 
ENDBRANCH  15  23
ENDBRANCH   1  20
TORSDOF 3
ENDMDL
MODEL 2
REMARK VINA RESULT:      -6.3      4.748      7.847
REMARK  Name = 
REMARK  3 active torsions:
REMARK  status: ('A' for Active; 'I' for Inactive)
REMARK    1  A    between atoms: C_2  and  C_3
REMARK    2  A    between atoms: C_8  and  C_10
REMARK    3  A    between atoms: C_12  and  C_13
REMARK                            x       y       z     vdW  Elec       q    Type
REMARK                         _______ _______ _______ _____ _____    ______ ____
ROOT
ATOM      1  C   UNL     1       1.992   7.042  18.689  0.00  0.00    +0.000 C 
ATOM      2  C   UNL     1       1.760   8.270  17.825  0.00  0.00    +0.000 C 
ATOM      3  C   UNL     1       1.096   9.287  18.754  0.00  0.00    +0.000 C 
ATOM      4  C   UNL     1       1.401   8.774  20.170  0.00  0.00    +0.000 C 
ATOM      5  N   UNL     1       2.208   7.557  20.043  0.00  0.00    +0.000 NA
ATOM      6  H   UNL     1       1.933   6.865  20.740  0.00  0.00    +0.000 HD
ENDROOT
BRANCH   3   7
ATOM      7  C   UNL     1       1.563  10.731  18.563  0.00  0.00    +0.000 C 
ATOM      8  O   UNL     1       2.583  10.974  17.911  0.00  0.00    +0.000 OA
ATOM      9  N   UNL     1       0.867  11.758  19.191  0.00  0.00    +0.000 N 
ATOM     10  C   UNL     1       1.251  13.141  18.894  0.00  0.00    +0.000 C 
ATOM     11  C   UNL     1       1.520  13.925  20.175  0.00  0.00    +0.000 C 
ATOM     12  C   UNL     1       0.324  13.849  21.120  0.00  0.00    +0.000 C 
ATOM     13  C   UNL     1      -0.053  12.395  21.391  0.00  0.00    +0.000 C 
ATOM     14  C   UNL     1      -0.273  11.615  20.094  0.00  0.00    +0.000 C 
ENDBRANCH   3   7
BRANCH   1  20
ATOM     15  C   UNL     1       1.877   3.902  18.521  0.00  0.00    +0.000 C 
ATOM     16  C   UNL     1       2.208   2.573  17.824  0.00  0.00    +0.000 C 
ATOM     17  C   UNL     1       3.727   2.512  17.908  0.00  0.00    +0.000 C 
ATOM     18  C   UNL     1       4.128   3.957  17.655  0.00  0.00    +0.000 C 
ATOM     19  N   UNL     1       3.022   4.760  18.162  0.00  0.00    +0.000 N 
ATOM     20  C   UNL     1       3.134   6.134  18.187  0.00  0.00    +0.000 C 
ATOM     21  O   UNL     1       4.191   6.672  17.836  0.00  0.00    +0.000 OA
BRANCH  15  23
ATOM     22  N   UNL     1       1.654   3.595  21.134  0.00  0.00    +0.000 NA
ATOM     23  C   UNL     1       1.772   3.706  19.984  0.00  0.00    +0.000 C 
ENDBRANCH  15  23
ENDBRANCH   1  20
TORSDOF 3
ENDMDL
MODEL 3
REMARK VINA RESULT:      -6.3      4.084      5.945
REMARK  Name = 
REMARK  3 active torsions:
REMARK  status: ('A' for Active; 'I' for Inactive)
REMARK    1  A    between atoms: C_2  and  C_3
REMARK    2  A    between atoms: C_8  and  C_10
REMARK    3  A    between atoms: C_12  and  C_13
REMARK                            x       y       z     vdW  Elec       q    Type
REMARK                         _______ _______ _______ _____ _____    ______ ____
ROOT
ATOM      1  C   UNL     1       1.945   8.653  19.239  0.00  0.00    +0.000 C 
ATOM      2  C   UNL     1       2.785   8.129  18.086  0.00  0.00    +0.000 C 
ATOM      3  C   UNL     1       3.446   6.859  18.623  0.00  0.00    +0.000 C 
ATOM      4  C   UNL     1       2.611   6.481  19.857  0.00  0.00    +0.000 C 
ATOM      5  N   UNL     1       1.531   7.464  19.987  0.00  0.00    +0.000 NA
ATOM      6  H   UNL     1       1.368   7.694  20.968  0.00  0.00    +0.000 HD
ENDROOT
BRANCH   3   7
ATOM      7  C   UNL     1       3.530   5.706  17.622  0.00  0.00    +0.000 C 
ATOM      8  O   UNL     1       2.662   4.827  17.610  0.00  0.00    +0.000 OA
ATOM      9  N   UNL     1       4.630   5.622  16.775  0.00  0.00    +0.000 N 
ATOM     10  C   UNL     1       4.630   4.586  15.738  0.00  0.00    +0.000 C 
ATOM     11  C   UNL     1       5.904   3.748  15.797  0.00  0.00    +0.000 C 
ATOM     12  C   UNL     1       7.143   4.637  15.725  0.00  0.00    +0.000 C 
ATOM     13  C   UNL     1       7.096   5.710  16.809  0.00  0.00    +0.000 C 
ATOM     14  C   UNL     1       5.792   6.508  16.762  0.00  0.00    +0.000 C 
ENDBRANCH   3   7
BRANCH   1  20
ATOM     15  C   UNL     1       0.609  10.901  20.989  0.00  0.00    +0.000 C 
ATOM     16  C   UNL     1      -0.047  12.282  21.144  0.00  0.00    +0.000 C 
ATOM     17  C   UNL     1      -1.334  12.141  20.343  0.00  0.00    +0.000 C 
ATOM     18  C   UNL     1      -0.886  11.321  19.143  0.00  0.00    +0.000 C 
ATOM     19  N   UNL     1       0.213  10.496  19.627  0.00  0.00    +0.000 N 
ATOM     20  C   UNL     1       0.765   9.542  18.797  0.00  0.00    +0.000 C 
ATOM     21  O   UNL     1       0.287   9.354  17.672  0.00  0.00    +0.000 OA
BRANCH  15  23
ATOM     22  N   UNL     1      -0.319   9.277  22.852  0.00  0.00    +0.000 NA
ATOM     23  C   UNL     1       0.093   9.967  22.014  0.00  0.00    +0.000 C 
ENDBRANCH  15  23
ENDBRANCH   1  20
TORSDOF 3
ENDMDL
MODEL 4
REMARK VINA RESULT:      -6.3      1.852      2.608
REMARK  Name = 
REMARK  3 active torsions:
REMARK  status: ('A' for Active; 'I' for Inactive)
REMARK    1  A    between atoms: C_2  and  C_3
REMARK    2  A    between atoms: C_8  and  C_10
REMARK    3  A    between atoms: C_12  and  C_13
REMARK                            x       y       z     vdW  Elec       q    Type
REMARK                         _______ _______ _______ _____ _____    ______ ____
ROOT
ATOM      1  C   UNL     1       4.096   5.611  18.954  0.00  0.00    +0.000 C 
ATOM      2  C   UNL     1       4.650   6.362  17.755  0.00  0.00    +0.000 C 
ATOM      3  C   UNL     1       6.146   6.505  18.034  0.00  0.00    +0.000 C 
ATOM      4  C   UNL     1       6.440   5.452  19.116  0.00  0.00    +0.000 C 
ATOM      5  N   UNL     1       5.188   4.746  19.406  0.00  0.00    +0.000 NA
ATOM      6  H   UNL     1       5.105   4.553  20.405  0.00  0.00    +0.000 HD
ENDROOT
BRANCH   3   7
ATOM      7  C   UNL     1       7.048   6.324  16.812  0.00  0.00    +0.000 C 
ATOM      8  O   UNL     1       7.917   7.162  16.550  0.00  0.00    +0.000 OA
ATOM      9  N   UNL     1       6.830   5.246  15.961  0.00  0.00    +0.000 N 
ATOM     10  C   UNL     1       7.781   5.019  14.869  0.00  0.00    +0.000 C 
ATOM     11  C   UNL     1       7.064   4.904  13.528  0.00  0.00    +0.000 C 
ATOM     12  C   UNL     1       5.980   3.830  13.582  0.00  0.00    +0.000 C 
ATOM     13  C   UNL     1       5.021   4.094  14.739  0.00  0.00    +0.000 C 
ATOM     14  C   UNL     1       5.763   4.252  16.067  0.00  0.00    +0.000 C 
ENDBRANCH   3   7
BRANCH   1  20
ATOM     15  C   UNL     1       2.805   3.435  20.825  0.00  0.00    +0.000 C 
ATOM     16  C   UNL     1       1.584   2.751  21.458  0.00  0.00    +0.000 C 
ATOM     17  C   UNL     1       0.873   2.140  20.259  0.00  0.00    +0.000 C 
ATOM     18  C   UNL     1       1.039   3.215  19.196  0.00  0.00    +0.000 C 
ATOM     19  N   UNL     1       2.291   3.887  19.517  0.00  0.00    +0.000 N 
ATOM     20  C   UNL     1       2.789   4.846  18.661  0.00  0.00    +0.000 C 
ATOM     21  O   UNL     1       2.201   5.088  17.600  0.00  0.00    +0.000 OA
BRANCH  15  23
ATOM     22  N   UNL     1       4.810   1.745  20.516  0.00  0.00    +0.000 NA
ATOM     23  C   UNL     1       3.917   2.471  20.676  0.00  0.00    +0.000 C 
ENDBRANCH  15  23
ENDBRANCH   1  20
TORSDOF 3
ENDMDL
MODEL 5
REMARK VINA RESULT:      -6.3      4.809      7.082
REMARK  Name = 
REMARK  3 active torsions:
REMARK  status: ('A' for Active; 'I' for Inactive)
REMARK    1  A    between atoms: C_2  and  C_3
REMARK    2  A    between atoms: C_8  and  C_10
REMARK    3  A    between atoms: C_12  and  C_13
REMARK                            x       y       z     vdW  Elec       q    Type
REMARK                         _______ _______ _______ _____ _____    ______ ____
ROOT
ATOM      1  C   UNL     1       1.141   9.385  19.703  0.00  0.00    +0.000 C 
ATOM      2  C   UNL     1       1.799   8.457  18.696  0.00  0.00    +0.000 C 
ATOM      3  C   UNL     1       2.464   7.367  19.539  0.00  0.00    +0.000 C 
ATOM      4  C   UNL     1       1.778   7.467  20.911  0.00  0.00    +0.000 C 
ATOM      5  N   UNL     1       0.772   8.530  20.834  0.00  0.00    +0.000 NA
ATOM      6  H   UNL     1       0.748   9.069  21.700  0.00  0.00    +0.000 HD
ENDROOT
BRANCH   3   7
ATOM      7  C   UNL     1       2.363   5.956  18.958  0.00  0.00    +0.000 C 
ATOM      8  O   UNL     1       1.585   5.133  19.452  0.00  0.00    +0.000 OA
ATOM      9  N   UNL     1       3.207   5.589  17.915  0.00  0.00    +0.000 N 
ATOM     10  C   UNL     1       3.009   4.279  17.288  0.00  0.00    +0.000 C 
ATOM     11  C   UNL     1       4.309   3.481  17.257  0.00  0.00    +0.000 C 
ATOM     12  C   UNL     1       5.421   4.280  16.584  0.00  0.00    +0.000 C 
ATOM     13  C   UNL     1       5.585   5.641  17.255  0.00  0.00    +0.000 C 
ATOM     14  C   UNL     1       4.262   6.406  17.317  0.00  0.00    +0.000 C 
ENDBRANCH   3   7
BRANCH   1  20
ATOM     15  C   UNL     1      -0.055  12.009  20.963  0.00  0.00    +0.000 C 
ATOM     16  C   UNL     1      -0.675  13.409  20.833  0.00  0.00    +0.000 C 
ATOM     17  C   UNL     1      -2.005  13.132  20.147  0.00  0.00    +0.000 C 
ATOM     18  C   UNL     1      -1.639  12.051  19.143  0.00  0.00    +0.000 C 
ATOM     19  N   UNL     1      -0.531  11.321  19.747  0.00  0.00    +0.000 N 
ATOM     20  C   UNL     1      -0.043  10.189  19.129  0.00  0.00    +0.000 C 
ATOM     21  O   UNL     1      -0.584   9.768  18.099  0.00  0.00    +0.000 OA
BRANCH  15  23
ATOM     22  N   UNL     1      -0.899  10.870  23.190  0.00  0.00    +0.000 NA
ATOM     23  C   UNL     1      -0.534  11.345  22.195  0.00  0.00    +0.000 C 
ENDBRANCH  15  23
ENDBRANCH   1  20
TORSDOF 3
ENDMDL
MODEL 6
REMARK VINA RESULT:      -6.2      4.362      6.823
REMARK  Name = 
REMARK  3 active torsions:
REMARK  status: ('A' for Active; 'I' for Inactive)
REMARK    1  A    between atoms: C_2  and  C_3
REMARK    2  A    between atoms: C_8  and  C_10
REMARK    3  A    between atoms: C_12  and  C_13
REMARK                            x       y       z     vdW  Elec       q    Type
REMARK                         _______ _______ _______ _____ _____    ______ ____
ROOT
ATOM      1  C   UNL     1       1.766   8.746  19.323  0.00  0.00    +0.000 C 
ATOM      2  C   UNL     1       2.223   7.848  18.185  0.00  0.00    +0.000 C 
ATOM      3  C   UNL     1       2.721   6.571  18.864  0.00  0.00    +0.000 C 
ATOM      4  C   UNL     1       2.108   6.619  20.274  0.00  0.00    +0.000 C 
ATOM      5  N   UNL     1       1.296   7.835  20.369  0.00  0.00    +0.000 NA
ATOM      6  H   UNL     1       1.393   8.263  21.290  0.00  0.00    +0.000 HD
ENDROOT
BRANCH   3   7
ATOM      7  C   UNL     1       2.362   5.275  18.136  0.00  0.00    +0.000 C 
ATOM      8  O   UNL     1       1.296   5.182  17.519  0.00  0.00    +0.000 OA
ATOM      9  N   UNL     1       3.216   4.182  18.235  0.00  0.00    +0.000 N 
ATOM     10  C   UNL     1       2.922   2.994  17.429  0.00  0.00    +0.000 C 
ATOM     11  C   UNL     1       2.879   1.738  18.294  0.00  0.00    +0.000 C 
ATOM     12  C   UNL     1       4.168   1.586  19.096  0.00  0.00    +0.000 C 
ATOM     13  C   UNL     1       4.447   2.848  19.908  0.00  0.00    +0.000 C 
ATOM     14  C   UNL     1       4.440   4.101  19.030  0.00  0.00    +0.000 C 
ENDBRANCH   3   7
BRANCH   1  20
ATOM     15  C   UNL     1       0.753  11.118  21.125  0.00  0.00    +0.000 C 
ATOM     16  C   UNL     1       0.292  12.571  21.311  0.00  0.00    +0.000 C 
ATOM     17  C   UNL     1      -1.004  12.624  20.515  0.00  0.00    +0.000 C 
ATOM     18  C   UNL     1      -0.676  11.776  19.296  0.00  0.00    +0.000 C 
ATOM     19  N   UNL     1       0.302  10.799  19.757  0.00  0.00    +0.000 N 
ATOM     20  C   UNL     1       0.717   9.796  18.905  0.00  0.00    +0.000 C 
ATOM     21  O   UNL     1       0.215   9.698  17.780  0.00  0.00    +0.000 OA
BRANCH  15  23
ATOM     22  N   UNL     1      -0.332   9.551  22.951  0.00  0.00    +0.000 NA
ATOM     23  C   UNL     1       0.117  10.241  22.133  0.00  0.00    +0.000 C 
ENDBRANCH  15  23
ENDBRANCH   1  20
TORSDOF 3
ENDMDL
MODEL 7
REMARK VINA RESULT:      -6.2      5.104      8.812
REMARK  Name = 
REMARK  3 active torsions:
REMARK  status: ('A' for Active; 'I' for Inactive)
REMARK    1  A    between atoms: C_2  and  C_3
REMARK    2  A    between atoms: C_8  and  C_10
REMARK    3  A    between atoms: C_12  and  C_13
REMARK                            x       y       z     vdW  Elec       q    Type
REMARK                         _______ _______ _______ _____ _____    ______ ____
ROOT
ATOM      1  C   UNL     1       1.685   7.741  18.943  0.00  0.00    +0.000 C 
ATOM      2  C   UNL     1       1.240   9.095  18.416  0.00  0.00    +0.000 C 
ATOM      3  C   UNL     1       0.568   9.781  19.605  0.00  0.00    +0.000 C 
ATOM      4  C   UNL     1       1.064   9.000  20.833  0.00  0.00    +0.000 C 
ATOM      5  N   UNL     1       1.979   7.956  20.362  0.00  0.00    +0.000 NA
ATOM      6  H   UNL     1       1.847   7.094  20.891  0.00  0.00    +0.000 HD
ENDROOT
BRANCH   3   7
ATOM      7  C   UNL     1       0.860  11.278  19.732  0.00  0.00    +0.000 C 
ATOM      8  O   UNL     1       1.870  11.761  19.211  0.00  0.00    +0.000 OA
ATOM      9  N   UNL     1       0.014  12.071  20.498  0.00  0.00    +0.000 N 
ATOM     10  C   UNL     1       0.236  13.520  20.503  0.00  0.00    +0.000 C 
ATOM     11  C   UNL     1       0.348  14.056  21.928  0.00  0.00    +0.000 C 
ATOM     12  C   UNL     1      -0.870  13.655  22.756  0.00  0.00    +0.000 C 
ATOM     13  C   UNL     1      -1.075  12.144  22.712  0.00  0.00    +0.000 C 
ATOM     14  C   UNL     1      -1.139  11.621  21.276  0.00  0.00    +0.000 C 
ENDBRANCH   3   7
BRANCH   1  20
ATOM     15  C   UNL     1       2.072   4.671  18.370  0.00  0.00    +0.000 C 
ATOM     16  C   UNL     1       2.498   3.511  17.458  0.00  0.00    +0.000 C 
ATOM     17  C   UNL     1       3.997   3.727  17.306  0.00  0.00    +0.000 C 
ATOM     18  C   UNL     1       4.101   5.240  17.195  0.00  0.00    +0.000 C 
ATOM     19  N   UNL     1       2.979   5.762  17.965  0.00  0.00    +0.000 N 
ATOM     20  C   UNL     1       2.861   7.123  18.159  0.00  0.00    +0.000 C 
ATOM     21  O   UNL     1       3.737   7.884  17.731  0.00  0.00    +0.000 OA
BRANCH  15  23
ATOM     22  N   UNL     1       2.373   4.066  20.922  0.00  0.00    +0.000 NA
ATOM     23  C   UNL     1       2.253   4.304  19.792  0.00  0.00    +0.000 C 
ENDBRANCH  15  23
ENDBRANCH   1  20
TORSDOF 3
ENDMDL
MODEL 8
REMARK VINA RESULT:      -6.2      1.558      1.928
REMARK  Name = 
REMARK  3 active torsions:
REMARK  status: ('A' for Active; 'I' for Inactive)
REMARK    1  A    between atoms: C_2  and  C_3
REMARK    2  A    between atoms: C_8  and  C_10
REMARK    3  A    between atoms: C_12  and  C_13
REMARK                            x       y       z     vdW  Elec       q    Type
REMARK                         _______ _______ _______ _____ _____    ______ ____
ROOT
ATOM      1  C   UNL     1       5.167   4.827  19.429  0.00  0.00    +0.000 C 
ATOM      2  C   UNL     1       5.182   5.400  18.022  0.00  0.00    +0.000 C 
ATOM      3  C   UNL     1       6.424   6.291  17.971  0.00  0.00    +0.000 C 
ATOM      4  C   UNL     1       7.281   5.827  19.160  0.00  0.00    +0.000 C 
ATOM      5  N   UNL     1       6.575   4.726  19.821  0.00  0.00    +0.000 NA
ATOM      6  H   UNL     1       6.672   4.791  20.835  0.00  0.00    +0.000 HD
ENDROOT
BRANCH   3   7
ATOM      7  C   UNL     1       7.203   6.232  16.656  0.00  0.00    +0.000 C 
ATOM      8  O   UNL     1       7.965   7.152  16.342  0.00  0.00    +0.000 OA
ATOM      9  N   UNL     1       6.989   5.167  15.788  0.00  0.00    +0.000 N 
ATOM     10  C   UNL     1       7.835   5.061  14.595  0.00  0.00    +0.000 C 
ATOM     11  C   UNL     1       6.992   4.927  13.331  0.00  0.00    +0.000 C 
ATOM     12  C   UNL     1       6.015   3.760  13.451  0.00  0.00    +0.000 C 
ATOM     13  C   UNL     1       5.165   3.899  14.711  0.00  0.00    +0.000 C 
ATOM     14  C   UNL     1       6.028   4.079  15.961  0.00  0.00    +0.000 C 
ENDBRANCH   3   7
BRANCH   1  20
ATOM     15  C   UNL     1       2.087   4.452  18.904  0.00  0.00    +0.000 C 
ATOM     16  C   UNL     1       0.896   3.638  18.375  0.00  0.00    +0.000 C 
ATOM     17  C   UNL     1       0.891   2.412  19.277  0.00  0.00    +0.000 C 
ATOM     18  C   UNL     1       2.375   2.116  19.438  0.00  0.00    +0.000 C 
ATOM     19  N   UNL     1       3.040   3.408  19.329  0.00  0.00    +0.000 N 
ATOM     20  C   UNL     1       4.398   3.496  19.552  0.00  0.00    +0.000 C 
ATOM     21  O   UNL     1       5.030   2.491  19.901  0.00  0.00    +0.000 OA
BRANCH  15  23
ATOM     22  N   UNL     1       1.340   6.021  20.892  0.00  0.00    +0.000 NA
ATOM     23  C   UNL     1       1.666   5.306  20.037  0.00  0.00    +0.000 C 
ENDBRANCH  15  23
ENDBRANCH   1  20
TORSDOF 3
ENDMDL
MODEL 9
REMARK VINA RESULT:      -6.2      7.313     10.377
REMARK  Name = 
REMARK  3 active torsions:
REMARK  status: ('A' for Active; 'I' for Inactive)
REMARK    1  A    between atoms: C_2  and  C_3
REMARK    2  A    between atoms: C_8  and  C_10
REMARK    3  A    between atoms: C_12  and  C_13
REMARK                            x       y       z     vdW  Elec       q    Type
REMARK                         _______ _______ _______ _____ _____    ______ ____
ROOT
ATOM      1  C   UNL     1       0.247  10.755  19.028  0.00  0.00    +0.000 C 
ATOM      2  C   UNL     1      -1.203  10.318  18.904  0.00  0.00    +0.000 C 
ATOM      3  C   UNL     1      -1.995  11.617  18.745  0.00  0.00    +0.000 C 
ATOM      4  C   UNL     1      -0.946  12.661  18.329  0.00  0.00    +0.000 C 
ATOM      5  N   UNL     1       0.349  11.982  18.235  0.00  0.00    +0.000 NA
ATOM      6  H   UNL     1       1.097  12.580  18.591  0.00  0.00    +0.000 HD
ENDROOT
BRANCH   3   7
ATOM      7  C   UNL     1      -3.150  11.546  17.745  0.00  0.00    +0.000 C 
ATOM      8  O   UNL     1      -2.927  11.316  16.552  0.00  0.00    +0.000 OA
ATOM      9  N   UNL     1      -4.443  11.813  18.181  0.00  0.00    +0.000 N 
ATOM     10  C   UNL     1      -5.549  11.615  17.239  0.00  0.00    +0.000 C 
ATOM     11  C   UNL     1      -6.423  12.863  17.146  0.00  0.00    +0.000 C 
ATOM     12  C   UNL     1      -6.911  13.289  18.528  0.00  0.00    +0.000 C 
ATOM     13  C   UNL     1      -5.732  13.469  19.481  0.00  0.00    +0.000 C 
ATOM     14  C   UNL     1      -4.843  12.225  19.525  0.00  0.00    +0.000 C 
ENDBRANCH   3   7
BRANCH   1  20
ATOM     15  C   UNL     1       0.894   8.151  20.672  0.00  0.00    +0.000 C 
ATOM     16  C   UNL     1       1.234   6.655  20.754  0.00  0.00    +0.000 C 
ATOM     17  C   UNL     1       2.603   6.577  20.093  0.00  0.00    +0.000 C 
ATOM     18  C   UNL     1       2.467   7.560  18.940  0.00  0.00    +0.000 C 
ATOM     19  N   UNL     1       1.513   8.562  19.397  0.00  0.00    +0.000 N 
ATOM     20  C   UNL     1       1.262   9.670  18.614  0.00  0.00    +0.000 C 
ATOM     21  O   UNL     1       1.890   9.835  17.561  0.00  0.00    +0.000 OA
BRANCH  15  23
ATOM     22  N   UNL     1       1.878   9.446  22.752  0.00  0.00    +0.000 NA
ATOM     23  C   UNL     1       1.474   8.876  21.824  0.00  0.00    +0.000 C 
ENDBRANCH  15  23
ENDBRANCH   1  20
TORSDOF 3
ENDMDL
