MODEL 1
REMARK VINA RESULT:      -7.2      0.000      0.000
REMARK  Name = 
REMARK  5 active torsions:
REMARK  status: ('A' for Active; 'I' for Inactive)
REMARK    1  A    between atoms: C_1  and  C_2
REMARK    2  A    between atoms: N_4  and  C_5
REMARK    3  A    between atoms: C_8  and  N_9
REMARK    4  A    between atoms: N_9  and  C_10
REMARK    5  A    between atoms: N_9  and  C_11
REMARK                            x       y       z     vdW  Elec       q    Type
REMARK                         _______ _______ _______ _____ _____    ______ ____
ROOT
ATOM      1  C   UNL     1       6.266   3.500  12.778  0.00  0.00    +0.000 C 
ATOM      2  C   UNL     1       6.135   4.478  13.936  0.00  0.00    +0.000 C 
ATOM      3  C   UNL     1       5.776   3.771  15.245  0.00  0.00    +0.000 C 
ATOM      4  N   UNL     1       5.703   4.737  16.329  0.00  0.00    +0.000 N 
ATOM      5  C   UNL     1       6.710   5.695  16.453  0.00  0.00    +0.000 C 
ATOM      6  O   UNL     1       6.878   6.457  17.405  0.00  0.00    +0.000 OA
ATOM      7  N   UNL     1       7.596   5.758  15.406  0.00  0.00    +0.000 N 
ATOM      8  C   UNL     1       7.419   5.245  14.151  0.00  0.00    +0.000 C 
ATOM      9  O   UNL     1       8.215   5.499  13.249  0.00  0.00    +0.000 OA
ATOM     10  H   UNL     1       8.372   6.388  15.528  0.00  0.00    +0.000 HD
ENDROOT
BRANCH   4  11
ATOM     11  C   UNL     1       4.807   4.522  17.412  0.00  0.00    +0.000 A 
ATOM     12  C   UNL     1       5.196   3.733  18.492  0.00  0.00    +0.000 A 
ATOM     13  C   UNL     1       4.312   3.479  19.549  0.00  0.00    +0.000 A 
ATOM     14  C   UNL     1       2.999   3.973  19.567  0.00  0.00    +0.000 A 
ATOM     15  C   UNL     1       2.631   4.768  18.468  0.00  0.00    +0.000 A 
ATOM     16  C   UNL     1       3.521   5.061  17.417  0.00  0.00    +0.000 A 
BRANCH  14  17
ATOM     17  N   UNL     1       2.117   3.632  20.583  0.00  0.00    +0.000 N 
ATOM     18  C   UNL     1       0.687   3.907  20.462  0.00  0.00    +0.000 C 
ATOM     19  C   UNL     1       2.469   2.678  21.628  0.00  0.00    +0.000 C 
ENDBRANCH  14  17
ENDBRANCH   4  11
TORSDOF 2
ENDMDL
MODEL 2
REMARK VINA RESULT:      -7.1      0.330      1.134
REMARK  Name = 
REMARK  5 active torsions:
REMARK  status: ('A' for Active; 'I' for Inactive)
REMARK    1  A    between atoms: C_1  and  C_2
REMARK    2  A    between atoms: N_4  and  C_5
REMARK    3  A    between atoms: C_8  and  N_9
REMARK    4  A    between atoms: N_9  and  C_10
REMARK    5  A    between atoms: N_9  and  C_11
REMARK                            x       y       z     vdW  Elec       q    Type
REMARK                         _______ _______ _______ _____ _____    ______ ____
ROOT
ATOM      1  C   UNL     1       6.270   3.429  12.552  0.00  0.00    +0.000 C 
ATOM      2  C   UNL     1       6.123   4.375  13.736  0.00  0.00    +0.000 C 
ATOM      3  C   UNL     1       5.832   3.623  15.037  0.00  0.00    +0.000 C 
ATOM      4  N   UNL     1       5.743   4.560  16.145  0.00  0.00    +0.000 N 
ATOM      5  C   UNL     1       6.706   5.562  16.265  0.00  0.00    +0.000 C 
ATOM      6  O   UNL     1       6.863   6.310  17.231  0.00  0.00    +0.000 OA
ATOM      7  N   UNL     1       7.561   5.689  15.198  0.00  0.00    +0.000 N 
ATOM      8  C   UNL     1       7.376   5.197  13.936  0.00  0.00    +0.000 C 
ATOM      9  O   UNL     1       8.134   5.508  13.021  0.00  0.00    +0.000 OA
ATOM     10  H   UNL     1       8.309   6.353  15.315  0.00  0.00    +0.000 HD
ENDROOT
BRANCH   4  11
ATOM     11  C   UNL     1       4.886   4.278  17.244  0.00  0.00    +0.000 A 
ATOM     12  C   UNL     1       3.507   4.410  17.104  0.00  0.00    +0.000 A 
ATOM     13  C   UNL     1       2.651   4.174  18.188  0.00  0.00    +0.000 A 
ATOM     14  C   UNL     1       3.126   3.822  19.460  0.00  0.00    +0.000 A 
ATOM     15  C   UNL     1       4.521   3.693  19.575  0.00  0.00    +0.000 A 
ATOM     16  C   UNL     1       5.390   3.892  18.485  0.00  0.00    +0.000 A 
BRANCH  14  17
ATOM     17  N   UNL     1       2.262   3.681  20.536  0.00  0.00    +0.000 N 
ATOM     18  C   UNL     1       0.915   4.247  20.499  0.00  0.00    +0.000 C 
ATOM     19  C   UNL     1       2.475   2.681  21.576  0.00  0.00    +0.000 C 
ENDBRANCH  14  17
ENDBRANCH   4  11
TORSDOF 2
ENDMDL
MODEL 3
REMARK VINA RESULT:      -6.7      1.019      1.019
REMARK  Name = 
REMARK  5 active torsions:
REMARK  status: ('A' for Active; 'I' for Inactive)
REMARK    1  A    between atoms: C_1  and  C_2
REMARK    2  A    between atoms: N_4  and  C_5
REMARK    3  A    between atoms: C_8  and  N_9
REMARK    4  A    between atoms: N_9  and  C_10
REMARK    5  A    between atoms: N_9  and  C_11
REMARK                            x       y       z     vdW  Elec       q    Type
REMARK                         _______ _______ _______ _____ _____    ______ ____
ROOT
ATOM      1  C   UNL     1       5.460   3.279  12.289  0.00  0.00    +0.000 C 
ATOM      2  C   UNL     1       5.710   4.318  13.372  0.00  0.00    +0.000 C 
ATOM      3  C   UNL     1       5.415   3.771  14.771  0.00  0.00    +0.000 C 
ATOM      4  N   UNL     1       5.709   4.782  15.773  0.00  0.00    +0.000 N 
ATOM      5  C   UNL     1       6.899   5.504  15.680  0.00  0.00    +0.000 C 
ATOM      6  O   UNL     1       7.363   6.258  16.536  0.00  0.00    +0.000 OA
ATOM      7  N   UNL     1       7.610   5.322  14.520  0.00  0.00    +0.000 N 
ATOM      8  C   UNL     1       7.143   4.799  13.346  0.00  0.00    +0.000 C 
ATOM      9  O   UNL     1       7.828   4.830  12.327  0.00  0.00    +0.000 OA
ATOM     10  H   UNL     1       8.509   5.775  14.483  0.00  0.00    +0.000 HD
ENDROOT
BRANCH   4  11
ATOM     11  C   UNL     1       4.962   4.819  16.983  0.00  0.00    +0.000 A 
ATOM     12  C   UNL     1       5.027   3.751  17.874  0.00  0.00    +0.000 A 
ATOM     13  C   UNL     1       4.267   3.754  19.052  0.00  0.00    +0.000 A 
ATOM     14  C   UNL     1       3.394   4.802  19.382  0.00  0.00    +0.000 A 
ATOM     15  C   UNL     1       3.348   5.868  18.468  0.00  0.00    +0.000 A 
ATOM     16  C   UNL     1       4.133   5.894  17.299  0.00  0.00    +0.000 A 
BRANCH  14  17
ATOM     17  N   UNL     1       2.588   4.737  20.510  0.00  0.00    +0.000 N 
ATOM     18  C   UNL     1       1.617   5.789  20.803  0.00  0.00    +0.000 C 
ATOM     19  C   UNL     1       2.383   3.495  21.247  0.00  0.00    +0.000 C 
ENDBRANCH  14  17
ENDBRANCH   4  11
TORSDOF 2
ENDMDL
MODEL 4
REMARK VINA RESULT:      -6.3      4.249      6.484
REMARK  Name = 
REMARK  5 active torsions:
REMARK  status: ('A' for Active; 'I' for Inactive)
REMARK    1  A    between atoms: C_1  and  C_2
REMARK    2  A    between atoms: N_4  and  C_5
REMARK    3  A    between atoms: C_8  and  N_9
REMARK    4  A    between atoms: N_9  and  C_10
REMARK    5  A    between atoms: N_9  and  C_11
REMARK                            x       y       z     vdW  Elec       q    Type
REMARK                         _______ _______ _______ _____ _____    ______ ____
ROOT
ATOM      1  C   UNL     1       1.929   2.606  21.504  0.00  0.00    +0.000 C 
ATOM      2  C   UNL     1       2.416   3.500  20.372  0.00  0.00    +0.000 C 
ATOM      3  C   UNL     1       2.328   4.984  20.737  0.00  0.00    +0.000 C 
ATOM      4  N   UNL     1       2.842   5.796  19.646  0.00  0.00    +0.000 N 
ATOM      5  C   UNL     1       4.038   5.427  19.030  0.00  0.00    +0.000 C 
ATOM      6  O   UNL     1       4.681   6.099  18.224  0.00  0.00    +0.000 OA
ATOM      7  N   UNL     1       4.534   4.199  19.394  0.00  0.00    +0.000 N 
ATOM      8  C   UNL     1       3.849   3.187  20.008  0.00  0.00    +0.000 C 
ATOM      9  O   UNL     1       4.355   2.076  20.143  0.00  0.00    +0.000 OA
ATOM     10  H   UNL     1       5.438   3.964  19.018  0.00  0.00    +0.000 HD
ENDROOT
BRANCH   4  11
ATOM     11  C   UNL     1       2.310   7.095  19.418  0.00  0.00    +0.000 A 
ATOM     12  C   UNL     1       1.690   7.785  20.456  0.00  0.00    +0.000 A 
ATOM     13  C   UNL     1       1.127   9.050  20.239  0.00  0.00    +0.000 A 
ATOM     14  C   UNL     1       1.132   9.671  18.981  0.00  0.00    +0.000 A 
ATOM     15  C   UNL     1       1.766   8.955  17.951  0.00  0.00    +0.000 A 
ATOM     16  C   UNL     1       2.367   7.700  18.163  0.00  0.00    +0.000 A 
BRANCH  14  17
ATOM     17  N   UNL     1       0.490  10.884  18.776  0.00  0.00    +0.000 N 
ATOM     18  C   UNL     1      -0.956  11.008  18.949  0.00  0.00    +0.000 C 
ATOM     19  C   UNL     1       1.212  12.150  18.750  0.00  0.00    +0.000 C 
ENDBRANCH  14  17
ENDBRANCH   4  11
TORSDOF 2
ENDMDL
MODEL 5
REMARK VINA RESULT:      -6.3      1.103      1.603
REMARK  Name = 
REMARK  5 active torsions:
REMARK  status: ('A' for Active; 'I' for Inactive)
REMARK    1  A    between atoms: C_1  and  C_2
REMARK    2  A    between atoms: N_4  and  C_5
REMARK    3  A    between atoms: C_8  and  N_9
REMARK    4  A    between atoms: N_9  and  C_10
REMARK    5  A    between atoms: N_9  and  C_11
REMARK                            x       y       z     vdW  Elec       q    Type
REMARK                         _______ _______ _______ _____ _____    ______ ____
ROOT
ATOM      1  C   UNL     1       5.597   3.332  12.209  0.00  0.00    +0.000 C 
ATOM      2  C   UNL     1       5.715   4.361  13.325  0.00  0.00    +0.000 C 
ATOM      3  C   UNL     1       5.294   3.787  14.680  0.00  0.00    +0.000 C 
ATOM      4  N   UNL     1       5.464   4.789  15.719  0.00  0.00    +0.000 N 
ATOM      5  C   UNL     1       6.641   5.537  15.755  0.00  0.00    +0.000 C 
ATOM      6  O   UNL     1       7.001   6.287  16.662  0.00  0.00    +0.000 OA
ATOM      7  N   UNL     1       7.468   5.386  14.669  0.00  0.00    +0.000 N 
ATOM      8  C   UNL     1       7.133   4.871  13.448  0.00  0.00    +0.000 C 
ATOM      9  O   UNL     1       7.915   4.930  12.503  0.00  0.00    +0.000 OA
ATOM     10  H   UNL     1       8.356   5.857  14.728  0.00  0.00    +0.000 HD
ENDROOT
BRANCH   4  11
ATOM     11  C   UNL     1       4.599   4.793  16.848  0.00  0.00    +0.000 A 
ATOM     12  C   UNL     1       4.129   6.000  17.360  0.00  0.00    +0.000 A 
ATOM     13  C   UNL     1       3.307   6.024  18.495  0.00  0.00    +0.000 A 
ATOM     14  C   UNL     1       2.939   4.858  19.183  0.00  0.00    +0.000 A 
ATOM     15  C   UNL     1       3.424   3.654  18.645  0.00  0.00    +0.000 A 
ATOM     16  C   UNL     1       4.221   3.613  17.485  0.00  0.00    +0.000 A 
BRANCH  14  17
ATOM     17  N   UNL     1       2.197   4.920  20.355  0.00  0.00    +0.000 N 
ATOM     18  C   UNL     1       2.243   3.834  21.332  0.00  0.00    +0.000 C 
ATOM     19  C   UNL     1       1.645   6.171  20.859  0.00  0.00    +0.000 C 
ENDBRANCH  14  17
ENDBRANCH   4  11
TORSDOF 2
ENDMDL
MODEL 6
REMARK VINA RESULT:      -6.2      4.201      6.089
REMARK  Name = 
REMARK  5 active torsions:
REMARK  status: ('A' for Active; 'I' for Inactive)
REMARK    1  A    between atoms: C_1  and  C_2
REMARK    2  A    between atoms: N_4  and  C_5
REMARK    3  A    between atoms: C_8  and  N_9
REMARK    4  A    between atoms: N_9  and  C_10
REMARK    5  A    between atoms: N_9  and  C_11
REMARK                            x       y       z     vdW  Elec       q    Type
REMARK                         _______ _______ _______ _____ _____    ______ ____
ROOT
ATOM      1  C   UNL     1       0.968   2.013  18.762  0.00  0.00    +0.000 C 
ATOM      2  C   UNL     1       1.976   3.135  18.553  0.00  0.00    +0.000 C 
ATOM      3  C   UNL     1       1.624   4.381  19.369  0.00  0.00    +0.000 C 
ATOM      4  N   UNL     1       2.635   5.407  19.172  0.00  0.00    +0.000 N 
ATOM      5  C   UNL     1       3.982   5.051  19.222  0.00  0.00    +0.000 C 
ATOM      6  O   UNL     1       4.940   5.824  19.248  0.00  0.00    +0.000 OA
ATOM      7  N   UNL     1       4.234   3.702  19.266  0.00  0.00    +0.000 N 
ATOM      8  C   UNL     1       3.369   2.695  18.939  0.00  0.00    +0.000 C 
ATOM      9  O   UNL     1       3.756   1.531  18.866  0.00  0.00    +0.000 OA
ATOM     10  H   UNL     1       5.200   3.442  19.387  0.00  0.00    +0.000 HD
ENDROOT
BRANCH   4  11
ATOM     11  C   UNL     1       2.272   6.780  19.237  0.00  0.00    +0.000 A 
ATOM     12  C   UNL     1       1.773   7.313  20.423  0.00  0.00    +0.000 A 
ATOM     13  C   UNL     1       1.374   8.655  20.493  0.00  0.00    +0.000 A 
ATOM     14  C   UNL     1       1.430   9.516  19.387  0.00  0.00    +0.000 A 
ATOM     15  C   UNL     1       1.939   8.955  18.204  0.00  0.00    +0.000 A 
ATOM     16  C   UNL     1       2.377   7.619  18.128  0.00  0.00    +0.000 A 
BRANCH  14  17
ATOM     17  N   UNL     1       0.946  10.815  19.462  0.00  0.00    +0.000 N 
ATOM     18  C   UNL     1       0.062  11.226  20.551  0.00  0.00    +0.000 C 
ATOM     19  C   UNL     1       1.555  11.913  18.722  0.00  0.00    +0.000 C 
ENDBRANCH  14  17
ENDBRANCH   4  11
TORSDOF 2
ENDMDL
MODEL 7
REMARK VINA RESULT:      -6.2      4.311      6.611
REMARK  Name = 
REMARK  5 active torsions:
REMARK  status: ('A' for Active; 'I' for Inactive)
REMARK    1  A    between atoms: C_1  and  C_2
REMARK    2  A    between atoms: N_4  and  C_5
REMARK    3  A    between atoms: C_8  and  N_9
REMARK    4  A    between atoms: N_9  and  C_10
REMARK    5  A    between atoms: N_9  and  C_11
REMARK                            x       y       z     vdW  Elec       q    Type
REMARK                         _______ _______ _______ _____ _____    ______ ____
ROOT
ATOM      1  C   UNL     1       1.794   2.578  21.399  0.00  0.00    +0.000 C 
ATOM      2  C   UNL     1       2.279   3.513  20.301  0.00  0.00    +0.000 C 
ATOM      3  C   UNL     1       2.195   4.982  20.721  0.00  0.00    +0.000 C 
ATOM      4  N   UNL     1       2.708   5.834  19.659  0.00  0.00    +0.000 N 
ATOM      5  C   UNL     1       3.902   5.486  19.028  0.00  0.00    +0.000 C 
ATOM      6  O   UNL     1       4.544   6.187  18.246  0.00  0.00    +0.000 OA
ATOM      7  N   UNL     1       4.396   4.245  19.345  0.00  0.00    +0.000 N 
ATOM      8  C   UNL     1       3.711   3.212  19.922  0.00  0.00    +0.000 C 
ATOM      9  O   UNL     1       4.215   2.095  20.014  0.00  0.00    +0.000 OA
ATOM     10  H   UNL     1       5.300   4.023  18.958  0.00  0.00    +0.000 HD
ENDROOT
BRANCH   4  11
ATOM     11  C   UNL     1       2.178   7.141  19.482  0.00  0.00    +0.000 A 
ATOM     12  C   UNL     1       2.274   7.769  18.242  0.00  0.00    +0.000 A 
ATOM     13  C   UNL     1       1.792   9.072  18.060  0.00  0.00    +0.000 A 
ATOM     14  C   UNL     1       1.219   9.815  19.102  0.00  0.00    +0.000 A 
ATOM     15  C   UNL     1       1.131   9.159  20.341  0.00  0.00    +0.000 A 
ATOM     16  C   UNL     1       1.578   7.838  20.530  0.00  0.00    +0.000 A 
BRANCH  14  17
ATOM     17  N   UNL     1       0.831  11.135  18.914  0.00  0.00    +0.000 N 
ATOM     18  C   UNL     1       1.818  12.178  18.643  0.00  0.00    +0.000 C 
ATOM     19  C   UNL     1      -0.546  11.502  18.605  0.00  0.00    +0.000 C 
ENDBRANCH  14  17
ENDBRANCH   4  11
TORSDOF 2
ENDMDL
MODEL 8
REMARK VINA RESULT:      -6.1      4.603      6.352
REMARK  Name = 
REMARK  5 active torsions:
REMARK  status: ('A' for Active; 'I' for Inactive)
REMARK    1  A    between atoms: C_1  and  C_2
REMARK    2  A    between atoms: N_4  and  C_5
REMARK    3  A    between atoms: C_8  and  N_9
REMARK    4  A    between atoms: N_9  and  C_10
REMARK    5  A    between atoms: N_9  and  C_11
REMARK                            x       y       z     vdW  Elec       q    Type
REMARK                         _______ _______ _______ _____ _____    ______ ____
ROOT
ATOM      1  C   UNL     1       6.363   4.797  18.393  0.00  0.00    +0.000 C 
ATOM      2  C   UNL     1       5.138   5.062  19.256  0.00  0.00    +0.000 C 
ATOM      3  C   UNL     1       4.139   5.991  18.562  0.00  0.00    +0.000 C 
ATOM      4  N   UNL     1       2.968   6.180  19.404  0.00  0.00    +0.000 N 
ATOM      5  C   UNL     1       2.387   5.071  20.018  0.00  0.00    +0.000 C 
ATOM      6  O   UNL     1       1.307   5.047  20.608  0.00  0.00    +0.000 OA
ATOM      7  N   UNL     1       3.101   3.902  19.921  0.00  0.00    +0.000 N 
ATOM      8  C   UNL     1       4.424   3.774  19.599  0.00  0.00    +0.000 C 
ATOM      9  O   UNL     1       4.994   2.690  19.698  0.00  0.00    +0.000 OA
ATOM     10  H   UNL     1       2.648   3.082  20.288  0.00  0.00    +0.000 HD
ENDROOT
BRANCH   4  11
ATOM     11  C   UNL     1       2.251   7.407  19.354  0.00  0.00    +0.000 A 
ATOM     12  C   UNL     1       2.207   8.140  18.170  0.00  0.00    +0.000 A 
ATOM     13  C   UNL     1       1.537   9.370  18.115  0.00  0.00    +0.000 A 
ATOM     14  C   UNL     1       0.906   9.935  19.233  0.00  0.00    +0.000 A 
ATOM     15  C   UNL     1       0.962   9.175  20.413  0.00  0.00    +0.000 A 
ATOM     16  C   UNL     1       1.601   7.922  20.474  0.00  0.00    +0.000 A 
BRANCH  14  17
ATOM     17  N   UNL     1       0.327  11.195  19.170  0.00  0.00    +0.000 N 
ATOM     18  C   UNL     1      -0.908  11.492  19.893  0.00  0.00    +0.000 C 
ATOM     19  C   UNL     1       1.066  12.368  18.719  0.00  0.00    +0.000 C 
ENDBRANCH  14  17
ENDBRANCH   4  11
TORSDOF 2
ENDMDL
MODEL 9
REMARK VINA RESULT:      -6.1      4.208      5.217
REMARK  Name = 
REMARK  5 active torsions:
REMARK  status: ('A' for Active; 'I' for Inactive)
REMARK    1  A    between atoms: C_1  and  C_2
REMARK    2  A    between atoms: N_4  and  C_5
REMARK    3  A    between atoms: C_8  and  N_9
REMARK    4  A    between atoms: N_9  and  C_10
REMARK    5  A    between atoms: N_9  and  C_11
REMARK                            x       y       z     vdW  Elec       q    Type
REMARK                         _______ _______ _______ _____ _____    ______ ____
ROOT
ATOM      1  C   UNL     1       6.813   5.996  16.696  0.00  0.00    +0.000 C 
ATOM      2  C   UNL     1       5.520   5.688  17.438  0.00  0.00    +0.000 C 
ATOM      3  C   UNL     1       4.507   6.828  17.321  0.00  0.00    +0.000 C 
ATOM      4  N   UNL     1       3.275   6.472  18.007  0.00  0.00    +0.000 N 
ATOM      5  C   UNL     1       2.733   5.202  17.812  0.00  0.00    +0.000 C 
ATOM      6  O   UNL     1       1.621   4.820  18.179  0.00  0.00    +0.000 OA
ATOM      7  N   UNL     1       3.529   4.320  17.124  0.00  0.00    +0.000 N 
ATOM      8  C   UNL     1       4.876   4.427  16.910  0.00  0.00    +0.000 C 
ATOM      9  O   UNL     1       5.510   3.498  16.415  0.00  0.00    +0.000 OA
ATOM     10  H   UNL     1       3.110   3.430  16.908  0.00  0.00    +0.000 HD
ENDROOT
BRANCH   4  11
ATOM     11  C   UNL     1       2.481   7.486  18.609  0.00  0.00    +0.000 A 
ATOM     12  C   UNL     1       2.155   7.405  19.961  0.00  0.00    +0.000 A 
ATOM     13  C   UNL     1       1.342   8.375  20.561  0.00  0.00    +0.000 A 
ATOM     14  C   UNL     1       0.797   9.450  19.843  0.00  0.00    +0.000 A 
ATOM     15  C   UNL     1       1.142   9.511  18.482  0.00  0.00    +0.000 A 
ATOM     16  C   UNL     1       1.987   8.564  17.874  0.00  0.00    +0.000 A 
BRANCH  14  17
ATOM     17  N   UNL     1      -0.077  10.346  20.443  0.00  0.00    +0.000 N 
ATOM     18  C   UNL     1      -1.091  11.048  19.660  0.00  0.00    +0.000 C 
ATOM     19  C   UNL     1      -0.296  10.368  21.885  0.00  0.00    +0.000 C 
ENDBRANCH  14  17
ENDBRANCH   4  11
TORSDOF 2
ENDMDL
