MODEL 1
REMARK VINA RESULT:      -7.1      0.000      0.000
REMARK  Name = 
REMARK  9 active torsions:
REMARK  status: ('A' for Active; 'I' for Inactive)
REMARK    1  A    between atoms: C_1  and  O_2
REMARK    2  A    between atoms: O_2  and  C_3
REMARK    3  A    between atoms: C_6  and  C_7
REMARK    4  A    between atoms: C_11  and  O_12
REMARK    5  A    between atoms: O_12  and  C_13
REMARK    6  A    between atoms: C_17  and  C_18
REMARK    7  A    between atoms: C_20  and  C_21
REMARK    8  A    between atoms: C_24  and  C_25
REMARK    9  A    between atoms: C_26  and  C_27
REMARK                            x       y       z     vdW  Elec       q    Type
REMARK                         _______ _______ _______ _____ _____    ______ ____
ROOT
ATOM      1  C   UNL     1       0.398   9.958  18.554  0.00  0.00    +0.000 C 
ATOM      2  O   UNL     1       1.082  10.105  17.540  0.00  0.00    +0.000 OA
ATOM      3  N   UNL     1       0.875   9.242  19.682  0.00  0.00    +0.000 N 
ATOM      4  C   UNL     1       2.251   8.713  19.565  0.00  0.00    +0.000 C 
ATOM      5  C   UNL     1       2.342   7.166  19.632  0.00  0.00    +0.000 C 
ATOM      6  C   UNL     1       1.232   6.566  20.504  0.00  0.00    +0.000 C 
ATOM      7  C   UNL     1       0.767   7.557  21.548  0.00  0.00    +0.000 C 
ATOM      8  C   UNL     1       0.110   8.794  20.893  0.00  0.00    +0.000 C 
ATOM      9  C   UNL     1      -0.023   9.820  22.033  0.00  0.00    +0.000 C 
ENDROOT
BRANCH   1  13
ATOM     10  C   UNL     1      -3.487  11.635  18.527  0.00  0.00    +0.000 A 
ATOM     11  C   UNL     1      -3.278  10.388  17.990  0.00  0.00    +0.000 A 
ATOM     12  C   UNL     1      -1.998   9.862  18.071  0.00  0.00    +0.000 A 
ATOM     13  C   UNL     1      -0.928  10.621  18.549  0.00  0.00    +0.000 A 
ATOM     14  C   UNL     1      -1.242  11.841  19.177  0.00  0.00    +0.000 A 
ATOM     15  N   UNL     1      -2.517  12.353  19.128  0.00  0.00    +0.000 NA
BRANCH  14  16
ATOM     16  C   UNL     1      -0.360  12.642  20.068  0.00  0.00    +0.000 A 
ATOM     17  C   UNL     1       1.002  12.861  19.837  0.00  0.00    +0.000 A 
ATOM     18  C   UNL     1       1.752  13.550  20.784  0.00  0.00    +0.000 A 
ATOM     19  N   UNL     1       1.247  14.082  21.915  0.00  0.00    +0.000 NA
ATOM     20  C   UNL     1      -0.072  13.905  22.118  0.00  0.00    +0.000 A 
ATOM     21  C   UNL     1      -0.892  13.209  21.242  0.00  0.00    +0.000 A 
ENDBRANCH  14  16
BRANCH  10  23
ATOM     22  C   UNL     1      -5.328  12.063  17.156  0.00  0.00    +0.000 C 
ATOM     23  O   UNL     1      -4.779  12.110  18.467  0.00  0.00    +0.000 OA
ENDBRANCH  10  23
ENDBRANCH   1  13
BRANCH   5  24
ATOM     24  O   UNL     1       2.237   6.523  18.349  0.00  0.00    +0.000 OA
BRANCH  24  25
ATOM     25  C   UNL     1       3.068   5.433  18.192  0.00  0.00    +0.000 A 
ATOM     26  N   UNL     1       2.627   4.236  18.642  0.00  0.00    +0.000 NA
ATOM     27  C   UNL     1       3.464   3.192  18.543  0.00  0.00    +0.000 A 
ATOM     28  C   UNL     1       4.720   3.268  17.974  0.00  0.00    +0.000 A 
ATOM     29  C   UNL     1       5.153   4.504  17.498  0.00  0.00    +0.000 A 
ATOM     30  C   UNL     1       4.332   5.638  17.635  0.00  0.00    +0.000 A 
ATOM     31  C   UNL     1       4.752   6.989  17.125  0.00  0.00    +0.000 C 
BRANCH  29  32
ATOM     32  C   UNL     1       6.442   4.577  16.862  0.00  0.00    +0.000 C 
ATOM     33  N   UNL     1       7.470   4.632  16.332  0.00  0.00    +0.000 NA
ENDBRANCH  29  32
ENDBRANCH  24  25
ENDBRANCH   5  24
TORSDOF 6
ENDMDL
MODEL 2
REMARK VINA RESULT:      -7.1      1.021      1.021
REMARK  Name = 
REMARK  9 active torsions:
REMARK  status: ('A' for Active; 'I' for Inactive)
REMARK    1  A    between atoms: C_1  and  O_2
REMARK    2  A    between atoms: O_2  and  C_3
REMARK    3  A    between atoms: C_6  and  C_7
REMARK    4  A    between atoms: C_11  and  O_12
REMARK    5  A    between atoms: O_12  and  C_13
REMARK    6  A    between atoms: C_17  and  C_18
REMARK    7  A    between atoms: C_20  and  C_21
REMARK    8  A    between atoms: C_24  and  C_25
REMARK    9  A    between atoms: C_26  and  C_27
REMARK                            x       y       z     vdW  Elec       q    Type
REMARK                         _______ _______ _______ _____ _____    ______ ____
ROOT
ATOM      1  C   UNL     1       0.283   9.849  18.330  0.00  0.00    +0.000 C 
ATOM      2  O   UNL     1       1.031   9.808  17.353  0.00  0.00    +0.000 OA
ATOM      3  N   UNL     1       0.693   9.388  19.608  0.00  0.00    +0.000 N 
ATOM      4  C   UNL     1       2.081   8.882  19.687  0.00  0.00    +0.000 C 
ATOM      5  C   UNL     1       2.187   7.383  20.070  0.00  0.00    +0.000 C 
ATOM      6  C   UNL     1       1.029   6.941  20.974  0.00  0.00    +0.000 C 
ATOM      7  C   UNL     1       0.482   8.109  21.765  0.00  0.00    +0.000 C 
ATOM      8  C   UNL     1      -0.145   9.171  20.834  0.00  0.00    +0.000 C 
ATOM      9  C   UNL     1      -0.367  10.402  21.733  0.00  0.00    +0.000 C 
ENDROOT
BRANCH   1  13
ATOM     10  C   UNL     1      -3.615  11.388  17.746  0.00  0.00    +0.000 A 
ATOM     11  C   UNL     1      -3.385  10.042  17.605  0.00  0.00    +0.000 A 
ATOM     12  C   UNL     1      -2.102   9.581  17.858  0.00  0.00    +0.000 A 
ATOM     13  C   UNL     1      -1.049  10.463  18.109  0.00  0.00    +0.000 A 
ATOM     14  C   UNL     1      -1.385  11.809  18.344  0.00  0.00    +0.000 A 
ATOM     15  N   UNL     1      -2.664  12.266  18.125  0.00  0.00    +0.000 NA
BRANCH  14  16
ATOM     16  C   UNL     1      -0.528  12.849  18.973  0.00  0.00    +0.000 A 
ATOM     17  C   UNL     1       0.768  13.162  18.551  0.00  0.00    +0.000 A 
ATOM     18  C   UNL     1       1.513  14.090  19.270  0.00  0.00    +0.000 A 
ATOM     19  N   UNL     1       1.057  14.768  20.342  0.00  0.00    +0.000 NA
ATOM     20  C   UNL     1      -0.204  14.495  20.724  0.00  0.00    +0.000 A 
ATOM     21  C   UNL     1      -1.013  13.566  20.084  0.00  0.00    +0.000 A 
ENDBRANCH  14  16
BRANCH  10  23
ATOM     22  C   UNL     1      -5.870  11.040  18.245  0.00  0.00    +0.000 C 
ATOM     23  O   UNL     1      -4.910  11.806  17.528  0.00  0.00    +0.000 OA
ENDBRANCH  10  23
ENDBRANCH   1  13
BRANCH   5  24
ATOM     24  O   UNL     1       2.176   6.493  18.940  0.00  0.00    +0.000 OA
BRANCH  24  25
ATOM     25  C   UNL     1       3.329   5.750  18.794  0.00  0.00    +0.000 A 
ATOM     26  N   UNL     1       3.469   4.647  19.566  0.00  0.00    +0.000 NA
ATOM     27  C   UNL     1       4.619   3.963  19.464  0.00  0.00    +0.000 A 
ATOM     28  C   UNL     1       5.636   4.299  18.591  0.00  0.00    +0.000 A 
ATOM     29  C   UNL     1       5.469   5.426  17.789  0.00  0.00    +0.000 A 
ATOM     30  C   UNL     1       4.304   6.207  17.905  0.00  0.00    +0.000 A 
ATOM     31  C   UNL     1       4.076   7.424  17.052  0.00  0.00    +0.000 C 
BRANCH  29  32
ATOM     32  C   UNL     1       6.506   5.752  16.845  0.00  0.00    +0.000 C 
ATOM     33  N   UNL     1       7.354   6.009  16.099  0.00  0.00    +0.000 NA
ENDBRANCH  29  32
ENDBRANCH  24  25
ENDBRANCH   5  24
TORSDOF 6
ENDMDL
MODEL 3
REMARK VINA RESULT:      -7.0      1.476      2.051
REMARK  Name = 
REMARK  9 active torsions:
REMARK  status: ('A' for Active; 'I' for Inactive)
REMARK    1  A    between atoms: C_1  and  O_2
REMARK    2  A    between atoms: O_2  and  C_3
REMARK    3  A    between atoms: C_6  and  C_7
REMARK    4  A    between atoms: C_11  and  O_12
REMARK    5  A    between atoms: O_12  and  C_13
REMARK    6  A    between atoms: C_17  and  C_18
REMARK    7  A    between atoms: C_20  and  C_21
REMARK    8  A    between atoms: C_24  and  C_25
REMARK    9  A    between atoms: C_26  and  C_27
REMARK                            x       y       z     vdW  Elec       q    Type
REMARK                         _______ _______ _______ _____ _____    ______ ____
ROOT
ATOM      1  C   UNL     1      -0.102   9.938  18.369  0.00  0.00    +0.000 C 
ATOM      2  O   UNL     1       0.552   9.757  17.341  0.00  0.00    +0.000 OA
ATOM      3  N   UNL     1       0.426   9.648  19.654  0.00  0.00    +0.000 N 
ATOM      4  C   UNL     1       1.815   9.141  19.671  0.00  0.00    +0.000 C 
ATOM      5  C   UNL     1       1.958   7.706  20.242  0.00  0.00    +0.000 C 
ATOM      6  C   UNL     1       0.890   7.403  21.300  0.00  0.00    +0.000 C 
ATOM      7  C   UNL     1       0.418   8.673  21.974  0.00  0.00    +0.000 C 
ATOM      8  C   UNL     1      -0.294   9.608  20.970  0.00  0.00    +0.000 C 
ATOM      9  C   UNL     1      -0.433  10.951  21.711  0.00  0.00    +0.000 C 
ENDROOT
BRANCH   1  13
ATOM     10  C   UNL     1      -4.040  11.423  17.924  0.00  0.00    +0.000 A 
ATOM     11  C   UNL     1      -3.805  10.073  17.832  0.00  0.00    +0.000 A 
ATOM     12  C   UNL     1      -2.507   9.633  18.038  0.00  0.00    +0.000 A 
ATOM     13  C   UNL     1      -1.449  10.532  18.191  0.00  0.00    +0.000 A 
ATOM     14  C   UNL     1      -1.785  11.885  18.382  0.00  0.00    +0.000 A 
ATOM     15  N   UNL     1      -3.078  12.324  18.210  0.00  0.00    +0.000 NA
BRANCH  14  16
ATOM     16  C   UNL     1      -0.905  12.959  18.916  0.00  0.00    +0.000 A 
ATOM     17  C   UNL     1       0.392  13.214  18.459  0.00  0.00    +0.000 A 
ATOM     18  C   UNL     1       1.159  14.185  19.092  0.00  0.00    +0.000 A 
ATOM     19  N   UNL     1       0.724  14.958  20.108  0.00  0.00    +0.000 NA
ATOM     20  C   UNL     1      -0.538  14.739  20.521  0.00  0.00    +0.000 A 
ATOM     21  C   UNL     1      -1.367  13.774  19.967  0.00  0.00    +0.000 A 
ENDBRANCH  14  16
BRANCH  10  23
ATOM     22  C   UNL     1      -6.282  10.927  18.348  0.00  0.00    +0.000 C 
ATOM     23  O   UNL     1      -5.348  11.822  17.756  0.00  0.00    +0.000 OA
ENDBRANCH  10  23
ENDBRANCH   1  13
BRANCH   5  24
ATOM     24  O   UNL     1       1.843   6.672  19.248  0.00  0.00    +0.000 OA
BRANCH  24  25
ATOM     25  C   UNL     1       3.013   5.982  19.010  0.00  0.00    +0.000 A 
ATOM     26  N   UNL     1       3.929   6.559  18.199  0.00  0.00    +0.000 NA
ATOM     27  C   UNL     1       5.039   5.856  17.922  0.00  0.00    +0.000 A 
ATOM     28  C   UNL     1       5.308   4.610  18.451  0.00  0.00    +0.000 A 
ATOM     29  C   UNL     1       4.363   4.036  19.300  0.00  0.00    +0.000 A 
ATOM     30  C   UNL     1       3.159   4.711  19.571  0.00  0.00    +0.000 A 
ATOM     31  C   UNL     1       2.117   4.138  20.490  0.00  0.00    +0.000 C 
BRANCH  29  32
ATOM     32  C   UNL     1       4.663   2.758  19.890  0.00  0.00    +0.000 C 
ATOM     33  N   UNL     1       4.886   1.723  20.358  0.00  0.00    +0.000 NA
ENDBRANCH  29  32
ENDBRANCH  24  25
ENDBRANCH   5  24
TORSDOF 6
ENDMDL
MODEL 4
REMARK VINA RESULT:      -6.9      1.079      1.725
REMARK  Name = 
REMARK  9 active torsions:
REMARK  status: ('A' for Active; 'I' for Inactive)
REMARK    1  A    between atoms: C_1  and  O_2
REMARK    2  A    between atoms: O_2  and  C_3
REMARK    3  A    between atoms: C_6  and  C_7
REMARK    4  A    between atoms: C_11  and  O_12
REMARK    5  A    between atoms: O_12  and  C_13
REMARK    6  A    between atoms: C_17  and  C_18
REMARK    7  A    between atoms: C_20  and  C_21
REMARK    8  A    between atoms: C_24  and  C_25
REMARK    9  A    between atoms: C_26  and  C_27
REMARK                            x       y       z     vdW  Elec       q    Type
REMARK                         _______ _______ _______ _____ _____    ______ ____
ROOT
ATOM      1  C   UNL     1       0.151  10.176  18.651  0.00  0.00    +0.000 C 
ATOM      2  O   UNL     1       0.830  10.333  17.636  0.00  0.00    +0.000 OA
ATOM      3  N   UNL     1       0.654   9.500  19.793  0.00  0.00    +0.000 N 
ATOM      4  C   UNL     1       2.051   9.024  19.686  0.00  0.00    +0.000 C 
ATOM      5  C   UNL     1       2.204   7.484  19.780  0.00  0.00    +0.000 C 
ATOM      6  C   UNL     1       1.117   6.854  20.661  0.00  0.00    +0.000 C 
ATOM      7  C   UNL     1       0.611   7.844  21.687  0.00  0.00    +0.000 C 
ATOM      8  C   UNL     1      -0.094   9.042  21.011  0.00  0.00    +0.000 C 
ATOM      9  C   UNL     1      -0.270  10.082  22.132  0.00  0.00    +0.000 C 
ENDROOT
BRANCH   1  13
ATOM     10  C   UNL     1      -3.798  11.694  18.578  0.00  0.00    +0.000 A 
ATOM     11  C   UNL     1      -3.525  10.475  18.009  0.00  0.00    +0.000 A 
ATOM     12  C   UNL     1      -2.227   9.998  18.105  0.00  0.00    +0.000 A 
ATOM     13  C   UNL     1      -1.201  10.785  18.634  0.00  0.00    +0.000 A 
ATOM     14  C   UNL     1      -1.580  11.970  19.291  0.00  0.00    +0.000 A 
ATOM     15  N   UNL     1      -2.874  12.432  19.226  0.00  0.00    +0.000 NA
BRANCH  14  16
ATOM     16  C   UNL     1      -0.753  12.777  20.228  0.00  0.00    +0.000 A 
ATOM     17  C   UNL     1       0.593  13.095  20.017  0.00  0.00    +0.000 A 
ATOM     18  C   UNL     1       1.294  13.779  21.003  0.00  0.00    +0.000 A 
ATOM     19  N   UNL     1       0.754  14.217  22.158  0.00  0.00    +0.000 NA
ATOM     20  C   UNL     1      -0.551  13.945  22.343  0.00  0.00    +0.000 A 
ATOM     21  C   UNL     1      -1.323  13.246  21.427  0.00  0.00    +0.000 A 
ENDBRANCH  14  16
BRANCH  10  23
ATOM     22  C   UNL     1      -6.026  11.051  18.306  0.00  0.00    +0.000 C 
ATOM     23  O   UNL     1      -5.107  12.119  18.501  0.00  0.00    +0.000 OA
ENDBRANCH  10  23
ENDBRANCH   1  13
BRANCH   5  24
ATOM     24  O   UNL     1       2.127   6.814  18.509  0.00  0.00    +0.000 OA
BRANCH  24  25
ATOM     25  C   UNL     1       3.157   5.928  18.272  0.00  0.00    +0.000 A 
ATOM     26  N   UNL     1       4.370   6.442  17.963  0.00  0.00    +0.000 NA
ATOM     27  C   UNL     1       5.353   5.576  17.673  0.00  0.00    +0.000 A 
ATOM     28  C   UNL     1       5.203   4.204  17.717  0.00  0.00    +0.000 A 
ATOM     29  C   UNL     1       3.952   3.689  18.055  0.00  0.00    +0.000 A 
ATOM     30  C   UNL     1       2.877   4.561  18.309  0.00  0.00    +0.000 A 
ATOM     31  C   UNL     1       1.515   4.052  18.690  0.00  0.00    +0.000 C 
BRANCH  29  32
ATOM     32  C   UNL     1       3.805   2.260  18.148  0.00  0.00    +0.000 C 
ATOM     33  N   UNL     1       3.677   1.111  18.205  0.00  0.00    +0.000 NA
ENDBRANCH  29  32
ENDBRANCH  24  25
ENDBRANCH   5  24
TORSDOF 6
ENDMDL
MODEL 5
REMARK VINA RESULT:      -6.8      7.078      9.578
REMARK  Name = 
REMARK  9 active torsions:
REMARK  status: ('A' for Active; 'I' for Inactive)
REMARK    1  A    between atoms: C_1  and  O_2
REMARK    2  A    between atoms: O_2  and  C_3
REMARK    3  A    between atoms: C_6  and  C_7
REMARK    4  A    between atoms: C_11  and  O_12
REMARK    5  A    between atoms: O_12  and  C_13
REMARK    6  A    between atoms: C_17  and  C_18
REMARK    7  A    between atoms: C_20  and  C_21
REMARK    8  A    between atoms: C_24  and  C_25
REMARK    9  A    between atoms: C_26  and  C_27
REMARK                            x       y       z     vdW  Elec       q    Type
REMARK                         _______ _______ _______ _____ _____    ______ ____
ROOT
ATOM      1  C   UNL     1       7.198  14.919  20.380  0.00  0.00    +0.000 C 
ATOM      2  O   UNL     1       7.424  14.013  19.578  0.00  0.00    +0.000 OA
ATOM      3  N   UNL     1       8.140  15.949  20.634  0.00  0.00    +0.000 N 
ATOM      4  C   UNL     1       9.393  15.872  19.852  0.00  0.00    +0.000 C 
ATOM      5  C   UNL     1      10.668  15.683  20.715  0.00  0.00    +0.000 C 
ATOM      6  C   UNL     1      10.523  16.333  22.097  0.00  0.00    +0.000 C 
ATOM      7  C   UNL     1       9.541  17.483  22.055  0.00  0.00    +0.000 C 
ATOM      8  C   UNL     1       8.116  16.990  21.715  0.00  0.00    +0.000 C 
ATOM      9  C   UNL     1       7.317  18.270  21.409  0.00  0.00    +0.000 C 
ENDROOT
BRANCH   1  13
ATOM     10  C   UNL     1       3.286  14.870  21.995  0.00  0.00    +0.000 A 
ATOM     11  C   UNL     1       3.491  15.327  20.716  0.00  0.00    +0.000 A 
ATOM     12  C   UNL     1       4.783  15.273  20.215  0.00  0.00    +0.000 A 
ATOM     13  C   UNL     1       5.861  14.904  21.022  0.00  0.00    +0.000 A 
ATOM     14  C   UNL     1       5.556  14.349  22.279  0.00  0.00    +0.000 A 
ATOM     15  N   UNL     1       4.271  14.370  22.768  0.00  0.00    +0.000 NA
BRANCH  14  16
ATOM     16  C   UNL     1       6.466  13.562  23.154  0.00  0.00    +0.000 A 
ATOM     17  C   UNL     1       6.384  12.177  23.333  0.00  0.00    +0.000 A 
ATOM     18  C   UNL     1       7.230  11.557  24.246  0.00  0.00    +0.000 A 
ATOM     19  N   UNL     1       8.183  12.192  24.956  0.00  0.00    +0.000 NA
ATOM     20  C   UNL     1       8.288  13.519  24.754  0.00  0.00    +0.000 A 
ATOM     21  C   UNL     1       7.471  14.227  23.884  0.00  0.00    +0.000 A 
ENDBRANCH  14  16
BRANCH  10  23
ATOM     22  C   UNL     1       1.076  14.251  21.562  0.00  0.00    +0.000 C 
ATOM     23  O   UNL     1       1.985  14.898  22.445  0.00  0.00    +0.000 OA
ENDBRANCH  10  23
ENDBRANCH   1  13
BRANCH   5  24
ATOM     24  O   UNL     1      11.008  14.305  20.954  0.00  0.00    +0.000 OA
BRANCH  24  25
ATOM     25  C   UNL     1      10.899  13.495  19.843  0.00  0.00    +0.000 A 
ATOM     26  N   UNL     1      11.520  13.895  18.710  0.00  0.00    +0.000 NA
ATOM     27  C   UNL     1      11.360  13.135  17.616  0.00  0.00    +0.000 A 
ATOM     28  C   UNL     1      10.639  11.957  17.600  0.00  0.00    +0.000 A 
ATOM     29  C   UNL     1      10.020  11.548  18.780  0.00  0.00    +0.000 A 
ATOM     30  C   UNL     1      10.113  12.345  19.936  0.00  0.00    +0.000 A 
ATOM     31  C   UNL     1       9.473  11.938  21.234  0.00  0.00    +0.000 C 
BRANCH  29  32
ATOM     32  C   UNL     1       9.307  10.298  18.779  0.00  0.00    +0.000 C 
ATOM     33  N   UNL     1       8.737   9.290  18.759  0.00  0.00    +0.000 NA
ENDBRANCH  29  32
ENDBRANCH  24  25
ENDBRANCH   5  24
TORSDOF 6
ENDMDL
MODEL 6
REMARK VINA RESULT:      -6.8      1.356      2.074
REMARK  Name = 
REMARK  9 active torsions:
REMARK  status: ('A' for Active; 'I' for Inactive)
REMARK    1  A    between atoms: C_1  and  O_2
REMARK    2  A    between atoms: O_2  and  C_3
REMARK    3  A    between atoms: C_6  and  C_7
REMARK    4  A    between atoms: C_11  and  O_12
REMARK    5  A    between atoms: O_12  and  C_13
REMARK    6  A    between atoms: C_17  and  C_18
REMARK    7  A    between atoms: C_20  and  C_21
REMARK    8  A    between atoms: C_24  and  C_25
REMARK    9  A    between atoms: C_26  and  C_27
REMARK                            x       y       z     vdW  Elec       q    Type
REMARK                         _______ _______ _______ _____ _____    ______ ____
ROOT
ATOM      1  C   UNL     1      -0.113  10.077  18.364  0.00  0.00    +0.000 C 
ATOM      2  O   UNL     1       0.532  10.121  17.315  0.00  0.00    +0.000 OA
ATOM      3  N   UNL     1       0.456   9.602  19.574  0.00  0.00    +0.000 N 
ATOM      4  C   UNL     1       1.875   9.192  19.492  0.00  0.00    +0.000 C 
ATOM      5  C   UNL     1       2.119   7.692  19.801  0.00  0.00    +0.000 C 
ATOM      6  C   UNL     1       1.092   7.139  20.798  0.00  0.00    +0.000 C 
ATOM      7  C   UNL     1       0.554   8.239  21.687  0.00  0.00    +0.000 C 
ATOM      8  C   UNL     1      -0.235   9.286  20.868  0.00  0.00    +0.000 C 
ATOM      9  C   UNL     1      -0.444  10.467  21.834  0.00  0.00    +0.000 C 
ENDROOT
BRANCH   1  13
ATOM     10  C   UNL     1      -4.144  11.357  18.226  0.00  0.00    +0.000 A 
ATOM     11  C   UNL     1      -3.833  10.049  17.946  0.00  0.00    +0.000 A 
ATOM     12  C   UNL     1      -2.505   9.668  18.056  0.00  0.00    +0.000 A 
ATOM     13  C   UNL     1      -1.498  10.603  18.302  0.00  0.00    +0.000 A 
ATOM     14  C   UNL     1      -1.906  11.895  18.683  0.00  0.00    +0.000 A 
ATOM     15  N   UNL     1      -3.227  12.270  18.606  0.00  0.00    +0.000 NA
BRANCH  14  16
ATOM     16  C   UNL     1      -1.073  12.941  19.335  0.00  0.00    +0.000 A 
ATOM     17  C   UNL     1      -1.395  13.562  20.546  0.00  0.00    +0.000 A 
ATOM     18  C   UNL     1      -0.589  14.592  21.019  0.00  0.00    +0.000 A 
ATOM     19  N   UNL     1       0.536  15.020  20.411  0.00  0.00    +0.000 NA
ATOM     20  C   UNL     1       0.866  14.396  19.265  0.00  0.00    +0.000 A 
ATOM     21  C   UNL     1       0.109  13.376  18.705  0.00  0.00    +0.000 A 
ENDBRANCH  14  16
BRANCH  10  23
ATOM     22  C   UNL     1      -6.337  10.667  18.632  0.00  0.00    +0.000 C 
ATOM     23  O   UNL     1      -5.478  11.692  18.147  0.00  0.00    +0.000 OA
ENDBRANCH  10  23
ENDBRANCH   1  13
BRANCH   5  24
ATOM     24  O   UNL     1       2.050   6.842  18.642  0.00  0.00    +0.000 OA
BRANCH  24  25
ATOM     25  C   UNL     1       3.107   5.964  18.520  0.00  0.00    +0.000 A 
ATOM     26  N   UNL     1       4.346   6.488  18.374  0.00  0.00    +0.000 NA
ATOM     27  C   UNL     1       5.363   5.631  18.194  0.00  0.00    +0.000 A 
ATOM     28  C   UNL     1       5.216   4.258  18.195  0.00  0.00    +0.000 A 
ATOM     29  C   UNL     1       3.937   3.732  18.365  0.00  0.00    +0.000 A 
ATOM     30  C   UNL     1       2.833   4.595  18.498  0.00  0.00    +0.000 A 
ATOM     31  C   UNL     1       1.437   4.074  18.697  0.00  0.00    +0.000 C 
BRANCH  29  32
ATOM     32  C   UNL     1       3.787   2.301  18.413  0.00  0.00    +0.000 C 
ATOM     33  N   UNL     1       3.651   1.152  18.441  0.00  0.00    +0.000 NA
ENDBRANCH  29  32
ENDBRANCH  24  25
ENDBRANCH   5  24
TORSDOF 6
ENDMDL
MODEL 7
REMARK VINA RESULT:      -6.7      2.742      4.547
REMARK  Name = 
REMARK  9 active torsions:
REMARK  status: ('A' for Active; 'I' for Inactive)
REMARK    1  A    between atoms: C_1  and  O_2
REMARK    2  A    between atoms: O_2  and  C_3
REMARK    3  A    between atoms: C_6  and  C_7
REMARK    4  A    between atoms: C_11  and  O_12
REMARK    5  A    between atoms: O_12  and  C_13
REMARK    6  A    between atoms: C_17  and  C_18
REMARK    7  A    between atoms: C_20  and  C_21
REMARK    8  A    between atoms: C_24  and  C_25
REMARK    9  A    between atoms: C_26  and  C_27
REMARK                            x       y       z     vdW  Elec       q    Type
REMARK                         _______ _______ _______ _____ _____    ______ ____
ROOT
ATOM      1  C   UNL     1       1.386  12.765  20.376  0.00  0.00    +0.000 C 
ATOM      2  O   UNL     1       2.160  12.421  21.271  0.00  0.00    +0.000 OA
ATOM      3  N   UNL     1       0.348  11.915  19.915  0.00  0.00    +0.000 N 
ATOM      4  C   UNL     1       0.244  10.608  20.600  0.00  0.00    +0.000 C 
ATOM      5  C   UNL     1       0.475   9.388  19.671  0.00  0.00    +0.000 C 
ATOM      6  C   UNL     1       0.028   9.673  18.231  0.00  0.00    +0.000 C 
ATOM      7  C   UNL     1      -1.057  10.726  18.199  0.00  0.00    +0.000 C 
ATOM      8  C   UNL     1      -0.533  12.087  18.712  0.00  0.00    +0.000 C 
ATOM      9  C   UNL     1      -1.795  12.948  18.909  0.00  0.00    +0.000 C 
ENDROOT
BRANCH   1  13
ATOM     10  C   UNL     1       1.951  16.592  18.660  0.00  0.00    +0.000 A 
ATOM     11  C   UNL     1       2.553  15.495  18.095  0.00  0.00    +0.000 A 
ATOM     12  C   UNL     1       2.295  14.258  18.663  0.00  0.00    +0.000 A 
ATOM     13  C   UNL     1       1.566  14.140  19.849  0.00  0.00    +0.000 A 
ATOM     14  C   UNL     1       0.895  15.290  20.303  0.00  0.00    +0.000 A 
ATOM     15  N   UNL     1       1.124  16.517  19.722  0.00  0.00    +0.000 NA
BRANCH  14  16
ATOM     16  C   UNL     1      -0.208  15.349  21.299  0.00  0.00    +0.000 A 
ATOM     17  C   UNL     1      -0.115  14.859  22.606  0.00  0.00    +0.000 A 
ATOM     18  C   UNL     1      -1.238  14.884  23.425  0.00  0.00    +0.000 A 
ATOM     19  N   UNL     1      -2.430  15.403  23.067  0.00  0.00    +0.000 NA
ATOM     20  C   UNL     1      -2.508  15.910  21.823  0.00  0.00    +0.000 A 
ATOM     21  C   UNL     1      -1.447  15.905  20.928  0.00  0.00    +0.000 A 
ENDBRANCH  14  16
BRANCH  10  23
ATOM     22  C   UNL     1       1.272  18.091  17.003  0.00  0.00    +0.000 C 
ATOM     23  O   UNL     1       2.196  17.800  18.045  0.00  0.00    +0.000 OA
ENDBRANCH  10  23
ENDBRANCH   1  13
BRANCH   5  24
ATOM     24  O   UNL     1       1.850   8.972  19.589  0.00  0.00    +0.000 OA
BRANCH  24  25
ATOM     25  C   UNL     1       2.032   7.606  19.643  0.00  0.00    +0.000 A 
ATOM     26  N   UNL     1       1.512   6.943  20.702  0.00  0.00    +0.000 NA
ATOM     27  C   UNL     1       1.746   5.624  20.780  0.00  0.00    +0.000 A 
ATOM     28  C   UNL     1       2.443   4.911  19.825  0.00  0.00    +0.000 A 
ATOM     29  C   UNL     1       2.956   5.604  18.731  0.00  0.00    +0.000 A 
ATOM     30  C   UNL     1       2.787   6.998  18.637  0.00  0.00    +0.000 A 
ATOM     31  C   UNL     1       3.311   7.785  17.469  0.00  0.00    +0.000 C 
BRANCH  29  32
ATOM     32  C   UNL     1       3.643   4.856  17.710  0.00  0.00    +0.000 C 
ATOM     33  N   UNL     1       4.178   4.246  16.884  0.00  0.00    +0.000 NA
ENDBRANCH  29  32
ENDBRANCH  24  25
ENDBRANCH   5  24
TORSDOF 6
ENDMDL
MODEL 8
REMARK VINA RESULT:      -6.7      4.695      7.482
REMARK  Name = 
REMARK  9 active torsions:
REMARK  status: ('A' for Active; 'I' for Inactive)
REMARK    1  A    between atoms: C_1  and  O_2
REMARK    2  A    between atoms: O_2  and  C_3
REMARK    3  A    between atoms: C_6  and  C_7
REMARK    4  A    between atoms: C_11  and  O_12
REMARK    5  A    between atoms: O_12  and  C_13
REMARK    6  A    between atoms: C_17  and  C_18
REMARK    7  A    between atoms: C_20  and  C_21
REMARK    8  A    between atoms: C_24  and  C_25
REMARK    9  A    between atoms: C_26  and  C_27
REMARK                            x       y       z     vdW  Elec       q    Type
REMARK                         _______ _______ _______ _____ _____    ______ ____
ROOT
ATOM      1  C   UNL     1      -1.237  13.208  21.897  0.00  0.00    +0.000 C 
ATOM      2  O   UNL     1      -0.916  14.367  21.630  0.00  0.00    +0.000 OA
ATOM      3  N   UNL     1      -0.341  12.122  21.717  0.00  0.00    +0.000 N 
ATOM      4  C   UNL     1       1.003  12.482  21.216  0.00  0.00    +0.000 C 
ATOM      5  C   UNL     1       1.349  11.867  19.835  0.00  0.00    +0.000 C 
ATOM      6  C   UNL     1       0.655  10.516  19.621  0.00  0.00    +0.000 C 
ATOM      7  C   UNL     1       0.372   9.836  20.942  0.00  0.00    +0.000 C 
ATOM      8  C   UNL     1      -0.633  10.651  21.788  0.00  0.00    +0.000 C 
ATOM      9  C   UNL     1      -0.580  10.013  23.188  0.00  0.00    +0.000 C 
ENDROOT
BRANCH   1  13
ATOM     10  C   UNL     1      -5.055  12.852  23.685  0.00  0.00    +0.000 A 
ATOM     11  C   UNL     1      -4.022  13.420  24.390  0.00  0.00    +0.000 A 
ATOM     12  C   UNL     1      -2.805  13.561  23.741  0.00  0.00    +0.000 A 
ATOM     13  C   UNL     1      -2.591  13.021  22.471  0.00  0.00    +0.000 A 
ATOM     14  C   UNL     1      -3.723  12.554  21.777  0.00  0.00    +0.000 A 
ATOM     15  N   UNL     1      -4.941  12.441  22.406  0.00  0.00    +0.000 NA
BRANCH  14  16
ATOM     16  C   UNL     1      -3.828  12.278  20.319  0.00  0.00    +0.000 A 
ATOM     17  C   UNL     1      -2.735  12.021  19.486  0.00  0.00    +0.000 A 
ATOM     18  C   UNL     1      -2.940  11.865  18.119  0.00  0.00    +0.000 A 
ATOM     19  N   UNL     1      -4.149  11.893  17.523  0.00  0.00    +0.000 NA
ATOM     20  C   UNL     1      -5.205  12.102  18.331  0.00  0.00    +0.000 A 
ATOM     21  C   UNL     1      -5.093  12.293  19.701  0.00  0.00    +0.000 A 
ENDBRANCH  14  16
BRANCH  10  23
ATOM     22  C   UNL     1      -7.269  13.591  23.773  0.00  0.00    +0.000 C 
ATOM     23  O   UNL     1      -6.261  12.766  24.346  0.00  0.00    +0.000 OA
ENDBRANCH  10  23
ENDBRANCH   1  13
BRANCH   5  24
ATOM     24  O   UNL     1       0.970  12.694  18.720  0.00  0.00    +0.000 OA
BRANCH  24  25
ATOM     25  C   UNL     1       1.806  13.769  18.502  0.00  0.00    +0.000 A 
ATOM     26  N   UNL     1       3.125  13.516  18.336  0.00  0.00    +0.000 NA
ATOM     27  C   UNL     1       3.943  14.570  18.186  0.00  0.00    +0.000 A 
ATOM     28  C   UNL     1       3.506  15.879  18.151  0.00  0.00    +0.000 A 
ATOM     29  C   UNL     1       2.142  16.123  18.305  0.00  0.00    +0.000 A 
ATOM     30  C   UNL     1       1.256  15.052  18.523  0.00  0.00    +0.000 A 
ATOM     31  C   UNL     1      -0.224  15.266  18.682  0.00  0.00    +0.000 C 
BRANCH  29  32
ATOM     32  C   UNL     1       1.678  17.483  18.221  0.00  0.00    +0.000 C 
ATOM     33  N   UNL     1       1.297  18.573  18.136  0.00  0.00    +0.000 NA
ENDBRANCH  29  32
ENDBRANCH  24  25
ENDBRANCH   5  24
TORSDOF 6
ENDMDL
MODEL 9
REMARK VINA RESULT:      -6.7      2.177      4.046
REMARK  Name = 
REMARK  9 active torsions:
REMARK  status: ('A' for Active; 'I' for Inactive)
REMARK    1  A    between atoms: C_1  and  O_2
REMARK    2  A    between atoms: O_2  and  C_3
REMARK    3  A    between atoms: C_6  and  C_7
REMARK    4  A    between atoms: C_11  and  O_12
REMARK    5  A    between atoms: O_12  and  C_13
REMARK    6  A    between atoms: C_17  and  C_18
REMARK    7  A    between atoms: C_20  and  C_21
REMARK    8  A    between atoms: C_24  and  C_25
REMARK    9  A    between atoms: C_26  and  C_27
REMARK                            x       y       z     vdW  Elec       q    Type
REMARK                         _______ _______ _______ _____ _____    ______ ____
ROOT
ATOM      1  C   UNL     1      -1.252  11.966  19.888  0.00  0.00    +0.000 C 
ATOM      2  O   UNL     1      -0.633  12.176  18.844  0.00  0.00    +0.000 OA
ATOM      3  N   UNL     1      -0.635  11.370  21.018  0.00  0.00    +0.000 N 
ATOM      4  C   UNL     1       0.800  11.047  20.863  0.00  0.00    +0.000 C 
ATOM      5  C   UNL     1       1.123   9.534  20.974  0.00  0.00    +0.000 C 
ATOM      6  C   UNL     1       0.146   8.808  21.907  0.00  0.00    +0.000 C 
ATOM      7  C   UNL     1      -0.426   9.757  22.938  0.00  0.00    +0.000 C 
ATOM      8  C   UNL     1      -1.282  10.858  22.272  0.00  0.00    +0.000 C 
ATOM      9  C   UNL     1      -1.527  11.895  23.384  0.00  0.00    +0.000 C 
ENDROOT
BRANCH   1  13
ATOM     10  C   UNL     1      -5.199  13.483  20.057  0.00  0.00    +0.000 A 
ATOM     11  C   UNL     1      -4.234  13.998  20.887  0.00  0.00    +0.000 A 
ATOM     12  C   UNL     1      -2.946  13.504  20.756  0.00  0.00    +0.000 A 
ATOM     13  C   UNL     1      -2.662  12.425  19.915  0.00  0.00    +0.000 A 
ATOM     14  C   UNL     1      -3.676  12.028  19.024  0.00  0.00    +0.000 A 
ATOM     15  N   UNL     1      -4.949  12.538  19.128  0.00  0.00    +0.000 NA
BRANCH  14  16
ATOM     16  C   UNL     1      -3.519  11.179  17.812  0.00  0.00    +0.000 A 
ATOM     17  C   UNL     1      -2.801   9.979  17.778  0.00  0.00    +0.000 A 
ATOM     18  C   UNL     1      -2.645   9.312  16.568  0.00  0.00    +0.000 A 
ATOM     19  N   UNL     1      -3.186   9.714  15.401  0.00  0.00    +0.000 NA
ATOM     20  C   UNL     1      -3.909  10.849  15.442  0.00  0.00    +0.000 A 
ATOM     21  C   UNL     1      -4.098  11.594  16.597  0.00  0.00    +0.000 A 
ENDBRANCH  14  16
BRANCH  10  23
ATOM     22  C   UNL     1      -7.482  13.185  19.663  0.00  0.00    +0.000 C 
ATOM     23  O   UNL     1      -6.459  14.025  20.185  0.00  0.00    +0.000 OA
ENDBRANCH  10  23
ENDBRANCH   1  13
BRANCH   5  24
ATOM     24  O   UNL     1       1.070   8.836  19.717  0.00  0.00    +0.000 OA
BRANCH  24  25
ATOM     25  C   UNL     1       1.754   7.637  19.706  0.00  0.00    +0.000 A 
ATOM     26  N   UNL     1       1.527   6.775  20.724  0.00  0.00    +0.000 NA
ATOM     27  C   UNL     1       2.240   5.638  20.741  0.00  0.00    +0.000 A 
ATOM     28  C   UNL     1       3.149   5.289  19.762  0.00  0.00    +0.000 A 
ATOM     29  C   UNL     1       3.358   6.179  18.710  0.00  0.00    +0.000 A 
ATOM     30  C   UNL     1       2.676   7.409  18.683  0.00  0.00    +0.000 A 
ATOM     31  C   UNL     1       2.860   8.394  17.562  0.00  0.00    +0.000 C 
BRANCH  29  32
ATOM     32  C   UNL     1       4.270   5.797  17.664  0.00  0.00    +0.000 C 
ATOM     33  N   UNL     1       5.002   5.471  16.828  0.00  0.00    +0.000 NA
ENDBRANCH  29  32
ENDBRANCH  24  25
ENDBRANCH   5  24
TORSDOF 6
ENDMDL
