MODEL 1
REMARK VINA RESULT:      -6.9      0.000      0.000
REMARK  Name = 
REMARK  8 active torsions:
REMARK  status: ('A' for Active; 'I' for Inactive)
REMARK    1  A    between atoms: C_2  and  C_3
REMARK    2  A    between atoms: C_4  and  N_5
REMARK    3  A    between atoms: C_6  and  C_8
REMARK    4  A    between atoms: C_8  and  C_12
REMARK    5  A    between atoms: N_9  and  O_10
REMARK    6  A    between atoms: O_10  and  C_11
REMARK    7  A    between atoms: N_20  and  S_21
REMARK    8  A    between atoms: S_21  and  O_24
REMARK                            x       y       z     vdW  Elec       q    Type
REMARK                         _______ _______ _______ _____ _____    ______ ____
ROOT
ATOM      1  N   UNL     1       4.902   3.490  17.275  0.00  0.00    +0.000 N 
ATOM      2  C   UNL     1       5.045   4.054  16.019  0.00  0.00    +0.000 C 
ATOM      3  O   UNL     1       4.202   3.950  15.142  0.00  0.00    +0.000 OA
ATOM      4  H   UNL     1       5.704   3.558  17.898  0.00  0.00    +0.000 HD
ENDROOT
BRANCH   1   6
ATOM      5  C   UNL     1       3.509   2.223  19.120  0.00  0.00    +0.000 C 
ATOM      6  C   UNL     1       3.669   2.730  17.648  0.00  0.00    +0.000 C 
ATOM      7  C   UNL     1       2.405   3.602  17.985  0.00  0.00    +0.000 C 
ATOM      8  O   UNL     1       1.630   4.342  17.424  0.00  0.00    +0.000 OA
ATOM      9  N   UNL     1       2.436   3.217  19.322  0.00  0.00    +0.000 N 
BRANCH   9  10
ATOM     10  S   UNL     1       1.102   3.182  20.285  0.00  0.00    +0.000 S 
ATOM     11  O   UNL     1       1.366   2.293  21.393  0.00  0.00    +0.000 OA
ATOM     12  O   UNL     1       0.640   4.530  20.508  0.00  0.00    +0.000 OA
BRANCH  10  13
ATOM     13  O   UNL     1       0.006   2.441  19.373  0.00  0.00    +0.000 OA
ATOM     14  H   UNL     1       0.420   2.244  18.507  0.00  0.00    +0.000 HD
ENDBRANCH  10  13
ENDBRANCH   9  10
BRANCH   5  16
ATOM     15  C   UNL     1       5.034   1.512  20.902  0.00  0.00    +0.000 C 
ATOM     16  C   UNL     1       4.616   2.478  20.074  0.00  0.00    +0.000 C 
ENDBRANCH   5  16
ENDBRANCH   1   6
BRANCH   2  17
ATOM     17  C   UNL     1       6.367   4.820  15.798  0.00  0.00    +0.000 C 
ATOM     18  N   UNL     1       6.824   4.752  14.570  0.00  0.00    +0.000 NA
BRANCH  17  19
ATOM     19  C   UNL     1       7.018   5.529  16.925  0.00  0.00    +0.000 A 
ATOM     20  C   UNL     1       7.276   6.890  16.971  0.00  0.00    +0.000 A 
ATOM     21  S   UNL     1       8.032   7.325  18.449  0.00  0.00    +0.000 S 
ATOM     22  C   UNL     1       7.978   5.691  18.946  0.00  0.00    +0.000 A 
ATOM     23  N   UNL     1       8.447   5.291  20.137  0.00  0.00    +0.000 N 
ATOM     24  N   UNL     1       7.427   4.873  18.091  0.00  0.00    +0.000 NA
ATOM     25  H   UNL     1       8.530   5.978  20.876  0.00  0.00    +0.000 HD
ATOM     26  H   UNL     1       8.133   4.377  20.445  0.00  0.00    +0.000 HD
ENDBRANCH  17  19
BRANCH  18  27
ATOM     27  O   UNL     1       8.020   5.462  14.402  0.00  0.00    +0.000 OA
ATOM     28  C   UNL     1       8.311   5.629  13.025  0.00  0.00    +0.000 C 
ENDBRANCH  18  27
ENDBRANCH   2  17
TORSDOF 7
ENDMDL
MODEL 2
REMARK VINA RESULT:      -6.4      5.688      7.705
REMARK  Name = 
REMARK  8 active torsions:
REMARK  status: ('A' for Active; 'I' for Inactive)
REMARK    1  A    between atoms: C_2  and  C_3
REMARK    2  A    between atoms: C_4  and  N_5
REMARK    3  A    between atoms: C_6  and  C_8
REMARK    4  A    between atoms: C_8  and  C_12
REMARK    5  A    between atoms: N_9  and  O_10
REMARK    6  A    between atoms: O_10  and  C_11
REMARK    7  A    between atoms: N_20  and  S_21
REMARK    8  A    between atoms: S_21  and  O_24
REMARK                            x       y       z     vdW  Elec       q    Type
REMARK                         _______ _______ _______ _____ _____    ______ ____
ROOT
ATOM      1  N   UNL     1       1.438   7.831  21.224  0.00  0.00    +0.000 N 
ATOM      2  C   UNL     1       2.067   7.352  20.089  0.00  0.00    +0.000 C 
ATOM      3  O   UNL     1       2.618   8.078  19.276  0.00  0.00    +0.000 OA
ATOM      4  H   UNL     1       0.931   7.149  21.785  0.00  0.00    +0.000 HD
ENDROOT
BRANCH   1   6
ATOM      5  C   UNL     1       0.438  10.225  20.760  0.00  0.00    +0.000 C 
ATOM      6  C   UNL     1       1.419   9.291  21.543  0.00  0.00    +0.000 C 
ATOM      7  C   UNL     1       0.558   9.707  22.791  0.00  0.00    +0.000 C 
ATOM      8  O   UNL     1       0.565   9.571  23.993  0.00  0.00    +0.000 OA
ATOM      9  N   UNL     1      -0.359  10.385  21.992  0.00  0.00    +0.000 N 
BRANCH   9  10
ATOM     10  S   UNL     1      -1.270  11.646  22.530  0.00  0.00    +0.000 S 
ATOM     11  O   UNL     1      -2.255  11.132  23.454  0.00  0.00    +0.000 OA
ATOM     12  O   UNL     1      -0.402  12.737  22.901  0.00  0.00    +0.000 OA
BRANCH  10  13
ATOM     13  O   UNL     1      -2.084  12.100  21.221  0.00  0.00    +0.000 OA
ATOM     14  H   UNL     1      -2.577  12.917  21.443  0.00  0.00    +0.000 HD
ENDBRANCH  10  13
ENDBRANCH   9  10
BRANCH   5  16
ATOM     15  C   UNL     1      -0.321  10.071  18.434  0.00  0.00    +0.000 C 
ATOM     16  C   UNL     1      -0.401   9.623  19.694  0.00  0.00    +0.000 C 
ENDBRANCH   5  16
ENDBRANCH   1   6
BRANCH   2  17
ATOM     17  C   UNL     1       2.013   5.819  19.913  0.00  0.00    +0.000 C 
ATOM     18  N   UNL     1       1.079   5.234  20.627  0.00  0.00    +0.000 NA
BRANCH  17  19
ATOM     19  C   UNL     1       2.976   5.134  19.020  0.00  0.00    +0.000 A 
ATOM     20  C   UNL     1       2.687   4.649  17.755  0.00  0.00    +0.000 A 
ATOM     21  S   UNL     1       4.071   3.931  17.037  0.00  0.00    +0.000 S 
ATOM     22  C   UNL     1       4.976   4.300  18.438  0.00  0.00    +0.000 A 
ATOM     23  N   UNL     1       6.276   3.990  18.551  0.00  0.00    +0.000 N 
ATOM     24  N   UNL     1       4.314   4.925  19.374  0.00  0.00    +0.000 NA
ATOM     25  H   UNL     1       6.810   3.840  17.704  0.00  0.00    +0.000 HD
ATOM     26  H   UNL     1       6.778   4.477  19.285  0.00  0.00    +0.000 HD
ENDBRANCH  17  19
BRANCH  18  27
ATOM     27  O   UNL     1       1.054   3.845  20.440  0.00  0.00    +0.000 OA
ATOM     28  C   UNL     1       1.595   3.180  21.569  0.00  0.00    +0.000 C 
ENDBRANCH  18  27
ENDBRANCH   2  17
TORSDOF 7
ENDMDL
MODEL 3
REMARK VINA RESULT:      -6.4      1.083      1.478
REMARK  Name = 
REMARK  8 active torsions:
REMARK  status: ('A' for Active; 'I' for Inactive)
REMARK    1  A    between atoms: C_2  and  C_3
REMARK    2  A    between atoms: C_4  and  N_5
REMARK    3  A    between atoms: C_6  and  C_8
REMARK    4  A    between atoms: C_8  and  C_12
REMARK    5  A    between atoms: N_9  and  O_10
REMARK    6  A    between atoms: O_10  and  C_11
REMARK    7  A    between atoms: N_20  and  S_21
REMARK    8  A    between atoms: S_21  and  O_24
REMARK                            x       y       z     vdW  Elec       q    Type
REMARK                         _______ _______ _______ _____ _____    ______ ____
ROOT
ATOM      1  N   UNL     1       4.950   3.373  17.088  0.00  0.00    +0.000 N 
ATOM      2  C   UNL     1       5.047   4.019  15.868  0.00  0.00    +0.000 C 
ATOM      3  O   UNL     1       4.169   3.977  15.021  0.00  0.00    +0.000 OA
ATOM      4  H   UNL     1       5.778   3.396  17.681  0.00  0.00    +0.000 HD
ENDROOT
BRANCH   1   6
ATOM      5  C   UNL     1       3.576   2.081  18.929  0.00  0.00    +0.000 C 
ATOM      6  C   UNL     1       3.729   2.593  17.459  0.00  0.00    +0.000 C 
ATOM      7  C   UNL     1       2.452   3.445  17.796  0.00  0.00    +0.000 C 
ATOM      8  O   UNL     1       1.666   4.174  17.236  0.00  0.00    +0.000 OA
ATOM      9  N   UNL     1       2.488   3.058  19.132  0.00  0.00    +0.000 N 
BRANCH   9  10
ATOM     10  S   UNL     1       1.154   3.001  20.095  0.00  0.00    +0.000 S 
ATOM     11  O   UNL     1       0.078   2.400  19.342  0.00  0.00    +0.000 OA
ATOM     12  O   UNL     1       1.525   2.494  21.394  0.00  0.00    +0.000 OA
BRANCH  10  13
ATOM     13  O   UNL     1       0.759   4.548  20.275  0.00  0.00    +0.000 OA
ATOM     14  H   UNL     1       0.669   4.725  21.234  0.00  0.00    +0.000 HD
ENDBRANCH  10  13
ENDBRANCH   9  10
BRANCH   5  16
ATOM     15  C   UNL     1       5.034   1.429  20.789  0.00  0.00    +0.000 C 
ATOM     16  C   UNL     1       4.679   2.351  19.884  0.00  0.00    +0.000 C 
ENDBRANCH   5  16
ENDBRANCH   1   6
BRANCH   2  17
ATOM     17  C   UNL     1       6.363   4.795  15.646  0.00  0.00    +0.000 C 
ATOM     18  N   UNL     1       6.871   4.649  14.444  0.00  0.00    +0.000 NA
BRANCH  17  19
ATOM     19  C   UNL     1       6.955   5.594  16.744  0.00  0.00    +0.000 A 
ATOM     20  C   UNL     1       7.398   5.086  17.954  0.00  0.00    +0.000 A 
ATOM     21  S   UNL     1       8.028   6.331  18.954  0.00  0.00    +0.000 S 
ATOM     22  C   UNL     1       7.680   7.474  17.732  0.00  0.00    +0.000 A 
ATOM     23  N   UNL     1       7.959   8.778  17.873  0.00  0.00    +0.000 N 
ATOM     24  N   UNL     1       7.148   6.977  16.648  0.00  0.00    +0.000 NA
ATOM     25  H   UNL     1       8.665   9.048  18.546  0.00  0.00    +0.000 HD
ATOM     26  H   UNL     1       7.967   9.318  17.015  0.00  0.00    +0.000 HD
ENDBRANCH  17  19
BRANCH  18  27
ATOM     27  O   UNL     1       8.061   5.370  14.274  0.00  0.00    +0.000 OA
ATOM     28  C   UNL     1       8.267   5.674  12.905  0.00  0.00    +0.000 C 
ENDBRANCH  18  27
ENDBRANCH   2  17
TORSDOF 7
ENDMDL
MODEL 4
REMARK VINA RESULT:      -6.3      5.473      7.379
REMARK  Name = 
REMARK  8 active torsions:
REMARK  status: ('A' for Active; 'I' for Inactive)
REMARK    1  A    between atoms: C_2  and  C_3
REMARK    2  A    between atoms: C_4  and  N_5
REMARK    3  A    between atoms: C_6  and  C_8
REMARK    4  A    between atoms: C_8  and  C_12
REMARK    5  A    between atoms: N_9  and  O_10
REMARK    6  A    between atoms: O_10  and  C_11
REMARK    7  A    between atoms: N_20  and  S_21
REMARK    8  A    between atoms: S_21  and  O_24
REMARK                            x       y       z     vdW  Elec       q    Type
REMARK                         _______ _______ _______ _____ _____    ______ ____
ROOT
ATOM      1  N   UNL     1       2.272   6.823  20.324  0.00  0.00    +0.000 N 
ATOM      2  C   UNL     1       1.988   8.001  19.657  0.00  0.00    +0.000 C 
ATOM      3  O   UNL     1       2.580   8.355  18.649  0.00  0.00    +0.000 OA
ATOM      4  H   UNL     1       1.784   6.671  21.205  0.00  0.00    +0.000 HD
ENDROOT
BRANCH   1   6
ATOM      5  C   UNL     1       3.300   4.396  20.317  0.00  0.00    +0.000 C 
ATOM      6  C   UNL     1       3.321   5.882  19.825  0.00  0.00    +0.000 C 
ATOM      7  C   UNL     1       3.052   5.246  18.413  0.00  0.00    +0.000 C 
ATOM      8  O   UNL     1       2.983   5.588  17.255  0.00  0.00    +0.000 OA
ATOM      9  N   UNL     1       2.891   3.977  18.961  0.00  0.00    +0.000 N 
BRANCH   9  10
ATOM     10  S   UNL     1       3.183   2.588  18.129  0.00  0.00    +0.000 S 
ATOM     11  O   UNL     1       3.601   1.575  19.071  0.00  0.00    +0.000 OA
ATOM     12  O   UNL     1       2.098   2.345  17.210  0.00  0.00    +0.000 OA
BRANCH  10  13
ATOM     13  O   UNL     1       4.484   2.945  17.256  0.00  0.00    +0.000 OA
ATOM     14  H   UNL     1       5.260   2.930  17.854  0.00  0.00    +0.000 HD
ENDBRANCH  10  13
ENDBRANCH   9  10
BRANCH   5  16
ATOM     15  C   UNL     1       1.163   3.347  20.900  0.00  0.00    +0.000 C 
ATOM     16  C   UNL     1       2.264   3.998  21.300  0.00  0.00    +0.000 C 
ENDBRANCH   5  16
ENDBRANCH   1   6
BRANCH   2  17
ATOM     17  C   UNL     1       0.867   8.854  20.290  0.00  0.00    +0.000 C 
ATOM     18  N   UNL     1       0.345   8.327  21.373  0.00  0.00    +0.000 NA
BRANCH  17  19
ATOM     19  C   UNL     1       0.454  10.131  19.664  0.00  0.00    +0.000 A 
ATOM     20  C   UNL     1       1.006  11.372  19.939  0.00  0.00    +0.000 A 
ATOM     21  S   UNL     1       0.262  12.601  19.000  0.00  0.00    +0.000 S 
ATOM     22  C   UNL     1      -0.750  11.426  18.283  0.00  0.00    +0.000 A 
ATOM     23  N   UNL     1      -1.663  11.741  17.352  0.00  0.00    +0.000 N 
ATOM     24  N   UNL     1      -0.550  10.202  18.691  0.00  0.00    +0.000 NA
ATOM     25  H   UNL     1      -1.541  12.600  16.830  0.00  0.00    +0.000 HD
ATOM     26  H   UNL     1      -2.015  10.963  16.805  0.00  0.00    +0.000 HD
ENDBRANCH  17  19
BRANCH  18  27
ATOM     27  O   UNL     1      -0.664   9.128  21.925  0.00  0.00    +0.000 OA
ATOM     28  C   UNL     1      -0.257   9.646  23.180  0.00  0.00    +0.000 C 
ENDBRANCH  18  27
ENDBRANCH   2  17
TORSDOF 7
ENDMDL
MODEL 5
REMARK VINA RESULT:      -6.3      5.511      7.354
REMARK  Name = 
REMARK  8 active torsions:
REMARK  status: ('A' for Active; 'I' for Inactive)
REMARK    1  A    between atoms: C_2  and  C_3
REMARK    2  A    between atoms: C_4  and  N_5
REMARK    3  A    between atoms: C_6  and  C_8
REMARK    4  A    between atoms: C_8  and  C_12
REMARK    5  A    between atoms: N_9  and  O_10
REMARK    6  A    between atoms: O_10  and  C_11
REMARK    7  A    between atoms: N_20  and  S_21
REMARK    8  A    between atoms: S_21  and  O_24
REMARK                            x       y       z     vdW  Elec       q    Type
REMARK                         _______ _______ _______ _____ _____    ______ ____
ROOT
ATOM      1  N   UNL     1       2.237   6.912  20.296  0.00  0.00    +0.000 N 
ATOM      2  C   UNL     1       1.974   8.112  19.659  0.00  0.00    +0.000 C 
ATOM      3  O   UNL     1       2.294   8.337  18.502  0.00  0.00    +0.000 OA
ATOM      4  H   UNL     1       2.011   6.864  21.288  0.00  0.00    +0.000 HD
ENDROOT
BRANCH   1   6
ATOM      5  C   UNL     1       2.883   4.357  20.215  0.00  0.00    +0.000 C 
ATOM      6  C   UNL     1       2.917   5.788  19.582  0.00  0.00    +0.000 C 
ATOM      7  C   UNL     1       2.094   5.116  18.423  0.00  0.00    +0.000 C 
ATOM      8  O   UNL     1       1.668   5.393  17.326  0.00  0.00    +0.000 OA
ATOM      9  N   UNL     1       1.976   3.925  19.133  0.00  0.00    +0.000 N 
BRANCH   9  10
ATOM     10  S   UNL     1       1.781   2.458  18.413  0.00  0.00    +0.000 S 
ATOM     11  O   UNL     1       2.798   1.566  18.919  0.00  0.00    +0.000 OA
ATOM     12  O   UNL     1       0.386   2.091  18.449  0.00  0.00    +0.000 OA
BRANCH  10  13
ATOM     13  O   UNL     1       2.165   2.744  16.879  0.00  0.00    +0.000 OA
ATOM     14  H   UNL     1       3.133   2.885  16.833  0.00  0.00    +0.000 HD
ENDBRANCH  10  13
ENDBRANCH   9  10
BRANCH   5  16
ATOM     15  C   UNL     1       1.820   2.975  21.939  0.00  0.00    +0.000 C 
ATOM     16  C   UNL     1       2.214   4.188  21.529  0.00  0.00    +0.000 C 
ENDBRANCH   5  16
ENDBRANCH   1   6
BRANCH   2  17
ATOM     17  C   UNL     1       1.250   9.163  20.528  0.00  0.00    +0.000 C 
ATOM     18  N   UNL     1       1.351   8.948  21.819  0.00  0.00    +0.000 NA
BRANCH  17  19
ATOM     19  C   UNL     1       0.507  10.276  19.892  0.00  0.00    +0.000 A 
ATOM     20  C   UNL     1       1.042  11.513  19.571  0.00  0.00    +0.000 A 
ATOM     21  S   UNL     1      -0.137  12.524  18.839  0.00  0.00    +0.000 S 
ATOM     22  C   UNL     1      -1.289  11.271  18.988  0.00  0.00    +0.000 A 
ATOM     23  N   UNL     1      -2.552  11.407  18.557  0.00  0.00    +0.000 N 
ATOM     24  N   UNL     1      -0.840  10.170  19.527  0.00  0.00    +0.000 NA
ATOM     25  H   UNL     1      -2.747  12.109  17.855  0.00  0.00    +0.000 HD
ATOM     26  H   UNL     1      -3.069  10.543  18.444  0.00  0.00    +0.000 HD
ENDBRANCH  17  19
BRANCH  18  27
ATOM     27  O   UNL     1       0.689   9.923  22.578  0.00  0.00    +0.000 OA
ATOM     28  C   UNL     1      -0.461   9.374  23.199  0.00  0.00    +0.000 C 
ENDBRANCH  18  27
ENDBRANCH   2  17
TORSDOF 7
ENDMDL
MODEL 6
REMARK VINA RESULT:      -6.3      5.316      6.918
REMARK  Name = 
REMARK  8 active torsions:
REMARK  status: ('A' for Active; 'I' for Inactive)
REMARK    1  A    between atoms: C_2  and  C_3
REMARK    2  A    between atoms: C_4  and  N_5
REMARK    3  A    between atoms: C_6  and  C_8
REMARK    4  A    between atoms: C_8  and  C_12
REMARK    5  A    between atoms: N_9  and  O_10
REMARK    6  A    between atoms: O_10  and  C_11
REMARK    7  A    between atoms: N_20  and  S_21
REMARK    8  A    between atoms: S_21  and  O_24
REMARK                            x       y       z     vdW  Elec       q    Type
REMARK                         _______ _______ _______ _____ _____    ______ ____
ROOT
ATOM      1  N   UNL     1       2.079   7.256  19.508  0.00  0.00    +0.000 N 
ATOM      2  C   UNL     1       2.102   8.370  18.688  0.00  0.00    +0.000 C 
ATOM      3  O   UNL     1       3.038   8.634  17.949  0.00  0.00    +0.000 OA
ATOM      4  H   UNL     1       1.294   7.181  20.152  0.00  0.00    +0.000 HD
ENDROOT
BRANCH   1   6
ATOM      5  C   UNL     1       2.994   4.881  20.194  0.00  0.00    +0.000 C 
ATOM      6  C   UNL     1       3.208   6.275  19.516  0.00  0.00    +0.000 C 
ATOM      7  C   UNL     1       3.385   5.427  18.205  0.00  0.00    +0.000 C 
ATOM      8  O   UNL     1       3.697   5.588  17.048  0.00  0.00    +0.000 OA
ATOM      9  N   UNL     1       3.026   4.252  18.859  0.00  0.00    +0.000 N 
BRANCH   9  10
ATOM     10  S   UNL     1       3.532   2.760  18.383  0.00  0.00    +0.000 S 
ATOM     11  O   UNL     1       4.045   2.064  19.541  0.00  0.00    +0.000 OA
ATOM     12  O   UNL     1       2.523   2.160  17.543  0.00  0.00    +0.000 OA
BRANCH  10  13
ATOM     13  O   UNL     1       4.805   3.078  17.456  0.00  0.00    +0.000 OA
ATOM     14  H   UNL     1       4.911   2.335  16.827  0.00  0.00    +0.000 HD
ENDBRANCH  10  13
ENDBRANCH   9  10
BRANCH   5  16
ATOM     15  C   UNL     1       0.854   3.695  20.338  0.00  0.00    +0.000 C 
ATOM     16  C   UNL     1       1.689   4.611  20.846  0.00  0.00    +0.000 C 
ENDBRANCH   5  16
ENDBRANCH   1   6
BRANCH   2  17
ATOM     17  C   UNL     1       0.854   9.274  18.784  0.00  0.00    +0.000 C 
ATOM     18  N   UNL     1       0.250   9.472  17.635  0.00  0.00    +0.000 NA
BRANCH  17  19
ATOM     19  C   UNL     1       0.446   9.850  20.086  0.00  0.00    +0.000 A 
ATOM     20  C   UNL     1       0.384  11.203  20.378  0.00  0.00    +0.000 A 
ATOM     21  S   UNL     1      -0.144  11.464  21.990  0.00  0.00    +0.000 S 
ATOM     22  C   UNL     1      -0.261   9.774  22.214  0.00  0.00    +0.000 A 
ATOM     23  N   UNL     1      -0.670   9.234  23.372  0.00  0.00    +0.000 N 
ATOM     24  N   UNL     1       0.052   9.056  21.170  0.00  0.00    +0.000 NA
ATOM     25  H   UNL     1      -1.220   9.805  24.001  0.00  0.00    +0.000 HD
ATOM     26  H   UNL     1      -0.960   8.264  23.322  0.00  0.00    +0.000 HD
ENDBRANCH  17  19
BRANCH  18  27
ATOM     27  O   UNL     1      -0.881  10.291  17.759  0.00  0.00    +0.000 OA
ATOM     28  C   UNL     1      -1.930   9.819  16.931  0.00  0.00    +0.000 C 
ENDBRANCH  18  27
ENDBRANCH   2  17
TORSDOF 7
ENDMDL
MODEL 7
REMARK VINA RESULT:      -6.3      5.531      7.256
REMARK  Name = 
REMARK  8 active torsions:
REMARK  status: ('A' for Active; 'I' for Inactive)
REMARK    1  A    between atoms: C_2  and  C_3
REMARK    2  A    between atoms: C_4  and  N_5
REMARK    3  A    between atoms: C_6  and  C_8
REMARK    4  A    between atoms: C_8  and  C_12
REMARK    5  A    between atoms: N_9  and  O_10
REMARK    6  A    between atoms: O_10  and  C_11
REMARK    7  A    between atoms: N_20  and  S_21
REMARK    8  A    between atoms: S_21  and  O_24
REMARK                            x       y       z     vdW  Elec       q    Type
REMARK                         _______ _______ _______ _____ _____    ______ ____
ROOT
ATOM      1  N   UNL     1       2.201   6.882  20.214  0.00  0.00    +0.000 N 
ATOM      2  C   UNL     1       2.003   8.092  19.573  0.00  0.00    +0.000 C 
ATOM      3  O   UNL     1       2.381   8.312  18.433  0.00  0.00    +0.000 OA
ATOM      4  H   UNL     1       1.929   6.836  21.194  0.00  0.00    +0.000 HD
ENDROOT
BRANCH   1   6
ATOM      5  C   UNL     1       2.866   4.331  20.204  0.00  0.00    +0.000 C 
ATOM      6  C   UNL     1       2.878   5.740  19.525  0.00  0.00    +0.000 C 
ATOM      7  C   UNL     1       2.041   5.025  18.403  0.00  0.00    +0.000 C 
ATOM      8  O   UNL     1       1.595   5.263  17.304  0.00  0.00    +0.000 OA
ATOM      9  N   UNL     1       1.945   3.857  19.153  0.00  0.00    +0.000 N 
BRANCH   9  10
ATOM     10  S   UNL     1       1.750   2.366  18.483  0.00  0.00    +0.000 S 
ATOM     11  O   UNL     1       2.727   1.476  19.067  0.00  0.00    +0.000 OA
ATOM     12  O   UNL     1       0.347   2.026  18.475  0.00  0.00    +0.000 OA
BRANCH  10  13
ATOM     13  O   UNL     1       2.203   2.582  16.957  0.00  0.00    +0.000 OA
ATOM     14  H   UNL     1       2.563   1.733  16.627  0.00  0.00    +0.000 HD
ENDBRANCH  10  13
ENDBRANCH   9  10
BRANCH   5  16
ATOM     15  C   UNL     1       1.882   2.993  22.007  0.00  0.00    +0.000 C 
ATOM     16  C   UNL     1       2.221   4.199  21.534  0.00  0.00    +0.000 C 
ENDBRANCH   5  16
ENDBRANCH   1   6
BRANCH   2  17
ATOM     17  C   UNL     1       1.273   9.161  20.414  0.00  0.00    +0.000 C 
ATOM     18  N   UNL     1       1.444   9.029  21.709  0.00  0.00    +0.000 NA
BRANCH  17  19
ATOM     19  C   UNL     1       0.450  10.200  19.753  0.00  0.00    +0.000 A 
ATOM     20  C   UNL     1      -0.919  10.131  19.556  0.00  0.00    +0.000 A 
ATOM     21  S   UNL     1      -1.502  11.537  18.763  0.00  0.00    +0.000 S 
ATOM     22  C   UNL     1       0.089  12.161  18.723  0.00  0.00    +0.000 A 
ATOM     23  N   UNL     1       0.373  13.359  18.191  0.00  0.00    +0.000 N 
ATOM     24  N   UNL     1       0.995  11.396  19.269  0.00  0.00    +0.000 NA
ATOM     25  H   UNL     1      -0.373  14.039  18.111  0.00  0.00    +0.000 HD
ATOM     26  H   UNL     1       1.272  13.749  18.451  0.00  0.00    +0.000 HD
ENDBRANCH  17  19
BRANCH  18  27
ATOM     27  O   UNL     1       0.774  10.017  22.442  0.00  0.00    +0.000 OA
ATOM     28  C   UNL     1      -0.174   9.431  23.318  0.00  0.00    +0.000 C 
ENDBRANCH  18  27
ENDBRANCH   2  17
TORSDOF 7
ENDMDL
MODEL 8
REMARK VINA RESULT:      -6.2      5.874      7.421
REMARK  Name = 
REMARK  8 active torsions:
REMARK  status: ('A' for Active; 'I' for Inactive)
REMARK    1  A    between atoms: C_2  and  C_3
REMARK    2  A    between atoms: C_4  and  N_5
REMARK    3  A    between atoms: C_6  and  C_8
REMARK    4  A    between atoms: C_8  and  C_12
REMARK    5  A    between atoms: N_9  and  O_10
REMARK    6  A    between atoms: O_10  and  C_11
REMARK    7  A    between atoms: N_20  and  S_21
REMARK    8  A    between atoms: S_21  and  O_24
REMARK                            x       y       z     vdW  Elec       q    Type
REMARK                         _______ _______ _______ _____ _____    ______ ____
ROOT
ATOM      1  N   UNL     1       1.879   8.826  18.674  0.00  0.00    +0.000 N 
ATOM      2  C   UNL     1       2.231   7.603  19.218  0.00  0.00    +0.000 C 
ATOM      3  O   UNL     1       1.882   7.244  20.332  0.00  0.00    +0.000 OA
ATOM      4  H   UNL     1       2.300   9.064  17.778  0.00  0.00    +0.000 HD
ENDROOT
BRANCH   1   6
ATOM      5  C   UNL     1       1.236  11.323  19.224  0.00  0.00    +0.000 C 
ATOM      6  C   UNL     1       1.011   9.787  19.422  0.00  0.00    +0.000 C 
ATOM      7  C   UNL     1      -0.395  10.077  18.783  0.00  0.00    +0.000 C 
ATOM      8  O   UNL     1      -1.435   9.501  18.563  0.00  0.00    +0.000 OA
ATOM      9  N   UNL     1      -0.048  11.395  18.499  0.00  0.00    +0.000 N 
BRANCH   9  10
ATOM     10  S   UNL     1      -1.147  12.614  18.374  0.00  0.00    +0.000 S 
ATOM     11  O   UNL     1      -2.071  12.506  19.478  0.00  0.00    +0.000 OA
ATOM     12  O   UNL     1      -0.457  13.851  18.100  0.00  0.00    +0.000 OA
BRANCH  10  13
ATOM     13  O   UNL     1      -1.982  12.225  17.057  0.00  0.00    +0.000 OA
ATOM     14  H   UNL     1      -2.027  13.020  16.485  0.00  0.00    +0.000 HD
ENDBRANCH  10  13
ENDBRANCH   9  10
BRANCH   5  16
ATOM     15  C   UNL     1       2.742  13.039  18.330  0.00  0.00    +0.000 C 
ATOM     16  C   UNL     1       2.340  11.761  18.335  0.00  0.00    +0.000 C 
ENDBRANCH   5  16
ENDBRANCH   1   6
BRANCH   2  17
ATOM     17  C   UNL     1       3.116   6.720  18.312  0.00  0.00    +0.000 C 
ATOM     18  N   UNL     1       3.810   7.394  17.424  0.00  0.00    +0.000 NA
BRANCH  17  19
ATOM     19  C   UNL     1       3.114   5.247  18.471  0.00  0.00    +0.000 A 
ATOM     20  C   UNL     1       2.139   4.392  17.985  0.00  0.00    +0.000 A 
ATOM     21  S   UNL     1       2.504   2.758  18.366  0.00  0.00    +0.000 S 
ATOM     22  C   UNL     1       3.931   3.272  19.154  0.00  0.00    +0.000 A 
ATOM     23  N   UNL     1       4.780   2.408  19.729  0.00  0.00    +0.000 N 
ATOM     24  N   UNL     1       4.141   4.561  19.129  0.00  0.00    +0.000 NA
ATOM     25  H   UNL     1       4.764   1.443  19.425  0.00  0.00    +0.000 HD
ATOM     26  H   UNL     1       5.706   2.772  19.926  0.00  0.00    +0.000 HD
ENDBRANCH  17  19
BRANCH  18  27
ATOM     27  O   UNL     1       4.606   6.564  16.623  0.00  0.00    +0.000 OA
ATOM     28  C   UNL     1       5.981   6.787  16.887  0.00  0.00    +0.000 C 
ENDBRANCH  18  27
ENDBRANCH   2  17
TORSDOF 7
ENDMDL
MODEL 9
REMARK VINA RESULT:      -6.2      6.017      7.430
REMARK  Name = 
REMARK  8 active torsions:
REMARK  status: ('A' for Active; 'I' for Inactive)
REMARK    1  A    between atoms: C_2  and  C_3
REMARK    2  A    between atoms: C_4  and  N_5
REMARK    3  A    between atoms: C_6  and  C_8
REMARK    4  A    between atoms: C_8  and  C_12
REMARK    5  A    between atoms: N_9  and  O_10
REMARK    6  A    between atoms: O_10  and  C_11
REMARK    7  A    between atoms: N_20  and  S_21
REMARK    8  A    between atoms: S_21  and  O_24
REMARK                            x       y       z     vdW  Elec       q    Type
REMARK                         _______ _______ _______ _____ _____    ______ ____
ROOT
ATOM      1  N   UNL     1       1.526   8.459  19.363  0.00  0.00    +0.000 N 
ATOM      2  C   UNL     1       2.212   8.139  18.205  0.00  0.00    +0.000 C 
ATOM      3  O   UNL     1       2.117   8.787  17.174  0.00  0.00    +0.000 OA
ATOM      4  H   UNL     1       1.605   7.799  20.135  0.00  0.00    +0.000 HD
ENDROOT
BRANCH   1   6
ATOM      5  C   UNL     1       0.165  10.174  20.832  0.00  0.00    +0.000 C 
ATOM      6  C   UNL     1       0.633   9.656  19.431  0.00  0.00    +0.000 C 
ATOM      7  C   UNL     1       1.353  11.051  19.339  0.00  0.00    +0.000 C 
ATOM      8  O   UNL     1       1.969  11.709  18.533  0.00  0.00    +0.000 OA
ATOM      9  N   UNL     1       1.026  11.360  20.655  0.00  0.00    +0.000 N 
BRANCH   9  10
ATOM     10  S   UNL     1       0.861  12.902  21.209  0.00  0.00    +0.000 S 
ATOM     11  O   UNL     1      -0.107  12.898  22.281  0.00  0.00    +0.000 OA
ATOM     12  O   UNL     1       2.168  13.486  21.390  0.00  0.00    +0.000 OA
BRANCH  10  13
ATOM     13  O   UNL     1       0.158  13.664  19.980  0.00  0.00    +0.000 OA
ATOM     14  H   UNL     1      -0.189  12.984  19.365  0.00  0.00    +0.000 HD
ENDBRANCH  10  13
ENDBRANCH   9  10
BRANCH   5  16
ATOM     15  C   UNL     1      -0.085   9.538  23.186  0.00  0.00    +0.000 C 
ATOM     16  C   UNL     1       0.592   9.419  22.036  0.00  0.00    +0.000 C 
ENDBRANCH   5  16
ENDBRANCH   1   6
BRANCH   2  17
ATOM     17  C   UNL     1       3.105   6.883  18.304  0.00  0.00    +0.000 C 
ATOM     18  N   UNL     1       4.304   7.041  17.792  0.00  0.00    +0.000 NA
BRANCH  17  19
ATOM     19  C   UNL     1       2.582   5.639  18.914  0.00  0.00    +0.000 A 
ATOM     20  C   UNL     1       1.916   4.633  18.232  0.00  0.00    +0.000 A 
ATOM     21  S   UNL     1       1.480   3.354  19.290  0.00  0.00    +0.000 S 
ATOM     22  C   UNL     1       2.195   4.200  20.592  0.00  0.00    +0.000 A 
ATOM     23  N   UNL     1       2.218   3.707  21.839  0.00  0.00    +0.000 N 
ATOM     24  N   UNL     1       2.736   5.345  20.274  0.00  0.00    +0.000 NA
ATOM     25  H   UNL     1       2.114   2.707  21.962  0.00  0.00    +0.000 HD
ATOM     26  H   UNL     1       2.883   4.142  22.468  0.00  0.00    +0.000 HD
ENDBRANCH  17  19
BRANCH  18  27
ATOM     27  O   UNL     1       5.090   5.886  17.904  0.00  0.00    +0.000 OA
ATOM     28  C   UNL     1       6.437   6.166  17.563  0.00  0.00    +0.000 C 
ENDBRANCH  18  27
ENDBRANCH   2  17
TORSDOF 7
ENDMDL
