MODEL 1
REMARK VINA RESULT:      -5.8      0.000      0.000
REMARK  Name = 
REMARK  10 active torsions:
REMARK  status: ('A' for Active; 'I' for Inactive)
REMARK    1  A    between atoms: C_1  and  O_2
REMARK    2  A    between atoms: O_2  and  C_3
REMARK    3  A    between atoms: C_3  and  C_4
REMARK    4  A    between atoms: C_4  and  C_5
REMARK    5  A    between atoms: C_5  and  N_6
REMARK    6  A    between atoms: C_7  and  O_9
REMARK    7  A    between atoms: O_9  and  C_10
REMARK    8  A    between atoms: C_10  and  C_11
REMARK    9  A    between atoms: C_11  and  C_12
REMARK   10  A    between atoms: C_12  and  C_13
REMARK                            x       y       z     vdW  Elec       q    Type
REMARK                         _______ _______ _______ _____ _____    ______ ____
ROOT
ATOM      1  O   UNL     1       5.998   5.317  17.430  0.00  0.00    +0.000 OA
ENDROOT
BRANCH   1   3
ATOM      2  N   UNL     1       7.414   4.640  15.819  0.00  0.00    +0.000 N 
ATOM      3  C   UNL     1       7.184   4.724  17.159  0.00  0.00    +0.000 C 
ATOM      4  O   UNL     1       7.947   4.235  17.979  0.00  0.00    +0.000 OA
ATOM      5  H   UNL     1       8.202   4.069  15.548  0.00  0.00    +0.000 HD
BRANCH   2   6
ATOM      6  C   UNL     1       6.480   5.070  14.800  0.00  0.00    +0.000 C 
BRANCH   6   7
ATOM      7  C   UNL     1       5.999   3.889  13.978  0.00  0.00    +0.000 C 
BRANCH   7   8
ATOM      8  C   UNL     1       6.709   3.831  12.644  0.00  0.00    +0.000 C 
BRANCH   8  10
ATOM      9  C   UNL     1       4.629   3.143  11.799  0.00  0.00    +0.000 C 
ATOM     10  O   UNL     1       6.026   2.894  11.817  0.00  0.00    +0.000 OA
ENDBRANCH   8  10
ENDBRANCH   7   8
ENDBRANCH   6   7
ENDBRANCH   2   6
ENDBRANCH   1   3
BRANCH   1  11
ATOM     11  C   UNL     1       5.146   4.572  18.295  0.00  0.00    +0.000 C 
BRANCH  11  12
ATOM     12  C   UNL     1       4.116   5.439  18.990  0.00  0.00    +0.000 C 
BRANCH  12  13
ATOM     13  C   UNL     1       2.804   5.371  18.217  0.00  0.00    +0.000 C 
BRANCH  13  14
ATOM     14  C   UNL     1       1.918   4.305  18.736  0.00  0.00    +0.000 A 
ATOM     15  C   UNL     1       1.318   4.216  19.974  0.00  0.00    +0.000 A 
ATOM     16  N   UNL     1       0.592   3.055  19.927  0.00  0.00    +0.000 N 
ATOM     17  C   UNL     1       0.780   2.501  18.695  0.00  0.00    +0.000 A 
ATOM     18  N   UNL     1       1.578   3.232  17.951  0.00  0.00    +0.000 NA
ATOM     19  H   UNL     1       0.017   2.679  20.665  0.00  0.00    +0.000 HD
ENDBRANCH  13  14
ENDBRANCH  12  13
ENDBRANCH  11  12
ENDBRANCH   1  11
TORSDOF 9
ENDMDL
MODEL 2
REMARK VINA RESULT:      -5.7      2.609      6.714
REMARK  Name = 
REMARK  10 active torsions:
REMARK  status: ('A' for Active; 'I' for Inactive)
REMARK    1  A    between atoms: C_1  and  O_2
REMARK    2  A    between atoms: O_2  and  C_3
REMARK    3  A    between atoms: C_3  and  C_4
REMARK    4  A    between atoms: C_4  and  C_5
REMARK    5  A    between atoms: C_5  and  N_6
REMARK    6  A    between atoms: C_7  and  O_9
REMARK    7  A    between atoms: O_9  and  C_10
REMARK    8  A    between atoms: C_10  and  C_11
REMARK    9  A    between atoms: C_11  and  C_12
REMARK   10  A    between atoms: C_12  and  C_13
REMARK                            x       y       z     vdW  Elec       q    Type
REMARK                         _______ _______ _______ _____ _____    ______ ____
ROOT
ATOM      1  O   UNL     1       4.138   4.275  17.407  0.00  0.00    +0.000 OA
ENDROOT
BRANCH   1   3
ATOM      2  N   UNL     1       2.317   5.235  18.312  0.00  0.00    +0.000 N 
ATOM      3  C   UNL     1       3.622   5.398  17.959  0.00  0.00    +0.000 C 
ATOM      4  O   UNL     1       4.195   6.472  18.073  0.00  0.00    +0.000 OA
ATOM      5  H   UNL     1       1.831   6.079  18.582  0.00  0.00    +0.000 HD
BRANCH   2   6
ATOM      6  C   UNL     1       1.548   4.034  18.069  0.00  0.00    +0.000 C 
BRANCH   6   7
ATOM      7  C   UNL     1       1.045   3.443  19.373  0.00  0.00    +0.000 C 
BRANCH   7   8
ATOM      8  C   UNL     1       1.131   4.453  20.495  0.00  0.00    +0.000 C 
BRANCH   8  10
ATOM      9  C   UNL     1       2.338   2.742  21.557  0.00  0.00    +0.000 C 
ATOM     10  O   UNL     1       2.267   4.134  21.294  0.00  0.00    +0.000 OA
ENDBRANCH   8  10
ENDBRANCH   7   8
ENDBRANCH   6   7
ENDBRANCH   2   6
ENDBRANCH   1   3
BRANCH   1  11
ATOM     11  C   UNL     1       4.565   4.422  16.056  0.00  0.00    +0.000 C 
BRANCH  11  12
ATOM     12  C   UNL     1       5.856   3.682  15.767  0.00  0.00    +0.000 C 
BRANCH  12  13
ATOM     13  C   UNL     1       6.964   4.696  15.507  0.00  0.00    +0.000 C 
BRANCH  13  14
ATOM     14  C   UNL     1       7.296   5.468  16.726  0.00  0.00    +0.000 A 
ATOM     15  C   UNL     1       7.558   4.996  17.995  0.00  0.00    +0.000 A 
ATOM     16  N   UNL     1       7.827   6.118  18.735  0.00  0.00    +0.000 N 
ATOM     17  C   UNL     1       7.718   7.195  17.905  0.00  0.00    +0.000 A 
ATOM     18  N   UNL     1       7.397   6.836  16.683  0.00  0.00    +0.000 NA
ATOM     19  H   UNL     1       8.069   6.145  19.713  0.00  0.00    +0.000 HD
ENDBRANCH  13  14
ENDBRANCH  12  13
ENDBRANCH  11  12
ENDBRANCH   1  11
TORSDOF 9
ENDMDL
MODEL 3
REMARK VINA RESULT:      -5.7      2.590      6.534
REMARK  Name = 
REMARK  10 active torsions:
REMARK  status: ('A' for Active; 'I' for Inactive)
REMARK    1  A    between atoms: C_1  and  O_2
REMARK    2  A    between atoms: O_2  and  C_3
REMARK    3  A    between atoms: C_3  and  C_4
REMARK    4  A    between atoms: C_4  and  C_5
REMARK    5  A    between atoms: C_5  and  N_6
REMARK    6  A    between atoms: C_7  and  O_9
REMARK    7  A    between atoms: O_9  and  C_10
REMARK    8  A    between atoms: C_10  and  C_11
REMARK    9  A    between atoms: C_11  and  C_12
REMARK   10  A    between atoms: C_12  and  C_13
REMARK                            x       y       z     vdW  Elec       q    Type
REMARK                         _______ _______ _______ _____ _____    ______ ____
ROOT
ATOM      1  O   UNL     1       3.866   5.017  17.207  0.00  0.00    +0.000 OA
ENDROOT
BRANCH   1   3
ATOM      2  N   UNL     1       2.590   4.653  19.023  0.00  0.00    +0.000 N 
ATOM      3  C   UNL     1       3.788   5.100  18.555  0.00  0.00    +0.000 C 
ATOM      4  O   UNL     1       4.632   5.585  19.296  0.00  0.00    +0.000 OA
ATOM      5  H   UNL     1       2.409   4.835  20.000  0.00  0.00    +0.000 HD
BRANCH   2   6
ATOM      6  C   UNL     1       1.500   4.204  18.182  0.00  0.00    +0.000 C 
BRANCH   6   7
ATOM      7  C   UNL     1       1.281   2.710  18.338  0.00  0.00    +0.000 C 
BRANCH   7   8
ATOM      8  C   UNL     1       1.871   2.208  19.636  0.00  0.00    +0.000 C 
BRANCH   8  10
ATOM      9  C   UNL     1       1.782   2.689  21.933  0.00  0.00    +0.000 C 
ATOM     10  O   UNL     1       1.069   2.700  20.707  0.00  0.00    +0.000 OA
ENDBRANCH   8  10
ENDBRANCH   7   8
ENDBRANCH   6   7
ENDBRANCH   2   6
ENDBRANCH   1   3
BRANCH   1  11
ATOM     11  C   UNL     1       4.675   3.948  16.725  0.00  0.00    +0.000 C 
BRANCH  11  12
ATOM     12  C   UNL     1       5.514   4.344  15.527  0.00  0.00    +0.000 C 
BRANCH  12  13
ATOM     13  C   UNL     1       6.989   4.243  15.897  0.00  0.00    +0.000 C 
BRANCH  13  14
ATOM     14  C   UNL     1       7.324   5.108  17.051  0.00  0.00    +0.000 A 
ATOM     15  C   UNL     1       7.262   6.482  17.140  0.00  0.00    +0.000 A 
ATOM     16  N   UNL     1       7.654   6.767  18.422  0.00  0.00    +0.000 N 
ATOM     17  C   UNL     1       7.933   5.583  19.040  0.00  0.00    +0.000 A 
ATOM     18  N   UNL     1       7.745   4.560  18.237  0.00  0.00    +0.000 NA
ATOM     19  H   UNL     1       7.719   7.683  18.838  0.00  0.00    +0.000 HD
ENDBRANCH  13  14
ENDBRANCH  12  13
ENDBRANCH  11  12
ENDBRANCH   1  11
TORSDOF 9
ENDMDL
MODEL 4
REMARK VINA RESULT:      -5.6      2.908      6.673
REMARK  Name = 
REMARK  10 active torsions:
REMARK  status: ('A' for Active; 'I' for Inactive)
REMARK    1  A    between atoms: C_1  and  O_2
REMARK    2  A    between atoms: O_2  and  C_3
REMARK    3  A    between atoms: C_3  and  C_4
REMARK    4  A    between atoms: C_4  and  C_5
REMARK    5  A    between atoms: C_5  and  N_6
REMARK    6  A    between atoms: C_7  and  O_9
REMARK    7  A    between atoms: O_9  and  C_10
REMARK    8  A    between atoms: C_10  and  C_11
REMARK    9  A    between atoms: C_11  and  C_12
REMARK   10  A    between atoms: C_12  and  C_13
REMARK                            x       y       z     vdW  Elec       q    Type
REMARK                         _______ _______ _______ _____ _____    ______ ____
ROOT
ATOM      1  O   UNL     1       3.116   3.241  17.290  0.00  0.00    +0.000 OA
ENDROOT
BRANCH   1   3
ATOM      2  N   UNL     1       2.038   1.782  18.619  0.00  0.00    +0.000 N 
ATOM      3  C   UNL     1       3.146   2.016  17.864  0.00  0.00    +0.000 C 
ATOM      4  O   UNL     1       4.071   1.217  17.805  0.00  0.00    +0.000 OA
ATOM      5  H   UNL     1       2.073   0.955  19.197  0.00  0.00    +0.000 HD
BRANCH   2   6
ATOM      6  C   UNL     1       0.981   2.746  18.841  0.00  0.00    +0.000 C 
BRANCH   6   7
ATOM      7  C   UNL     1       0.869   3.093  20.314  0.00  0.00    +0.000 C 
BRANCH   7   8
ATOM      8  C   UNL     1       1.122   4.566  20.545  0.00  0.00    +0.000 C 
BRANCH   8  10
ATOM      9  C   UNL     1       2.564   6.212  19.694  0.00  0.00    +0.000 C 
ATOM     10  O   UNL     1       2.447   4.862  20.112  0.00  0.00    +0.000 OA
ENDBRANCH   8  10
ENDBRANCH   7   8
ENDBRANCH   6   7
ENDBRANCH   2   6
ENDBRANCH   1   3
BRANCH   1  11
ATOM     11  C   UNL     1       4.317   3.994  17.434  0.00  0.00    +0.000 C 
BRANCH  11  12
ATOM     12  C   UNL     1       4.968   4.316  16.105  0.00  0.00    +0.000 C 
BRANCH  12  13
ATOM     13  C   UNL     1       6.476   4.134  16.232  0.00  0.00    +0.000 C 
BRANCH  13  14
ATOM     14  C   UNL     1       7.061   5.080  17.211  0.00  0.00    +0.000 A 
ATOM     15  C   UNL     1       7.139   6.454  17.133  0.00  0.00    +0.000 A 
ATOM     16  N   UNL     1       7.745   6.835  18.301  0.00  0.00    +0.000 N 
ATOM     17  C   UNL     1       8.004   5.704  19.018  0.00  0.00    +0.000 A 
ATOM     18  N   UNL     1       7.604   4.625  18.386  0.00  0.00    +0.000 NA
ATOM     19  H   UNL     1       7.957   7.779  18.585  0.00  0.00    +0.000 HD
ENDBRANCH  13  14
ENDBRANCH  12  13
ENDBRANCH  11  12
ENDBRANCH   1  11
TORSDOF 9
ENDMDL
MODEL 5
REMARK VINA RESULT:      -5.5      3.091      6.460
REMARK  Name = 
REMARK  10 active torsions:
REMARK  status: ('A' for Active; 'I' for Inactive)
REMARK    1  A    between atoms: C_1  and  O_2
REMARK    2  A    between atoms: O_2  and  C_3
REMARK    3  A    between atoms: C_3  and  C_4
REMARK    4  A    between atoms: C_4  and  C_5
REMARK    5  A    between atoms: C_5  and  N_6
REMARK    6  A    between atoms: C_7  and  O_9
REMARK    7  A    between atoms: O_9  and  C_10
REMARK    8  A    between atoms: C_10  and  C_11
REMARK    9  A    between atoms: C_11  and  C_12
REMARK   10  A    between atoms: C_12  and  C_13
REMARK                            x       y       z     vdW  Elec       q    Type
REMARK                         _______ _______ _______ _____ _____    ______ ____
ROOT
ATOM      1  O   UNL     1       3.383   5.733  19.089  0.00  0.00    +0.000 OA
ENDROOT
BRANCH   1   3
ATOM      2  N   UNL     1       1.969   5.613  20.834  0.00  0.00    +0.000 N 
ATOM      3  C   UNL     1       2.470   6.395  19.838  0.00  0.00    +0.000 C 
ATOM      4  O   UNL     1       2.056   7.527  19.632  0.00  0.00    +0.000 OA
ATOM      5  H   UNL     1       1.174   5.993  21.327  0.00  0.00    +0.000 HD
BRANCH   2   6
ATOM      6  C   UNL     1       2.315   4.222  21.034  0.00  0.00    +0.000 C 
BRANCH   6   7
ATOM      7  C   UNL     1       1.121   3.325  20.761  0.00  0.00    +0.000 C 
BRANCH   7   8
ATOM      8  C   UNL     1       0.989   3.035  19.283  0.00  0.00    +0.000 C 
BRANCH   8  10
ATOM      9  C   UNL     1       2.708   2.324  17.850  0.00  0.00    +0.000 C 
ATOM     10  O   UNL     1       1.889   1.980  18.955  0.00  0.00    +0.000 OA
ENDBRANCH   8  10
ENDBRANCH   7   8
ENDBRANCH   6   7
ENDBRANCH   2   6
ENDBRANCH   1   3
BRANCH   1  11
ATOM     11  C   UNL     1       3.390   6.091  17.710  0.00  0.00    +0.000 C 
BRANCH  11  12
ATOM     12  C   UNL     1       4.668   6.791  17.295  0.00  0.00    +0.000 C 
BRANCH  12  13
ATOM     13  C   UNL     1       5.846   5.849  17.518  0.00  0.00    +0.000 C 
BRANCH  13  14
ATOM     14  C   UNL     1       6.188   5.100  16.287  0.00  0.00    +0.000 A 
ATOM     15  C   UNL     1       5.714   3.875  15.870  0.00  0.00    +0.000 A 
ATOM     16  N   UNL     1       6.329   3.655  14.665  0.00  0.00    +0.000 N 
ATOM     17  C   UNL     1       7.132   4.728  14.410  0.00  0.00    +0.000 A 
ATOM     18  N   UNL     1       7.070   5.620  15.373  0.00  0.00    +0.000 NA
ATOM     19  H   UNL     1       6.208   2.851  14.069  0.00  0.00    +0.000 HD
ENDBRANCH  13  14
ENDBRANCH  12  13
ENDBRANCH  11  12
ENDBRANCH   1  11
TORSDOF 9
ENDMDL
MODEL 6
REMARK VINA RESULT:      -5.5      2.910      6.517
REMARK  Name = 
REMARK  10 active torsions:
REMARK  status: ('A' for Active; 'I' for Inactive)
REMARK    1  A    between atoms: C_1  and  O_2
REMARK    2  A    between atoms: O_2  and  C_3
REMARK    3  A    between atoms: C_3  and  C_4
REMARK    4  A    between atoms: C_4  and  C_5
REMARK    5  A    between atoms: C_5  and  N_6
REMARK    6  A    between atoms: C_7  and  O_9
REMARK    7  A    between atoms: O_9  and  C_10
REMARK    8  A    between atoms: C_10  and  C_11
REMARK    9  A    between atoms: C_11  and  C_12
REMARK   10  A    between atoms: C_12  and  C_13
REMARK                            x       y       z     vdW  Elec       q    Type
REMARK                         _______ _______ _______ _____ _____    ______ ____
ROOT
ATOM      1  O   UNL     1       5.050   5.843  18.600  0.00  0.00    +0.000 OA
ENDROOT
BRANCH   1   3
ATOM      2  N   UNL     1       5.522   3.723  19.183  0.00  0.00    +0.000 N 
ATOM      3  C   UNL     1       5.918   5.025  19.239  0.00  0.00    +0.000 C 
ATOM      4  O   UNL     1       6.904   5.375  19.872  0.00  0.00    +0.000 OA
ATOM      5  H   UNL     1       6.039   3.086  19.772  0.00  0.00    +0.000 HD
BRANCH   2   6
ATOM      6  C   UNL     1       4.290   3.269  18.573  0.00  0.00    +0.000 C 
BRANCH   6   7
ATOM      7  C   UNL     1       3.444   2.504  19.574  0.00  0.00    +0.000 C 
BRANCH   7   8
ATOM      8  C   UNL     1       2.235   3.311  19.991  0.00  0.00    +0.000 C 
BRANCH   8  10
ATOM      9  C   UNL     1       1.948   5.610  20.371  0.00  0.00    +0.000 C 
ATOM     10  O   UNL     1       2.691   4.451  20.714  0.00  0.00    +0.000 OA
ENDBRANCH   8  10
ENDBRANCH   7   8
ENDBRANCH   6   7
ENDBRANCH   2   6
ENDBRANCH   1   3
BRANCH   1  11
ATOM     11  C   UNL     1       5.613   6.570  17.511  0.00  0.00    +0.000 C 
BRANCH  11  12
ATOM     12  C   UNL     1       5.496   5.832  16.193  0.00  0.00    +0.000 C 
BRANCH  12  13
ATOM     13  C   UNL     1       6.890   5.446  15.712  0.00  0.00    +0.000 C 
BRANCH  13  14
ATOM     14  C   UNL     1       6.849   4.790  14.386  0.00  0.00    +0.000 A 
ATOM     15  C   UNL     1       6.093   3.707  13.988  0.00  0.00    +0.000 A 
ATOM     16  N   UNL     1       6.414   3.524  12.669  0.00  0.00    +0.000 N 
ATOM     17  C   UNL     1       7.329   4.477  12.331  0.00  0.00    +0.000 A 
ATOM     18  N   UNL     1       7.614   5.258  13.348  0.00  0.00    +0.000 NA
ATOM     19  H   UNL     1       6.038   2.818  12.054  0.00  0.00    +0.000 HD
ENDBRANCH  13  14
ENDBRANCH  12  13
ENDBRANCH  11  12
ENDBRANCH   1  11
TORSDOF 9
ENDMDL
MODEL 7
REMARK VINA RESULT:      -5.5      2.686      3.854
REMARK  Name = 
REMARK  10 active torsions:
REMARK  status: ('A' for Active; 'I' for Inactive)
REMARK    1  A    between atoms: C_1  and  O_2
REMARK    2  A    between atoms: O_2  and  C_3
REMARK    3  A    between atoms: C_3  and  C_4
REMARK    4  A    between atoms: C_4  and  C_5
REMARK    5  A    between atoms: C_5  and  N_6
REMARK    6  A    between atoms: C_7  and  O_9
REMARK    7  A    between atoms: O_9  and  C_10
REMARK    8  A    between atoms: C_10  and  C_11
REMARK    9  A    between atoms: C_11  and  C_12
REMARK   10  A    between atoms: C_12  and  C_13
REMARK                            x       y       z     vdW  Elec       q    Type
REMARK                         _______ _______ _______ _____ _____    ______ ____
ROOT
ATOM      1  O   UNL     1       4.168   5.271  16.733  0.00  0.00    +0.000 OA
ENDROOT
BRANCH   1   3
ATOM      2  N   UNL     1       5.604   3.551  16.913  0.00  0.00    +0.000 N 
ATOM      3  C   UNL     1       4.310   3.957  17.022  0.00  0.00    +0.000 C 
ATOM      4  O   UNL     1       3.405   3.175  17.276  0.00  0.00    +0.000 OA
ATOM      5  H   UNL     1       5.753   2.553  16.961  0.00  0.00    +0.000 HD
BRANCH   2   6
ATOM      6  C   UNL     1       6.694   4.399  16.476  0.00  0.00    +0.000 C 
BRANCH   6   7
ATOM      7  C   UNL     1       7.687   4.621  17.602  0.00  0.00    +0.000 C 
BRANCH   7   8
ATOM      8  C   UNL     1       7.503   5.986  18.226  0.00  0.00    +0.000 C 
BRANCH   8  10
ATOM      9  C   UNL     1       7.903   8.232  17.669  0.00  0.00    +0.000 C 
ATOM     10  O   UNL     1       7.518   6.956  17.182  0.00  0.00    +0.000 OA
ENDBRANCH   8  10
ENDBRANCH   7   8
ENDBRANCH   6   7
ENDBRANCH   2   6
ENDBRANCH   1   3
BRANCH   1  11
ATOM     11  C   UNL     1       4.005   6.115  17.870  0.00  0.00    +0.000 C 
BRANCH  11  12
ATOM     12  C   UNL     1       2.642   5.968  18.515  0.00  0.00    +0.000 C 
BRANCH  12  13
ATOM     13  C   UNL     1       2.823   5.664  19.998  0.00  0.00    +0.000 C 
BRANCH  13  14
ATOM     14  C   UNL     1       2.044   4.475  20.412  0.00  0.00    +0.000 A 
ATOM     15  C   UNL     1       1.035   3.831  19.728  0.00  0.00    +0.000 A 
ATOM     16  N   UNL     1       0.675   2.787  20.539  0.00  0.00    +0.000 N 
ATOM     17  C   UNL     1       1.459   2.843  21.654  0.00  0.00    +0.000 A 
ATOM     18  N   UNL     1       2.297   3.853  21.608  0.00  0.00    +0.000 NA
ATOM     19  H   UNL     1      -0.035   2.098  20.347  0.00  0.00    +0.000 HD
ENDBRANCH  13  14
ENDBRANCH  12  13
ENDBRANCH  11  12
ENDBRANCH   1  11
TORSDOF 9
ENDMDL
MODEL 8
REMARK VINA RESULT:      -5.4      2.550      6.229
REMARK  Name = 
REMARK  10 active torsions:
REMARK  status: ('A' for Active; 'I' for Inactive)
REMARK    1  A    between atoms: C_1  and  O_2
REMARK    2  A    between atoms: O_2  and  C_3
REMARK    3  A    between atoms: C_3  and  C_4
REMARK    4  A    between atoms: C_4  and  C_5
REMARK    5  A    between atoms: C_5  and  N_6
REMARK    6  A    between atoms: C_7  and  O_9
REMARK    7  A    between atoms: O_9  and  C_10
REMARK    8  A    between atoms: C_10  and  C_11
REMARK    9  A    between atoms: C_11  and  C_12
REMARK   10  A    between atoms: C_12  and  C_13
REMARK                            x       y       z     vdW  Elec       q    Type
REMARK                         _______ _______ _______ _____ _____    ______ ____
ROOT
ATOM      1  O   UNL     1       4.255   5.717  17.520  0.00  0.00    +0.000 OA
ENDROOT
BRANCH   1   3
ATOM      2  N   UNL     1       2.223   4.805  17.826  0.00  0.00    +0.000 N 
ATOM      3  C   UNL     1       3.000   5.911  17.988  0.00  0.00    +0.000 C 
ATOM      4  O   UNL     1       2.552   6.957  18.434  0.00  0.00    +0.000 OA
ATOM      5  H   UNL     1       1.238   4.934  18.008  0.00  0.00    +0.000 HD
BRANCH   2   6
ATOM      6  C   UNL     1       2.658   3.588  17.173  0.00  0.00    +0.000 C 
BRANCH   6   7
ATOM      7  C   UNL     1       2.536   2.401  18.112  0.00  0.00    +0.000 C 
BRANCH   7   8
ATOM      8  C   UNL     1       3.574   2.468  19.209  0.00  0.00    +0.000 C 
BRANCH   8  10
ATOM      9  C   UNL     1       1.710   2.608  20.630  0.00  0.00    +0.000 C 
ATOM     10  O   UNL     1       2.994   3.131  20.329  0.00  0.00    +0.000 OA
ENDBRANCH   8  10
ENDBRANCH   7   8
ENDBRANCH   6   7
ENDBRANCH   2   6
ENDBRANCH   1   3
BRANCH   1  11
ATOM     11  C   UNL     1       5.279   5.836  18.504  0.00  0.00    +0.000 C 
BRANCH  11  12
ATOM     12  C   UNL     1       6.647   6.072  17.898  0.00  0.00    +0.000 C 
BRANCH  12  13
ATOM     13  C   UNL     1       7.227   4.738  17.441  0.00  0.00    +0.000 C 
BRANCH  13  14
ATOM     14  C   UNL     1       6.975   4.497  16.001  0.00  0.00    +0.000 A 
ATOM     15  C   UNL     1       6.151   3.555  15.422  0.00  0.00    +0.000 A 
ATOM     16  N   UNL     1       6.266   3.775  14.074  0.00  0.00    +0.000 N 
ATOM     17  C   UNL     1       7.133   4.813  13.898  0.00  0.00    +0.000 A 
ATOM     18  N   UNL     1       7.581   5.271  15.045  0.00  0.00    +0.000 NA
ATOM     19  H   UNL     1       5.791   3.268  13.343  0.00  0.00    +0.000 HD
ENDBRANCH  13  14
ENDBRANCH  12  13
ENDBRANCH  11  12
ENDBRANCH   1  11
TORSDOF 9
ENDMDL
MODEL 9
REMARK VINA RESULT:      -5.4      1.052      1.346
REMARK  Name = 
REMARK  10 active torsions:
REMARK  status: ('A' for Active; 'I' for Inactive)
REMARK    1  A    between atoms: C_1  and  O_2
REMARK    2  A    between atoms: O_2  and  C_3
REMARK    3  A    between atoms: C_3  and  C_4
REMARK    4  A    between atoms: C_4  and  C_5
REMARK    5  A    between atoms: C_5  and  N_6
REMARK    6  A    between atoms: C_7  and  O_9
REMARK    7  A    between atoms: O_9  and  C_10
REMARK    8  A    between atoms: C_10  and  C_11
REMARK    9  A    between atoms: C_11  and  C_12
REMARK   10  A    between atoms: C_12  and  C_13
REMARK                            x       y       z     vdW  Elec       q    Type
REMARK                         _______ _______ _______ _____ _____    ______ ____
ROOT
ATOM      1  O   UNL     1       4.851   5.250  16.865  0.00  0.00    +0.000 OA
ENDROOT
BRANCH   1   3
ATOM      2  N   UNL     1       6.852   4.520  16.144  0.00  0.00    +0.000 N 
ATOM      3  C   UNL     1       6.007   4.631  17.205  0.00  0.00    +0.000 C 
ATOM      4  O   UNL     1       6.268   4.145  18.295  0.00  0.00    +0.000 OA
ATOM      5  H   UNL     1       7.660   3.931  16.291  0.00  0.00    +0.000 HD
BRANCH   2   6
ATOM      6  C   UNL     1       6.536   4.948  14.797  0.00  0.00    +0.000 C 
BRANCH   6   7
ATOM      7  C   UNL     1       5.874   3.826  14.017  0.00  0.00    +0.000 C 
BRANCH   7   8
ATOM      8  C   UNL     1       6.486   3.689  12.641  0.00  0.00    +0.000 C 
BRANCH   8  10
ATOM      9  C   UNL     1       4.431   3.213  11.607  0.00  0.00    +0.000 C 
ATOM     10  O   UNL     1       5.728   2.726  11.913  0.00  0.00    +0.000 OA
ENDBRANCH   8  10
ENDBRANCH   7   8
ENDBRANCH   6   7
ENDBRANCH   2   6
ENDBRANCH   1   3
BRANCH   1  11
ATOM     11  C   UNL     1       4.474   6.317  17.730  0.00  0.00    +0.000 C 
BRANCH  11  12
ATOM     12  C   UNL     1       3.356   5.934  18.678  0.00  0.00    +0.000 C 
BRANCH  12  13
ATOM     13  C   UNL     1       2.220   5.306  17.879  0.00  0.00    +0.000 C 
BRANCH  13  14
ATOM     14  C   UNL     1       2.012   3.886  18.248  0.00  0.00    +0.000 A 
ATOM     15  C   UNL     1       2.456   2.757  17.593  0.00  0.00    +0.000 A 
ATOM     16  N   UNL     1       2.012   1.713  18.361  0.00  0.00    +0.000 N 
ATOM     17  C   UNL     1       1.334   2.239  19.421  0.00  0.00    +0.000 A 
ATOM     18  N   UNL     1       1.314   3.552  19.381  0.00  0.00    +0.000 NA
ATOM     19  H   UNL     1       2.164   0.732  18.182  0.00  0.00    +0.000 HD
ENDBRANCH  13  14
ENDBRANCH  12  13
ENDBRANCH  11  12
ENDBRANCH   1  11
TORSDOF 9
ENDMDL
