MODEL 1
REMARK VINA RESULT:      -6.9      0.000      0.000
REMARK  Name = 
REMARK  5 active torsions:
REMARK  status: ('A' for Active; 'I' for Inactive)
REMARK    1  A    between atoms: C_2  and  C_18
REMARK    2  A    between atoms: N_3  and  C_4
REMARK    3  A    between atoms: C_4  and  C_5
REMARK    4  A    between atoms: N_7  and  C_8
REMARK    5  A    between atoms: C_8  and  C_9
REMARK                            x       y       z     vdW  Elec       q    Type
REMARK                         _______ _______ _______ _____ _____    ______ ____
ROOT
ATOM      1  C   UNL     1       2.011   8.201  18.735  0.00  0.00    +0.000 A 
ATOM      2  C   UNL     1       2.334   7.027  18.087  0.00  0.00    +0.000 A 
ATOM      3  N   UNL     1       2.400   6.103  19.087  0.00  0.00    +0.000 N 
ATOM      4  N   UNL     1       2.126   6.659  20.283  0.00  0.00    +0.000 NA
ATOM      5  N   UNL     1       1.875   7.945  20.077  0.00  0.00    +0.000 NA
ENDROOT
BRANCH   1   6
ATOM      6  C   UNL     1       1.880   9.577  18.192  0.00  0.00    +0.000 C 
BRANCH   6   9
ATOM      7  O   UNL     1      -0.132  11.004  19.588  0.00  0.00    +0.000 OA
ATOM      8  C   UNL     1      -0.383  10.524  18.488  0.00  0.00    +0.000 C 
ATOM      9  N   UNL     1       0.533   9.819  17.738  0.00  0.00    +0.000 N 
ATOM     10  H   UNL     1       0.250   9.511  16.809  0.00  0.00    +0.000 HD
BRANCH   8  11
ATOM     11  C   UNL     1      -1.735  10.673  17.877  0.00  0.00    +0.000 A 
ATOM     12  C   UNL     1      -2.665  11.507  18.481  0.00  0.00    +0.000 A 
ATOM     13  N   UNL     1      -3.918  11.676  17.988  0.00  0.00    +0.000 NA
ATOM     14  C   UNL     1      -4.196  10.971  16.866  0.00  0.00    +0.000 A 
ATOM     15  C   UNL     1      -3.266  10.134  16.264  0.00  0.00    +0.000 A 
ATOM     16  N   UNL     1      -2.010   9.959  16.748  0.00  0.00    +0.000 NA
ENDBRANCH   8  11
ENDBRANCH   6   9
ENDBRANCH   1   6
BRANCH   3  17
ATOM     17  C   UNL     1       2.843   4.724  18.996  0.00  0.00    +0.000 C 
BRANCH  17  18
ATOM     18  C   UNL     1       4.153   4.609  18.260  0.00  0.00    +0.000 A 
ATOM     19  C   UNL     1       5.346   5.060  18.850  0.00  0.00    +0.000 A 
ATOM     20  C   UNL     1       6.549   4.995  18.144  0.00  0.00    +0.000 A 
ATOM     21  C   UNL     1       6.561   4.481  16.853  0.00  0.00    +0.000 A 
ATOM     22  F   UNL     1       7.715   4.435  16.173  0.00  0.00    +0.000 F 
ATOM     23  C   UNL     1       5.395   4.020  16.256  0.00  0.00    +0.000 A 
ATOM     24  C   UNL     1       4.191   4.086  16.957  0.00  0.00    +0.000 A 
ENDBRANCH  17  18
ENDBRANCH   3  17
TORSDOF 5
ENDMDL
MODEL 2
REMARK VINA RESULT:      -6.9      3.902      8.757
REMARK  Name = 
REMARK  5 active torsions:
REMARK  status: ('A' for Active; 'I' for Inactive)
REMARK    1  A    between atoms: C_2  and  C_18
REMARK    2  A    between atoms: N_3  and  C_4
REMARK    3  A    between atoms: C_4  and  C_5
REMARK    4  A    between atoms: N_7  and  C_8
REMARK    5  A    between atoms: C_8  and  C_9
REMARK                            x       y       z     vdW  Elec       q    Type
REMARK                         _______ _______ _______ _____ _____    ______ ____
ROOT
ATOM      1  C   UNL     1       2.198   7.272  19.526  0.00  0.00    +0.000 A 
ATOM      2  C   UNL     1       2.221   8.258  18.561  0.00  0.00    +0.000 A 
ATOM      3  N   UNL     1       1.528   9.289  19.122  0.00  0.00    +0.000 N 
ATOM      4  N   UNL     1       1.107   8.975  20.362  0.00  0.00    +0.000 NA
ATOM      5  N   UNL     1       1.522   7.742  20.624  0.00  0.00    +0.000 NA
ENDROOT
BRANCH   1   6
ATOM      6  C   UNL     1       2.714   5.881  19.471  0.00  0.00    +0.000 C 
BRANCH   6   9
ATOM      7  O   UNL     1       5.086   4.331  19.414  0.00  0.00    +0.000 OA
ATOM      8  C   UNL     1       4.734   4.936  18.407  0.00  0.00    +0.000 C 
ATOM      9  N   UNL     1       3.597   5.710  18.343  0.00  0.00    +0.000 N 
ATOM     10  H   UNL     1       3.355   6.125  17.444  0.00  0.00    +0.000 HD
BRANCH   8  11
ATOM     11  C   UNL     1       5.541   4.875  17.156  0.00  0.00    +0.000 A 
ATOM     12  C   UNL     1       6.577   5.780  16.970  0.00  0.00    +0.000 A 
ATOM     13  N   UNL     1       7.341   5.791  15.848  0.00  0.00    +0.000 NA
ATOM     14  C   UNL     1       7.019   4.857  14.922  0.00  0.00    +0.000 A 
ATOM     15  C   UNL     1       5.980   3.954  15.107  0.00  0.00    +0.000 A 
ATOM     16  N   UNL     1       5.212   3.933  16.225  0.00  0.00    +0.000 NA
ENDBRANCH   8  11
ENDBRANCH   6   9
ENDBRANCH   1   6
BRANCH   3  17
ATOM     17  C   UNL     1       1.120  10.532  18.495  0.00  0.00    +0.000 C 
BRANCH  17  18
ATOM     18  C   UNL     1      -0.381  10.637  18.395  0.00  0.00    +0.000 A 
ATOM     19  C   UNL     1      -1.104   9.772  17.556  0.00  0.00    +0.000 A 
ATOM     20  C   UNL     1      -2.488   9.906  17.431  0.00  0.00    +0.000 A 
ATOM     21  C   UNL     1      -3.148  10.900  18.143  0.00  0.00    +0.000 A 
ATOM     22  F   UNL     1      -4.475  11.036  18.008  0.00  0.00    +0.000 F 
ATOM     23  C   UNL     1      -2.454  11.758  18.986  0.00  0.00    +0.000 A 
ATOM     24  C   UNL     1      -1.071  11.629  19.111  0.00  0.00    +0.000 A 
ENDBRANCH  17  18
ENDBRANCH   3  17
TORSDOF 5
ENDMDL
MODEL 3
REMARK VINA RESULT:      -6.9      4.732      8.394
REMARK  Name = 
REMARK  5 active torsions:
REMARK  status: ('A' for Active; 'I' for Inactive)
REMARK    1  A    between atoms: C_2  and  C_18
REMARK    2  A    between atoms: N_3  and  C_4
REMARK    3  A    between atoms: C_4  and  C_5
REMARK    4  A    between atoms: N_7  and  C_8
REMARK    5  A    between atoms: C_8  and  C_9
REMARK                            x       y       z     vdW  Elec       q    Type
REMARK                         _______ _______ _______ _____ _____    ______ ____
ROOT
ATOM      1  C   UNL     1       5.256   4.487  18.676  0.00  0.00    +0.000 A 
ATOM      2  C   UNL     1       4.655   5.400  19.518  0.00  0.00    +0.000 A 
ATOM      3  N   UNL     1       3.362   4.976  19.602  0.00  0.00    +0.000 N 
ATOM      4  N   UNL     1       3.167   3.862  18.870  0.00  0.00    +0.000 NA
ATOM      5  N   UNL     1       4.326   3.547  18.305  0.00  0.00    +0.000 NA
ENDROOT
BRANCH   1   6
ATOM      6  C   UNL     1       6.638   4.464  18.135  0.00  0.00    +0.000 C 
BRANCH   6   9
ATOM      7  O   UNL     1       7.403   6.250  16.071  0.00  0.00    +0.000 OA
ATOM      8  C   UNL     1       7.013   5.123  15.783  0.00  0.00    +0.000 C 
ATOM      9  N   UNL     1       6.625   4.189  16.719  0.00  0.00    +0.000 N 
ATOM     10  H   UNL     1       6.375   3.259  16.387  0.00  0.00    +0.000 HD
BRANCH   8  11
ATOM     11  C   UNL     1       6.928   4.682  14.362  0.00  0.00    +0.000 A 
ATOM     12  C   UNL     1       7.769   5.259  13.420  0.00  0.00    +0.000 A 
ATOM     13  N   UNL     1       7.733   4.916  12.107  0.00  0.00    +0.000 NA
ATOM     14  C   UNL     1       6.818   3.972  11.782  0.00  0.00    +0.000 A 
ATOM     15  C   UNL     1       5.975   3.398  12.725  0.00  0.00    +0.000 A 
ATOM     16  N   UNL     1       6.003   3.732  14.040  0.00  0.00    +0.000 NA
ENDBRANCH   8  11
ENDBRANCH   6   9
ENDBRANCH   1   6
BRANCH   3  17
ATOM     17  C   UNL     1       2.246   5.645  20.242  0.00  0.00    +0.000 C 
BRANCH  17  18
ATOM     18  C   UNL     1       2.036   7.030  19.685  0.00  0.00    +0.000 A 
ATOM     19  C   UNL     1       1.508   8.053  20.492  0.00  0.00    +0.000 A 
ATOM     20  C   UNL     1       1.271   9.320  19.957  0.00  0.00    +0.000 A 
ATOM     21  C   UNL     1       1.561   9.567  18.620  0.00  0.00    +0.000 A 
ATOM     22  F   UNL     1       1.317  10.780  18.106  0.00  0.00    +0.000 F 
ATOM     23  C   UNL     1       2.094   8.573  17.809  0.00  0.00    +0.000 A 
ATOM     24  C   UNL     1       2.330   7.305  18.339  0.00  0.00    +0.000 A 
ENDBRANCH  17  18
ENDBRANCH   3  17
TORSDOF 5
ENDMDL
MODEL 4
REMARK VINA RESULT:      -6.9      3.810      8.764
REMARK  Name = 
REMARK  5 active torsions:
REMARK  status: ('A' for Active; 'I' for Inactive)
REMARK    1  A    between atoms: C_2  and  C_18
REMARK    2  A    between atoms: N_3  and  C_4
REMARK    3  A    between atoms: C_4  and  C_5
REMARK    4  A    between atoms: N_7  and  C_8
REMARK    5  A    between atoms: C_8  and  C_9
REMARK                            x       y       z     vdW  Elec       q    Type
REMARK                         _______ _______ _______ _____ _____    ______ ____
ROOT
ATOM      1  C   UNL     1       1.673   7.590  20.257  0.00  0.00    +0.000 A 
ATOM      2  C   UNL     1       1.752   8.415  19.154  0.00  0.00    +0.000 A 
ATOM      3  N   UNL     1       1.147   9.568  19.556  0.00  0.00    +0.000 N 
ATOM      4  N   UNL     1       0.726   9.477  20.832  0.00  0.00    +0.000 NA
ATOM      5  N   UNL     1       1.053   8.270  21.276  0.00  0.00    +0.000 NA
ENDROOT
BRANCH   1   6
ATOM      6  C   UNL     1       2.084   6.172  20.410  0.00  0.00    +0.000 C 
BRANCH   6   9
ATOM      7  O   UNL     1       2.761   4.124  18.571  0.00  0.00    +0.000 OA
ATOM      8  C   UNL     1       3.619   4.923  18.930  0.00  0.00    +0.000 C 
ATOM      9  N   UNL     1       3.380   5.951  19.817  0.00  0.00    +0.000 N 
ATOM     10  H   UNL     1       4.141   6.600  20.008  0.00  0.00    +0.000 HD
BRANCH   8  11
ATOM     11  C   UNL     1       5.016   4.828  18.420  0.00  0.00    +0.000 A 
ATOM     12  C   UNL     1       6.072   5.133  19.269  0.00  0.00    +0.000 A 
ATOM     13  N   UNL     1       7.367   5.083  18.865  0.00  0.00    +0.000 NA
ATOM     14  C   UNL     1       7.556   4.715  17.575  0.00  0.00    +0.000 A 
ATOM     15  C   UNL     1       6.498   4.413  16.727  0.00  0.00    +0.000 A 
ATOM     16  N   UNL     1       5.201   4.459  17.120  0.00  0.00    +0.000 NA
ENDBRANCH   8  11
ENDBRANCH   6   9
ENDBRANCH   1   6
BRANCH   3  17
ATOM     17  C   UNL     1       0.821  10.730  18.750  0.00  0.00    +0.000 C 
BRANCH  17  18
ATOM     18  C   UNL     1      -0.652  10.791  18.435  0.00  0.00    +0.000 A 
ATOM     19  C   UNL     1      -1.480  11.734  19.069  0.00  0.00    +0.000 A 
ATOM     20  C   UNL     1      -2.852  11.754  18.809  0.00  0.00    +0.000 A 
ATOM     21  C   UNL     1      -3.395  10.836  17.918  0.00  0.00    +0.000 A 
ATOM     22  F   UNL     1      -4.714  10.847  17.683  0.00  0.00    +0.000 F 
ATOM     23  C   UNL     1      -2.592   9.903  17.273  0.00  0.00    +0.000 A 
ATOM     24  C   UNL     1      -1.222   9.879  17.532  0.00  0.00    +0.000 A 
ENDBRANCH  17  18
ENDBRANCH   3  17
TORSDOF 5
ENDMDL
MODEL 5
REMARK VINA RESULT:      -6.9      2.683      3.275
REMARK  Name = 
REMARK  5 active torsions:
REMARK  status: ('A' for Active; 'I' for Inactive)
REMARK    1  A    between atoms: C_2  and  C_18
REMARK    2  A    between atoms: N_3  and  C_4
REMARK    3  A    between atoms: C_4  and  C_5
REMARK    4  A    between atoms: N_7  and  C_8
REMARK    5  A    between atoms: C_8  and  C_9
REMARK                            x       y       z     vdW  Elec       q    Type
REMARK                         _______ _______ _______ _____ _____    ______ ____
ROOT
ATOM      1  C   UNL     1       1.281   9.422  19.089  0.00  0.00    +0.000 A 
ATOM      2  C   UNL     1       2.108   8.435  18.595  0.00  0.00    +0.000 A 
ATOM      3  N   UNL     1       2.226   7.552  19.627  0.00  0.00    +0.000 N 
ATOM      4  N   UNL     1       1.510   7.954  20.695  0.00  0.00    +0.000 NA
ATOM      5  N   UNL     1       0.917   9.096  20.372  0.00  0.00    +0.000 NA
ENDROOT
BRANCH   1   6
ATOM      6  C   UNL     1       0.851  10.698  18.463  0.00  0.00    +0.000 C 
BRANCH   6   9
ATOM      7  O   UNL     1      -0.809  12.978  18.181  0.00  0.00    +0.000 OA
ATOM      8  C   UNL     1      -1.302  11.858  18.107  0.00  0.00    +0.000 C 
ATOM      9  N   UNL     1      -0.572  10.696  18.229  0.00  0.00    +0.000 N 
ATOM     10  H   UNL     1      -1.061   9.812  18.093  0.00  0.00    +0.000 HD
BRANCH   8  11
ATOM     11  C   UNL     1      -2.764  11.678  17.880  0.00  0.00    +0.000 A 
ATOM     12  C   UNL     1      -3.644  11.867  18.937  0.00  0.00    +0.000 A 
ATOM     13  N   UNL     1      -4.985  11.703  18.804  0.00  0.00    +0.000 NA
ATOM     14  C   UNL     1      -5.403  11.342  17.567  0.00  0.00    +0.000 A 
ATOM     15  C   UNL     1      -4.520  11.150  16.512  0.00  0.00    +0.000 A 
ATOM     16  N   UNL     1      -3.179  11.312  16.633  0.00  0.00    +0.000 NA
ENDBRANCH   8  11
ENDBRANCH   6   9
ENDBRANCH   1   6
BRANCH   3  17
ATOM     17  C   UNL     1       3.094   6.393  19.712  0.00  0.00    +0.000 C 
BRANCH  17  18
ATOM     18  C   UNL     1       2.351   5.119  19.403  0.00  0.00    +0.000 A 
ATOM     19  C   UNL     1       2.227   4.667  18.078  0.00  0.00    +0.000 A 
ATOM     20  C   UNL     1       1.495   3.512  17.793  0.00  0.00    +0.000 A 
ATOM     21  C   UNL     1       0.891   2.810  18.829  0.00  0.00    +0.000 A 
ATOM     22  F   UNL     1       0.177   1.711  18.550  0.00  0.00    +0.000 F 
ATOM     23  C   UNL     1       1.010   3.233  20.146  0.00  0.00    +0.000 A 
ATOM     24  C   UNL     1       1.738   4.388  20.434  0.00  0.00    +0.000 A 
ENDBRANCH  17  18
ENDBRANCH   3  17
TORSDOF 5
ENDMDL
MODEL 6
REMARK VINA RESULT:      -6.9      3.846      8.605
REMARK  Name = 
REMARK  5 active torsions:
REMARK  status: ('A' for Active; 'I' for Inactive)
REMARK    1  A    between atoms: C_2  and  C_18
REMARK    2  A    between atoms: N_3  and  C_4
REMARK    3  A    between atoms: C_4  and  C_5
REMARK    4  A    between atoms: N_7  and  C_8
REMARK    5  A    between atoms: C_8  and  C_9
REMARK                            x       y       z     vdW  Elec       q    Type
REMARK                         _______ _______ _______ _____ _____    ______ ____
ROOT
ATOM      1  C   UNL     1       2.112   7.331  19.636  0.00  0.00    +0.000 A 
ATOM      2  C   UNL     1       2.161   8.289  18.644  0.00  0.00    +0.000 A 
ATOM      3  N   UNL     1       1.491   9.351  19.174  0.00  0.00    +0.000 N 
ATOM      4  N   UNL     1       1.060   9.082  20.421  0.00  0.00    +0.000 NA
ATOM      5  N   UNL     1       1.445   7.848  20.719  0.00  0.00    +0.000 NA
ENDROOT
BRANCH   1   6
ATOM      6  C   UNL     1       2.594   5.927  19.621  0.00  0.00    +0.000 C 
BRANCH   6   9
ATOM      7  O   UNL     1       5.378   5.392  19.639  0.00  0.00    +0.000 OA
ATOM      8  C   UNL     1       4.777   5.437  18.571  0.00  0.00    +0.000 C 
ATOM      9  N   UNL     1       3.426   5.687  18.467  0.00  0.00    +0.000 N 
ATOM     10  H   UNL     1       3.004   5.644  17.541  0.00  0.00    +0.000 HD
BRANCH   8  11
ATOM     11  C   UNL     1       5.491   5.222  17.281  0.00  0.00    +0.000 A 
ATOM     12  C   UNL     1       6.685   5.890  17.046  0.00  0.00    +0.000 A 
ATOM     13  N   UNL     1       7.378   5.753  15.887  0.00  0.00    +0.000 NA
ATOM     14  C   UNL     1       6.822   4.919  14.976  0.00  0.00    +0.000 A 
ATOM     15  C   UNL     1       5.626   4.254  15.212  0.00  0.00    +0.000 A 
ATOM     16  N   UNL     1       4.925   4.382  16.366  0.00  0.00    +0.000 NA
ENDBRANCH   8  11
ENDBRANCH   6   9
ENDBRANCH   1   6
BRANCH   3  17
ATOM     17  C   UNL     1       1.114  10.586  18.511  0.00  0.00    +0.000 C 
BRANCH  17  18
ATOM     18  C   UNL     1      -0.381  10.700  18.359  0.00  0.00    +0.000 A 
ATOM     19  C   UNL     1      -1.100  11.670  19.078  0.00  0.00    +0.000 A 
ATOM     20  C   UNL     1      -2.491  11.739  18.970  0.00  0.00    +0.000 A 
ATOM     21  C   UNL     1      -3.161  10.843  18.146  0.00  0.00    +0.000 A 
ATOM     22  F   UNL     1      -4.497  10.903  18.057  0.00  0.00    +0.000 F 
ATOM     23  C   UNL     1      -2.468   9.885  17.418  0.00  0.00    +0.000 A 
ATOM     24  C   UNL     1      -1.079   9.811  17.525  0.00  0.00    +0.000 A 
ENDBRANCH  17  18
ENDBRANCH   3  17
TORSDOF 5
ENDMDL
MODEL 7
REMARK VINA RESULT:      -6.8      3.508      4.618
REMARK  Name = 
REMARK  5 active torsions:
REMARK  status: ('A' for Active; 'I' for Inactive)
REMARK    1  A    between atoms: C_2  and  C_18
REMARK    2  A    between atoms: N_3  and  C_4
REMARK    3  A    between atoms: C_4  and  C_5
REMARK    4  A    between atoms: N_7  and  C_8
REMARK    5  A    between atoms: C_8  and  C_9
REMARK                            x       y       z     vdW  Elec       q    Type
REMARK                         _______ _______ _______ _____ _____    ______ ____
ROOT
ATOM      1  C   UNL     1       2.944   7.547  17.725  0.00  0.00    +0.000 A 
ATOM      2  C   UNL     1       2.452   6.323  18.128  0.00  0.00    +0.000 A 
ATOM      3  N   UNL     1       3.397   5.431  17.715  0.00  0.00    +0.000 N 
ATOM      4  N   UNL     1       4.421   6.057  17.103  0.00  0.00    +0.000 NA
ATOM      5  N   UNL     1       4.159   7.357  17.113  0.00  0.00    +0.000 NA
ENDROOT
BRANCH   1   6
ATOM      6  C   UNL     1       2.325   8.893  17.815  0.00  0.00    +0.000 C 
BRANCH   6   9
ATOM      7  O   UNL     1       1.035  11.242  18.737  0.00  0.00    +0.000 OA
ATOM      8  C   UNL     1       1.029  10.235  19.436  0.00  0.00    +0.000 C 
ATOM      9  N   UNL     1       1.627   9.049  19.068  0.00  0.00    +0.000 N 
ATOM     10  H   UNL     1       1.517   8.248  19.688  0.00  0.00    +0.000 HD
BRANCH   8  11
ATOM     11  C   UNL     1       0.360  10.230  20.768  0.00  0.00    +0.000 A 
ATOM     12  C   UNL     1      -0.557  11.226  21.071  0.00  0.00    +0.000 A 
ATOM     13  N   UNL     1      -1.190  11.291  22.270  0.00  0.00    +0.000 NA
ATOM     14  C   UNL     1      -0.862  10.314  23.150  0.00  0.00    +0.000 A 
ATOM     15  C   UNL     1       0.058   9.320  22.846  0.00  0.00    +0.000 A 
ATOM     16  N   UNL     1       0.696   9.245  21.651  0.00  0.00    +0.000 NA
ENDBRANCH   8  11
ENDBRANCH   6   9
ENDBRANCH   1   6
BRANCH   3  17
ATOM     17  C   UNL     1       3.329   3.983  17.750  0.00  0.00    +0.000 C 
BRANCH  17  18
ATOM     18  C   UNL     1       2.668   3.489  19.012  0.00  0.00    +0.000 A 
ATOM     19  C   UNL     1       1.271   3.363  19.085  0.00  0.00    +0.000 A 
ATOM     20  C   UNL     1       0.661   2.952  20.272  0.00  0.00    +0.000 A 
ATOM     21  C   UNL     1       1.446   2.666  21.383  0.00  0.00    +0.000 A 
ATOM     22  F   UNL     1       0.857   2.286  22.525  0.00  0.00    +0.000 F 
ATOM     23  C   UNL     1       2.829   2.773  21.328  0.00  0.00    +0.000 A 
ATOM     24  C   UNL     1       3.441   3.186  20.145  0.00  0.00    +0.000 A 
ENDBRANCH  17  18
ENDBRANCH   3  17
TORSDOF 5
ENDMDL
MODEL 8
REMARK VINA RESULT:      -6.8      2.218      2.608
REMARK  Name = 
REMARK  5 active torsions:
REMARK  status: ('A' for Active; 'I' for Inactive)
REMARK    1  A    between atoms: C_2  and  C_18
REMARK    2  A    between atoms: N_3  and  C_4
REMARK    3  A    between atoms: C_4  and  C_5
REMARK    4  A    between atoms: N_7  and  C_8
REMARK    5  A    between atoms: C_8  and  C_9
REMARK                            x       y       z     vdW  Elec       q    Type
REMARK                         _______ _______ _______ _____ _____    ______ ____
ROOT
ATOM      1  C   UNL     1       1.851   9.309  18.682  0.00  0.00    +0.000 A 
ATOM      2  C   UNL     1       2.509   8.581  17.713  0.00  0.00    +0.000 A 
ATOM      3  N   UNL     1       2.745   7.375  18.306  0.00  0.00    +0.000 N 
ATOM      4  N   UNL     1       2.256   7.346  19.560  0.00  0.00    +0.000 NA
ATOM      5  N   UNL     1       1.695   8.525  19.798  0.00  0.00    +0.000 NA
ENDROOT
BRANCH   1   6
ATOM      6  C   UNL     1       1.406  10.725  18.664  0.00  0.00    +0.000 C 
BRANCH   6   9
ATOM      7  O   UNL     1      -1.120  10.877  19.941  0.00  0.00    +0.000 OA
ATOM      8  C   UNL     1      -1.057  10.912  18.717  0.00  0.00    +0.000 C 
ATOM      9  N   UNL     1       0.125  10.848  18.012  0.00  0.00    +0.000 N 
ATOM     10  H   UNL     1       0.080  10.946  16.999  0.00  0.00    +0.000 HD
BRANCH   8  11
ATOM     11  C   UNL     1      -2.292  11.025  17.890  0.00  0.00    +0.000 A 
ATOM     12  C   UNL     1      -3.434  11.584  18.447  0.00  0.00    +0.000 A 
ATOM     13  N   UNL     1      -4.597  11.702  17.756  0.00  0.00    +0.000 NA
ATOM     14  C   UNL     1      -4.563  11.235  16.485  0.00  0.00    +0.000 A 
ATOM     15  C   UNL     1      -3.421  10.673  15.931  0.00  0.00    +0.000 A 
ATOM     16  N   UNL     1      -2.254  10.551  16.611  0.00  0.00    +0.000 NA
ENDBRANCH   8  11
ENDBRANCH   6   9
ENDBRANCH   1   6
BRANCH   3  17
ATOM     17  C   UNL     1       3.534   6.271  17.792  0.00  0.00    +0.000 C 
BRANCH  17  18
ATOM     18  C   UNL     1       3.013   4.943  18.279  0.00  0.00    +0.000 A 
ATOM     19  C   UNL     1       3.770   4.160  19.167  0.00  0.00    +0.000 A 
ATOM     20  C   UNL     1       3.304   2.909  19.576  0.00  0.00    +0.000 A 
ATOM     21  C   UNL     1       2.084   2.442  19.102  0.00  0.00    +0.000 A 
ATOM     22  F   UNL     1       1.647   1.235  19.484  0.00  0.00    +0.000 F 
ATOM     23  C   UNL     1       1.315   3.205  18.232  0.00  0.00    +0.000 A 
ATOM     24  C   UNL     1       1.779   4.454  17.819  0.00  0.00    +0.000 A 
ENDBRANCH  17  18
ENDBRANCH   3  17
TORSDOF 5
ENDMDL
MODEL 9
REMARK VINA RESULT:      -6.8      2.585      3.171
REMARK  Name = 
REMARK  5 active torsions:
REMARK  status: ('A' for Active; 'I' for Inactive)
REMARK    1  A    between atoms: C_2  and  C_18
REMARK    2  A    between atoms: N_3  and  C_4
REMARK    3  A    between atoms: C_4  and  C_5
REMARK    4  A    between atoms: N_7  and  C_8
REMARK    5  A    between atoms: C_8  and  C_9
REMARK                            x       y       z     vdW  Elec       q    Type
REMARK                         _______ _______ _______ _____ _____    ______ ____
ROOT
ATOM      1  C   UNL     1       1.187   9.291  19.271  0.00  0.00    +0.000 A 
ATOM      2  C   UNL     1       1.920   8.146  19.506  0.00  0.00    +0.000 A 
ATOM      3  N   UNL     1       2.590   7.935  18.337  0.00  0.00    +0.000 N 
ATOM      4  N   UNL     1       2.305   8.891  17.433  0.00  0.00    +0.000 NA
ATOM      5  N   UNL     1       1.452   9.735  17.999  0.00  0.00    +0.000 NA
ENDROOT
BRANCH   1   6
ATOM      6  C   UNL     1       0.194   9.975  20.138  0.00  0.00    +0.000 C 
BRANCH   6   9
ATOM      7  O   UNL     1      -0.834  12.495  19.346  0.00  0.00    +0.000 OA
ATOM      8  C   UNL     1      -1.458  11.474  19.076  0.00  0.00    +0.000 C 
ATOM      9  N   UNL     1      -1.034  10.209  19.418  0.00  0.00    +0.000 N 
ATOM     10  H   UNL     1      -1.590   9.418  19.096  0.00  0.00    +0.000 HD
BRANCH   8  11
ATOM     11  C   UNL     1      -2.755  11.541  18.344  0.00  0.00    +0.000 A 
ATOM     12  C   UNL     1      -2.792  11.212  16.996  0.00  0.00    +0.000 A 
ATOM     13  N   UNL     1      -3.935  11.266  16.266  0.00  0.00    +0.000 NA
ATOM     14  C   UNL     1      -5.036  11.665  16.946  0.00  0.00    +0.000 A 
ATOM     15  C   UNL     1      -4.997  11.997  18.294  0.00  0.00    +0.000 A 
ATOM     16  N   UNL     1      -3.861  11.945  19.033  0.00  0.00    +0.000 NA
ENDBRANCH   8  11
ENDBRANCH   6   9
ENDBRANCH   1   6
BRANCH   3  17
ATOM     17  C   UNL     1       3.402   6.789  17.973  0.00  0.00    +0.000 C 
BRANCH  17  18
ATOM     18  C   UNL     1       2.853   5.512  18.556  0.00  0.00    +0.000 A 
ATOM     19  C   UNL     1       3.325   5.027  19.787  0.00  0.00    +0.000 A 
ATOM     20  C   UNL     1       2.848   3.818  20.298  0.00  0.00    +0.000 A 
ATOM     21  C   UNL     1       1.900   3.097  19.582  0.00  0.00    +0.000 A 
ATOM     22  F   UNL     1       1.456   1.930  20.068  0.00  0.00    +0.000 F 
ATOM     23  C   UNL     1       1.412   3.564  18.369  0.00  0.00    +0.000 A 
ATOM     24  C   UNL     1       1.888   4.770  17.854  0.00  0.00    +0.000 A 
ENDBRANCH  17  18
ENDBRANCH   3  17
TORSDOF 5
ENDMDL
