MODEL 1
REMARK VINA RESULT:      -8.3      0.000      0.000
REMARK  Name = 
REMARK  9 active torsions:
REMARK  status: ('A' for Active; 'I' for Inactive)
REMARK    1  A    between atoms: C_1  and  C_2
REMARK    2  A    between atoms: C_2  and  C_3
REMARK    3  A    between atoms: N_6  and  C_7
REMARK    4  A    between atoms: C_7  and  C_8
REMARK    5  A    between atoms: C_8  and  C_9
REMARK    6  A    between atoms: C_9  and  C_10
REMARK    7  A    between atoms: C_10  and  N_11
REMARK    8  A    between atoms: N_14  and  C_15
REMARK    9  A    between atoms: C_19  and  C_20
REMARK                            x       y       z     vdW  Elec       q    Type
REMARK                         _______ _______ _______ _____ _____    ______ ____
ROOT
ATOM      1  N   UNL     1       7.230   6.756  17.044  0.00  0.00    +0.000 NA
ATOM      2  C   UNL     1       7.323   5.767  18.147  0.00  0.00    +0.000 C 
ATOM      3  C   UNL     1       6.099   5.731  19.087  0.00  0.00    +0.000 C 
ATOM      4  N   UNL     1       4.857   5.523  18.328  0.00  0.00    +0.000 N 
ATOM      5  C   UNL     1       4.678   6.399  17.154  0.00  0.00    +0.000 C 
ATOM      6  C   UNL     1       5.973   6.463  16.297  0.00  0.00    +0.000 C 
ENDROOT
BRANCH   4   7
ATOM      7  C   UNL     1       4.095   4.377  18.457  0.00  0.00    +0.000 A 
ATOM      8  C   UNL     1       4.408   3.222  17.722  0.00  0.00    +0.000 A 
ATOM      9  C   UNL     1       3.633   2.061  17.802  0.00  0.00    +0.000 A 
ATOM     10  C   UNL     1       2.515   2.027  18.628  0.00  0.00    +0.000 A 
ATOM     11  C   UNL     1       2.169   3.153  19.380  0.00  0.00    +0.000 A 
ATOM     12  C   UNL     1       2.965   4.311  19.286  0.00  0.00    +0.000 A 
BRANCH  11  13
ATOM     13  C   UNL     1       0.962   3.157  20.282  0.00  0.00    +0.000 C 
ATOM     14  F   UNL     1      -0.139   2.577  19.726  0.00  0.00    +0.000 F 
ATOM     15  F   UNL     1       1.181   2.494  21.451  0.00  0.00    +0.000 F 
ATOM     16  F   UNL     1       0.581   4.417  20.634  0.00  0.00    +0.000 F 
ENDBRANCH  11  13
ENDBRANCH   4   7
BRANCH   1  17
ATOM     17  C   UNL     1       7.220   8.155  17.505  0.00  0.00    +0.000 C 
BRANCH  17  18
ATOM     18  C   UNL     1       8.448   8.564  18.334  0.00  0.00    +0.000 C 
BRANCH  18  19
ATOM     19  C   UNL     1       8.821  10.044  18.152  0.00  0.00    +0.000 C 
BRANCH  19  20
ATOM     20  C   UNL     1       9.578  10.601  19.358  0.00  0.00    +0.000 C 
BRANCH  20  26
ATOM     21  C   UNL     1      11.197  14.675  17.211  0.00  0.00    +0.000 C 
ATOM     22  C   UNL     1      10.972  14.052  18.582  0.00  0.00    +0.000 C 
ATOM     23  C   UNL     1      12.068  14.441  19.571  0.00  0.00    +0.000 C 
ATOM     24  S   UNL     1       9.359  14.567  19.277  0.00  0.00    +0.000 S 
ATOM     25  C   UNL     1       9.078  12.963  20.034  0.00  0.00    +0.000 C 
ATOM     26  N   UNL     1       9.845  12.023  19.262  0.00  0.00    +0.000 N 
ATOM     27  C   UNL     1      10.884  12.526  18.490  0.00  0.00    +0.000 C 
ATOM     28  O   UNL     1      11.662  11.829  17.847  0.00  0.00    +0.000 OA
ENDBRANCH  20  26
ENDBRANCH  19  20
ENDBRANCH  18  19
ENDBRANCH  17  18
ENDBRANCH   1  17
TORSDOF 7
ENDMDL
MODEL 2
REMARK VINA RESULT:      -8.3      1.477      1.933
REMARK  Name = 
REMARK  9 active torsions:
REMARK  status: ('A' for Active; 'I' for Inactive)
REMARK    1  A    between atoms: C_1  and  C_2
REMARK    2  A    between atoms: C_2  and  C_3
REMARK    3  A    between atoms: N_6  and  C_7
REMARK    4  A    between atoms: C_7  and  C_8
REMARK    5  A    between atoms: C_8  and  C_9
REMARK    6  A    between atoms: C_9  and  C_10
REMARK    7  A    between atoms: C_10  and  N_11
REMARK    8  A    between atoms: N_14  and  C_15
REMARK    9  A    between atoms: C_19  and  C_20
REMARK                            x       y       z     vdW  Elec       q    Type
REMARK                         _______ _______ _______ _____ _____    ______ ____
ROOT
ATOM      1  N   UNL     1       7.317   6.281  16.804  0.00  0.00    +0.000 NA
ATOM      2  C   UNL     1       7.431   5.455  18.032  0.00  0.00    +0.000 C 
ATOM      3  C   UNL     1       6.229   5.558  18.994  0.00  0.00    +0.000 C 
ATOM      4  N   UNL     1       4.970   5.254  18.300  0.00  0.00    +0.000 N 
ATOM      5  C   UNL     1       4.766   5.959  17.019  0.00  0.00    +0.000 C 
ATOM      6  C   UNL     1       6.042   5.895  16.134  0.00  0.00    +0.000 C 
ENDROOT
BRANCH   4   7
ATOM      7  C   UNL     1       4.206   4.142  18.603  0.00  0.00    +0.000 A 
ATOM      8  C   UNL     1       4.128   3.061  17.710  0.00  0.00    +0.000 A 
ATOM      9  C   UNL     1       3.335   1.941  17.972  0.00  0.00    +0.000 A 
ATOM     10  C   UNL     1       2.594   1.872  19.147  0.00  0.00    +0.000 A 
ATOM     11  C   UNL     1       2.645   2.924  20.066  0.00  0.00    +0.000 A 
ATOM     12  C   UNL     1       3.454   4.042  19.783  0.00  0.00    +0.000 A 
BRANCH  11  13
ATOM     13  C   UNL     1       1.853   2.890  21.347  0.00  0.00    +0.000 C 
ATOM     14  F   UNL     1       1.987   1.726  22.042  0.00  0.00    +0.000 F 
ATOM     15  F   UNL     1       2.210   3.882  22.209  0.00  0.00    +0.000 F 
ATOM     16  F   UNL     1       0.516   3.044  21.135  0.00  0.00    +0.000 F 
ENDBRANCH  11  13
ENDBRANCH   4   7
BRANCH   1  17
ATOM     17  C   UNL     1       7.321   7.731  17.066  0.00  0.00    +0.000 C 
BRANCH  17  18
ATOM     18  C   UNL     1       8.258   8.173  18.201  0.00  0.00    +0.000 C 
BRANCH  18  19
ATOM     19  C   UNL     1       8.604   9.669  18.137  0.00  0.00    +0.000 C 
BRANCH  19  20
ATOM     20  C   UNL     1       9.292  10.158  19.412  0.00  0.00    +0.000 C 
BRANCH  20  26
ATOM     21  C   UNL     1      10.091  14.417  21.660  0.00  0.00    +0.000 C 
ATOM     22  C   UNL     1       9.264  13.786  20.547  0.00  0.00    +0.000 C 
ATOM     23  C   UNL     1       7.857  14.376  20.479  0.00  0.00    +0.000 C 
ATOM     24  S   UNL     1      10.068  14.023  18.921  0.00  0.00    +0.000 S 
ATOM     25  C   UNL     1       9.549  12.406  18.335  0.00  0.00    +0.000 C 
ATOM     26  N   UNL     1       9.360  11.602  19.512  0.00  0.00    +0.000 N 
ATOM     27  C   UNL     1       9.174  12.268  20.717  0.00  0.00    +0.000 C 
ATOM     28  O   UNL     1       8.926  11.706  21.780  0.00  0.00    +0.000 OA
ENDBRANCH  20  26
ENDBRANCH  19  20
ENDBRANCH  18  19
ENDBRANCH  17  18
ENDBRANCH   1  17
TORSDOF 7
ENDMDL
MODEL 3
REMARK VINA RESULT:      -8.2      1.161      1.614
REMARK  Name = 
REMARK  9 active torsions:
REMARK  status: ('A' for Active; 'I' for Inactive)
REMARK    1  A    between atoms: C_1  and  C_2
REMARK    2  A    between atoms: C_2  and  C_3
REMARK    3  A    between atoms: N_6  and  C_7
REMARK    4  A    between atoms: C_7  and  C_8
REMARK    5  A    between atoms: C_8  and  C_9
REMARK    6  A    between atoms: C_9  and  C_10
REMARK    7  A    between atoms: C_10  and  N_11
REMARK    8  A    between atoms: N_14  and  C_15
REMARK    9  A    between atoms: C_19  and  C_20
REMARK                            x       y       z     vdW  Elec       q    Type
REMARK                         _______ _______ _______ _____ _____    ______ ____
ROOT
ATOM      1  N   UNL     1       7.414   6.257  17.057  0.00  0.00    +0.000 NA
ATOM      2  C   UNL     1       7.275   5.535  18.347  0.00  0.00    +0.000 C 
ATOM      3  C   UNL     1       5.896   5.683  19.025  0.00  0.00    +0.000 C 
ATOM      4  N   UNL     1       4.814   5.291  18.110  0.00  0.00    +0.000 N 
ATOM      5  C   UNL     1       4.878   5.885  16.761  0.00  0.00    +0.000 C 
ATOM      6  C   UNL     1       6.312   5.784  16.170  0.00  0.00    +0.000 C 
ENDROOT
BRANCH   4   7
ATOM      7  C   UNL     1       4.014   4.186  18.340  0.00  0.00    +0.000 A 
ATOM      8  C   UNL     1       4.259   2.974  17.675  0.00  0.00    +0.000 A 
ATOM      9  C   UNL     1       3.444   1.853  17.858  0.00  0.00    +0.000 A 
ATOM     10  C   UNL     1       2.356   1.917  18.721  0.00  0.00    +0.000 A 
ATOM     11  C   UNL     1       2.078   3.103  19.406  0.00  0.00    +0.000 A 
ATOM     12  C   UNL     1       2.913   4.219  19.209  0.00  0.00    +0.000 A 
BRANCH  11  13
ATOM     13  C   UNL     1       0.905   3.213  20.344  0.00  0.00    +0.000 C 
ATOM     14  F   UNL     1       0.552   4.498  20.631  0.00  0.00    +0.000 F 
ATOM     15  F   UNL     1      -0.218   2.620  19.851  0.00  0.00    +0.000 F 
ATOM     16  F   UNL     1       1.143   2.617  21.546  0.00  0.00    +0.000 F 
ENDBRANCH  11  13
ENDBRANCH   4   7
BRANCH   1  17
ATOM     17  C   UNL     1       7.350   7.723  17.191  0.00  0.00    +0.000 C 
BRANCH  17  18
ATOM     18  C   UNL     1       8.308   8.311  18.238  0.00  0.00    +0.000 C 
BRANCH  18  19
ATOM     19  C   UNL     1       8.437   9.839  18.133  0.00  0.00    +0.000 C 
BRANCH  19  20
ATOM     20  C   UNL     1       9.303  10.424  19.250  0.00  0.00    +0.000 C 
BRANCH  20  26
ATOM     21  C   UNL     1      11.014  14.805  20.558  0.00  0.00    +0.000 C 
ATOM     22  C   UNL     1       9.988  14.142  19.647  0.00  0.00    +0.000 C 
ATOM     23  C   UNL     1       8.699  14.955  19.555  0.00  0.00    +0.000 C 
ATOM     24  S   UNL     1      10.657  13.928  17.958  0.00  0.00    +0.000 S 
ATOM     25  C   UNL     1       9.822  12.353  17.736  0.00  0.00    +0.000 C 
ATOM     26  N   UNL     1       9.618  11.825  19.058  0.00  0.00    +0.000 N 
ATOM     27  C   UNL     1       9.665  12.722  20.119  0.00  0.00    +0.000 C 
ATOM     28  O   UNL     1       9.433  12.418  21.284  0.00  0.00    +0.000 OA
ENDBRANCH  20  26
ENDBRANCH  19  20
ENDBRANCH  18  19
ENDBRANCH  17  18
ENDBRANCH   1  17
TORSDOF 7
ENDMDL
MODEL 4
REMARK VINA RESULT:      -8.2      0.958      1.170
REMARK  Name = 
REMARK  9 active torsions:
REMARK  status: ('A' for Active; 'I' for Inactive)
REMARK    1  A    between atoms: C_1  and  C_2
REMARK    2  A    between atoms: C_2  and  C_3
REMARK    3  A    between atoms: N_6  and  C_7
REMARK    4  A    between atoms: C_7  and  C_8
REMARK    5  A    between atoms: C_8  and  C_9
REMARK    6  A    between atoms: C_9  and  C_10
REMARK    7  A    between atoms: C_10  and  N_11
REMARK    8  A    between atoms: N_14  and  C_15
REMARK    9  A    between atoms: C_19  and  C_20
REMARK                            x       y       z     vdW  Elec       q    Type
REMARK                         _______ _______ _______ _____ _____    ______ ____
ROOT
ATOM      1  N   UNL     1       7.210   6.925  16.903  0.00  0.00    +0.000 NA
ATOM      2  C   UNL     1       7.486   5.821  17.857  0.00  0.00    +0.000 C 
ATOM      3  C   UNL     1       6.483   5.711  19.025  0.00  0.00    +0.000 C 
ATOM      4  N   UNL     1       5.103   5.612  18.527  0.00  0.00    +0.000 N 
ATOM      5  C   UNL     1       4.723   6.612  17.511  0.00  0.00    +0.000 C 
ATOM      6  C   UNL     1       5.814   6.740  16.412  0.00  0.00    +0.000 C 
ENDROOT
BRANCH   4   7
ATOM      7  C   UNL     1       4.335   4.475  18.698  0.00  0.00    +0.000 A 
ATOM      8  C   UNL     1       4.352   3.449  17.740  0.00  0.00    +0.000 A 
ATOM      9  C   UNL     1       3.557   2.305  17.865  0.00  0.00    +0.000 A 
ATOM     10  C   UNL     1       2.719   2.159  18.965  0.00  0.00    +0.000 A 
ATOM     11  C   UNL     1       2.673   3.155  19.944  0.00  0.00    +0.000 A 
ATOM     12  C   UNL     1       3.485   4.296  19.799  0.00  0.00    +0.000 A 
BRANCH  11  13
ATOM     13  C   UNL     1       1.774   3.035  21.147  0.00  0.00    +0.000 C 
ATOM     14  F   UNL     1       1.630   1.757  21.598  0.00  0.00    +0.000 F 
ATOM     15  F   UNL     1       2.224   3.756  22.211  0.00  0.00    +0.000 F 
ATOM     16  F   UNL     1       0.512   3.485  20.899  0.00  0.00    +0.000 F 
ENDBRANCH  11  13
ENDBRANCH   4   7
BRANCH   1  17
ATOM     17  C   UNL     1       7.356   8.266  17.494  0.00  0.00    +0.000 C 
BRANCH  17  18
ATOM     18  C   UNL     1       8.592   8.439  18.391  0.00  0.00    +0.000 C 
BRANCH  18  19
ATOM     19  C   UNL     1       8.765   9.881  18.891  0.00  0.00    +0.000 C 
BRANCH  19  20
ATOM     20  C   UNL     1       9.591  10.732  17.925  0.00  0.00    +0.000 C 
BRANCH  20  26
ATOM     21  C   UNL     1      12.317  14.505  19.397  0.00  0.00    +0.000 C 
ATOM     22  C   UNL     1      10.937  13.885  19.569  0.00  0.00    +0.000 C 
ATOM     23  C   UNL     1      10.425  14.023  21.001  0.00  0.00    +0.000 C 
ATOM     24  S   UNL     1       9.724  14.668  18.445  0.00  0.00    +0.000 S 
ATOM     25  C   UNL     1       8.861  13.119  18.159  0.00  0.00    +0.000 C 
ATOM     26  N   UNL     1       9.826  12.080  18.403  0.00  0.00    +0.000 N 
ATOM     27  C   UNL     1      10.939  12.408  19.168  0.00  0.00    +0.000 C 
ATOM     28  O   UNL     1      11.796  11.601  19.513  0.00  0.00    +0.000 OA
ENDBRANCH  20  26
ENDBRANCH  19  20
ENDBRANCH  18  19
ENDBRANCH  17  18
ENDBRANCH   1  17
TORSDOF 7
ENDMDL
MODEL 5
REMARK VINA RESULT:      -8.0      1.274      1.541
REMARK  Name = 
REMARK  9 active torsions:
REMARK  status: ('A' for Active; 'I' for Inactive)
REMARK    1  A    between atoms: C_1  and  C_2
REMARK    2  A    between atoms: C_2  and  C_3
REMARK    3  A    between atoms: N_6  and  C_7
REMARK    4  A    between atoms: C_7  and  C_8
REMARK    5  A    between atoms: C_8  and  C_9
REMARK    6  A    between atoms: C_9  and  C_10
REMARK    7  A    between atoms: C_10  and  N_11
REMARK    8  A    between atoms: N_14  and  C_15
REMARK    9  A    between atoms: C_19  and  C_20
REMARK                            x       y       z     vdW  Elec       q    Type
REMARK                         _______ _______ _______ _____ _____    ______ ____
ROOT
ATOM      1  N   UNL     1       7.027   6.757  16.872  0.00  0.00    +0.000 NA
ATOM      2  C   UNL     1       7.179   5.281  16.912  0.00  0.00    +0.000 C 
ATOM      3  C   UNL     1       6.686   4.616  18.216  0.00  0.00    +0.000 C 
ATOM      4  N   UNL     1       5.293   4.986  18.503  0.00  0.00    +0.000 N 
ATOM      5  C   UNL     1       4.991   6.429  18.422  0.00  0.00    +0.000 C 
ATOM      6  C   UNL     1       5.590   7.057  17.133  0.00  0.00    +0.000 C 
ENDROOT
BRANCH   4   7
ATOM      7  C   UNL     1       4.263   4.064  18.484  0.00  0.00    +0.000 A 
ATOM      8  C   UNL     1       4.240   3.036  17.528  0.00  0.00    +0.000 A 
ATOM      9  C   UNL     1       3.192   2.113  17.459  0.00  0.00    +0.000 A 
ATOM     10  C   UNL     1       2.132   2.196  18.356  0.00  0.00    +0.000 A 
ATOM     11  C   UNL     1       2.117   3.202  19.326  0.00  0.00    +0.000 A 
ATOM     12  C   UNL     1       3.184   4.119  19.378  0.00  0.00    +0.000 A 
BRANCH  11  13
ATOM     13  C   UNL     1       0.984   3.328  20.310  0.00  0.00    +0.000 C 
ATOM     14  F   UNL     1      -0.192   2.804  19.863  0.00  0.00    +0.000 F 
ATOM     15  F   UNL     1       1.245   2.701  21.491  0.00  0.00    +0.000 F 
ATOM     16  F   UNL     1       0.714   4.625  20.629  0.00  0.00    +0.000 F 
ENDBRANCH  11  13
ENDBRANCH   4   7
BRANCH   1  17
ATOM     17  C   UNL     1       7.869   7.463  17.854  0.00  0.00    +0.000 C 
BRANCH  17  18
ATOM     18  C   UNL     1       8.032   8.968  17.591  0.00  0.00    +0.000 C 
BRANCH  18  19
ATOM     19  C   UNL     1       8.825   9.682  18.697  0.00  0.00    +0.000 C 
BRANCH  19  20
ATOM     20  C   UNL     1       9.727  10.785  18.142  0.00  0.00    +0.000 C 
BRANCH  20  26
ATOM     21  C   UNL     1      10.589  14.751  20.855  0.00  0.00    +0.000 C 
ATOM     22  C   UNL     1       9.452  13.914  20.283  0.00  0.00    +0.000 C 
ATOM     23  C   UNL     1       8.271  13.823  21.247  0.00  0.00    +0.000 C 
ATOM     24  S   UNL     1       8.854  14.619  18.703  0.00  0.00    +0.000 S 
ATOM     25  C   UNL     1       8.556  12.996  17.995  0.00  0.00    +0.000 C 
ATOM     26  N   UNL     1       9.436  12.095  18.688  0.00  0.00    +0.000 N 
ATOM     27  C   UNL     1       9.927  12.505  19.922  0.00  0.00    +0.000 C 
ATOM     28  O   UNL     1      10.624  11.805  20.650  0.00  0.00    +0.000 OA
ENDBRANCH  20  26
ENDBRANCH  19  20
ENDBRANCH  18  19
ENDBRANCH  17  18
ENDBRANCH   1  17
TORSDOF 7
ENDMDL
MODEL 6
REMARK VINA RESULT:      -8.0      1.395      1.802
REMARK  Name = 
REMARK  9 active torsions:
REMARK  status: ('A' for Active; 'I' for Inactive)
REMARK    1  A    between atoms: C_1  and  C_2
REMARK    2  A    between atoms: C_2  and  C_3
REMARK    3  A    between atoms: N_6  and  C_7
REMARK    4  A    between atoms: C_7  and  C_8
REMARK    5  A    between atoms: C_8  and  C_9
REMARK    6  A    between atoms: C_9  and  C_10
REMARK    7  A    between atoms: C_10  and  N_11
REMARK    8  A    between atoms: N_14  and  C_15
REMARK    9  A    between atoms: C_19  and  C_20
REMARK                            x       y       z     vdW  Elec       q    Type
REMARK                         _______ _______ _______ _____ _____    ______ ____
ROOT
ATOM      1  N   UNL     1       6.834   6.812  16.828  0.00  0.00    +0.000 NA
ATOM      2  C   UNL     1       6.975   5.339  16.711  0.00  0.00    +0.000 C 
ATOM      3  C   UNL     1       6.635   4.553  17.996  0.00  0.00    +0.000 C 
ATOM      4  N   UNL     1       5.289   4.891  18.480  0.00  0.00    +0.000 N 
ATOM      5  C   UNL     1       4.993   6.334  18.572  0.00  0.00    +0.000 C 
ATOM      6  C   UNL     1       5.440   7.083  17.285  0.00  0.00    +0.000 C 
ENDROOT
BRANCH   4   7
ATOM      7  C   UNL     1       4.256   3.973  18.497  0.00  0.00    +0.000 A 
ATOM      8  C   UNL     1       4.208   2.931  17.557  0.00  0.00    +0.000 A 
ATOM      9  C   UNL     1       3.157   2.010  17.525  0.00  0.00    +0.000 A 
ATOM     10  C   UNL     1       2.117   2.110  18.443  0.00  0.00    +0.000 A 
ATOM     11  C   UNL     1       2.127   3.130  19.399  0.00  0.00    +0.000 A 
ATOM     12  C   UNL     1       3.198   4.044  19.415  0.00  0.00    +0.000 A 
BRANCH  11  13
ATOM     13  C   UNL     1       1.017   3.274  20.407  0.00  0.00    +0.000 C 
ATOM     14  F   UNL     1       0.825   4.554  20.831  0.00  0.00    +0.000 F 
ATOM     15  F   UNL     1      -0.187   2.858  19.923  0.00  0.00    +0.000 F 
ATOM     16  F   UNL     1       1.239   2.539  21.533  0.00  0.00    +0.000 F 
ENDBRANCH  11  13
ENDBRANCH   4   7
BRANCH   1  17
ATOM     17  C   UNL     1       7.792   7.424  17.765  0.00  0.00    +0.000 C 
BRANCH  17  18
ATOM     18  C   UNL     1       7.885   8.955  17.675  0.00  0.00    +0.000 C 
BRANCH  18  19
ATOM     19  C   UNL     1       8.851   9.554  18.709  0.00  0.00    +0.000 C 
BRANCH  19  20
ATOM     20  C   UNL     1       9.525  10.829  18.200  0.00  0.00    +0.000 C 
BRANCH  20  26
ATOM     21  C   UNL     1       7.745  14.786  20.437  0.00  0.00    +0.000 C 
ATOM     22  C   UNL     1       9.057  14.089  20.098  0.00  0.00    +0.000 C 
ATOM     23  C   UNL     1      10.162  15.088  19.763  0.00  0.00    +0.000 C 
ATOM     24  S   UNL     1       9.622  13.049  21.493  0.00  0.00    +0.000 S 
ATOM     25  C   UNL     1      10.269  11.782  20.395  0.00  0.00    +0.000 C 
ATOM     26  N   UNL     1       9.526  11.905  19.170  0.00  0.00    +0.000 N 
ATOM     27  C   UNL     1       8.880  13.112  18.933  0.00  0.00    +0.000 C 
ATOM     28  O   UNL     1       8.278  13.376  17.897  0.00  0.00    +0.000 OA
ENDBRANCH  20  26
ENDBRANCH  19  20
ENDBRANCH  18  19
ENDBRANCH  17  18
ENDBRANCH   1  17
TORSDOF 7
ENDMDL
MODEL 7
REMARK VINA RESULT:      -8.0      0.816      1.091
REMARK  Name = 
REMARK  9 active torsions:
REMARK  status: ('A' for Active; 'I' for Inactive)
REMARK    1  A    between atoms: C_1  and  C_2
REMARK    2  A    between atoms: C_2  and  C_3
REMARK    3  A    between atoms: N_6  and  C_7
REMARK    4  A    between atoms: C_7  and  C_8
REMARK    5  A    between atoms: C_8  and  C_9
REMARK    6  A    between atoms: C_9  and  C_10
REMARK    7  A    between atoms: C_10  and  N_11
REMARK    8  A    between atoms: N_14  and  C_15
REMARK    9  A    between atoms: C_19  and  C_20
REMARK                            x       y       z     vdW  Elec       q    Type
REMARK                         _______ _______ _______ _____ _____    ______ ____
ROOT
ATOM      1  N   UNL     1       7.118   6.927  16.994  0.00  0.00    +0.000 NA
ATOM      2  C   UNL     1       7.324   5.837  17.981  0.00  0.00    +0.000 C 
ATOM      3  C   UNL     1       6.206   5.700  19.036  0.00  0.00    +0.000 C 
ATOM      4  N   UNL     1       4.891   5.556  18.395  0.00  0.00    +0.000 N 
ATOM      5  C   UNL     1       4.590   6.539  17.337  0.00  0.00    +0.000 C 
ATOM      6  C   UNL     1       5.789   6.696  16.359  0.00  0.00    +0.000 C 
ENDROOT
BRANCH   4   7
ATOM      7  C   UNL     1       4.144   4.396  18.492  0.00  0.00    +0.000 A 
ATOM      8  C   UNL     1       4.500   3.252  17.762  0.00  0.00    +0.000 A 
ATOM      9  C   UNL     1       3.743   2.078  17.809  0.00  0.00    +0.000 A 
ATOM     10  C   UNL     1       2.600   2.019  18.598  0.00  0.00    +0.000 A 
ATOM     11  C   UNL     1       2.210   3.135  19.345  0.00  0.00    +0.000 A 
ATOM     12  C   UNL     1       2.990   4.306  19.284  0.00  0.00    +0.000 A 
BRANCH  11  13
ATOM     13  C   UNL     1       0.975   3.112  20.207  0.00  0.00    +0.000 C 
ATOM     14  F   UNL     1       1.141   2.446  21.384  0.00  0.00    +0.000 F 
ATOM     15  F   UNL     1       0.549   4.361  20.544  0.00  0.00    +0.000 F 
ATOM     16  F   UNL     1      -0.080   2.514  19.588  0.00  0.00    +0.000 F 
ENDBRANCH  11  13
ENDBRANCH   4   7
BRANCH   1  17
ATOM     17  C   UNL     1       7.159   8.275  17.587  0.00  0.00    +0.000 C 
BRANCH  17  18
ATOM     18  C   UNL     1       8.495   8.641  18.251  0.00  0.00    +0.000 C 
BRANCH  18  19
ATOM     19  C   UNL     1       8.764  10.154  18.249  0.00  0.00    +0.000 C 
BRANCH  19  20
ATOM     20  C   UNL     1       9.744  10.568  19.348  0.00  0.00    +0.000 C 
BRANCH  20  26
ATOM     21  C   UNL     1       9.351  15.383  18.645  0.00  0.00    +0.000 C 
ATOM     22  C   UNL     1       9.839  14.356  19.659  0.00  0.00    +0.000 C 
ATOM     23  C   UNL     1      11.105  14.820  20.375  0.00  0.00    +0.000 C 
ATOM     24  S   UNL     1       8.555  14.019  20.917  0.00  0.00    +0.000 S 
ATOM     25  C   UNL     1       8.991  12.279  21.018  0.00  0.00    +0.000 C 
ATOM     26  N   UNL     1       9.598  11.951  19.757  0.00  0.00    +0.000 N 
ATOM     27  C   UNL     1      10.096  13.001  18.994  0.00  0.00    +0.000 C 
ATOM     28  O   UNL     1      10.703  12.854  17.939  0.00  0.00    +0.000 OA
ENDBRANCH  20  26
ENDBRANCH  19  20
ENDBRANCH  18  19
ENDBRANCH  17  18
ENDBRANCH   1  17
TORSDOF 7
ENDMDL
MODEL 8
REMARK VINA RESULT:      -7.9      1.444      1.579
REMARK  Name = 
REMARK  9 active torsions:
REMARK  status: ('A' for Active; 'I' for Inactive)
REMARK    1  A    between atoms: C_1  and  C_2
REMARK    2  A    between atoms: C_2  and  C_3
REMARK    3  A    between atoms: N_6  and  C_7
REMARK    4  A    between atoms: C_7  and  C_8
REMARK    5  A    between atoms: C_8  and  C_9
REMARK    6  A    between atoms: C_9  and  C_10
REMARK    7  A    between atoms: C_10  and  N_11
REMARK    8  A    between atoms: N_14  and  C_15
REMARK    9  A    between atoms: C_19  and  C_20
REMARK                            x       y       z     vdW  Elec       q    Type
REMARK                         _______ _______ _______ _____ _____    ______ ____
ROOT
ATOM      1  N   UNL     1       7.551   5.839  16.939  0.00  0.00    +0.000 NA
ATOM      2  C   UNL     1       7.321   5.303  18.304  0.00  0.00    +0.000 C 
ATOM      3  C   UNL     1       5.937   5.633  18.903  0.00  0.00    +0.000 C 
ATOM      4  N   UNL     1       4.857   5.201  18.005  0.00  0.00    +0.000 N 
ATOM      5  C   UNL     1       5.005   5.609  16.594  0.00  0.00    +0.000 C 
ATOM      6  C   UNL     1       6.444   5.333  16.077  0.00  0.00    +0.000 C 
ENDROOT
BRANCH   4   7
ATOM      7  C   UNL     1       3.971   4.195  18.343  0.00  0.00    +0.000 A 
ATOM      8  C   UNL     1       3.441   3.347  17.357  0.00  0.00    +0.000 A 
ATOM      9  C   UNL     1       2.515   2.345  17.663  0.00  0.00    +0.000 A 
ATOM     10  C   UNL     1       2.093   2.166  18.976  0.00  0.00    +0.000 A 
ATOM     11  C   UNL     1       2.597   2.986  19.989  0.00  0.00    +0.000 A 
ATOM     12  C   UNL     1       3.532   3.986  19.658  0.00  0.00    +0.000 A 
BRANCH  11  13
ATOM     13  C   UNL     1       2.161   2.826  21.421  0.00  0.00    +0.000 C 
ATOM     14  F   UNL     1       0.831   2.562  21.562  0.00  0.00    +0.000 F 
ATOM     15  F   UNL     1       2.810   1.811  22.056  0.00  0.00    +0.000 F 
ATOM     16  F   UNL     1       2.399   3.942  22.165  0.00  0.00    +0.000 F 
ENDBRANCH  11  13
ENDBRANCH   4   7
BRANCH   1  17
ATOM     17  C   UNL     1       7.592   7.311  16.882  0.00  0.00    +0.000 C 
BRANCH  17  18
ATOM     18  C   UNL     1       8.092   7.987  18.168  0.00  0.00    +0.000 C 
BRANCH  18  19
ATOM     19  C   UNL     1       8.940   9.238  17.890  0.00  0.00    +0.000 C 
BRANCH  19  20
ATOM     20  C   UNL     1       8.519  10.425  18.758  0.00  0.00    +0.000 C 
BRANCH  20  26
ATOM     21  C   UNL     1       9.778  15.092  18.073  0.00  0.00    +0.000 C 
ATOM     22  C   UNL     1      10.323  13.674  17.957  0.00  0.00    +0.000 C 
ATOM     23  C   UNL     1      11.240  13.514  16.746  0.00  0.00    +0.000 C 
ATOM     24  S   UNL     1      11.263  13.211  19.457  0.00  0.00    +0.000 S 
ATOM     25  C   UNL     1      10.686  11.511  19.396  0.00  0.00    +0.000 C 
ATOM     26  N   UNL     1       9.437  11.544  18.684  0.00  0.00    +0.000 N 
ATOM     27  C   UNL     1       9.189  12.649  17.879  0.00  0.00    +0.000 C 
ATOM     28  O   UNL     1       8.201  12.767  17.161  0.00  0.00    +0.000 OA
ENDBRANCH  20  26
ENDBRANCH  19  20
ENDBRANCH  18  19
ENDBRANCH  17  18
ENDBRANCH   1  17
TORSDOF 7
ENDMDL
MODEL 9
REMARK VINA RESULT:      -7.8      1.490      1.844
REMARK  Name = 
REMARK  9 active torsions:
REMARK  status: ('A' for Active; 'I' for Inactive)
REMARK    1  A    between atoms: C_1  and  C_2
REMARK    2  A    between atoms: C_2  and  C_3
REMARK    3  A    between atoms: N_6  and  C_7
REMARK    4  A    between atoms: C_7  and  C_8
REMARK    5  A    between atoms: C_8  and  C_9
REMARK    6  A    between atoms: C_9  and  C_10
REMARK    7  A    between atoms: C_10  and  N_11
REMARK    8  A    between atoms: N_14  and  C_15
REMARK    9  A    between atoms: C_19  and  C_20
REMARK                            x       y       z     vdW  Elec       q    Type
REMARK                         _______ _______ _______ _____ _____    ______ ____
ROOT
ATOM      1  N   UNL     1       7.710   6.588  17.462  0.00  0.00    +0.000 NA
ATOM      2  C   UNL     1       7.600   5.235  18.063  0.00  0.00    +0.000 C 
ATOM      3  C   UNL     1       6.483   5.086  19.119  0.00  0.00    +0.000 C 
ATOM      4  N   UNL     1       5.183   5.501  18.573  0.00  0.00    +0.000 N 
ATOM      5  C   UNL     1       5.174   6.804  17.880  0.00  0.00    +0.000 C 
ATOM      6  C   UNL     1       6.372   6.927  16.898  0.00  0.00    +0.000 C 
ENDROOT
BRANCH   4   7
ATOM      7  C   UNL     1       4.142   4.612  18.384  0.00  0.00    +0.000 A 
ATOM      8  C   UNL     1       4.001   3.922  17.170  0.00  0.00    +0.000 A 
ATOM      9  C   UNL     1       2.937   3.046  16.935  0.00  0.00    +0.000 A 
ATOM     10  C   UNL     1       1.979   2.835  17.921  0.00  0.00    +0.000 A 
ATOM     11  C   UNL     1       2.082   3.500  19.146  0.00  0.00    +0.000 A 
ATOM     12  C   UNL     1       3.164   4.375  19.362  0.00  0.00    +0.000 A 
BRANCH  11  13
ATOM     13  C   UNL     1       1.062   3.302  20.237  0.00  0.00    +0.000 C 
ATOM     14  F   UNL     1       1.511   2.543  21.276  0.00  0.00    +0.000 F 
ATOM     15  F   UNL     1       0.649   4.478  20.787  0.00  0.00    +0.000 F 
ATOM     16  F   UNL     1      -0.067   2.686  19.787  0.00  0.00    +0.000 F 
ENDBRANCH  11  13
ENDBRANCH   4   7
BRANCH   1  17
ATOM     17  C   UNL     1       8.124   7.628  18.421  0.00  0.00    +0.000 C 
BRANCH  17  18
ATOM     18  C   UNL     1       8.146   9.053  17.848  0.00  0.00    +0.000 C 
BRANCH  18  19
ATOM     19  C   UNL     1       9.196   9.948  18.524  0.00  0.00    +0.000 C 
BRANCH  19  20
ATOM     20  C   UNL     1       9.018  11.423  18.160  0.00  0.00    +0.000 C 
BRANCH  20  26
ATOM     21  C   UNL     1       8.066  15.323  20.938  0.00  0.00    +0.000 C 
ATOM     22  C   UNL     1       9.201  14.397  20.521  0.00  0.00    +0.000 C 
ATOM     23  C   UNL     1      10.520  15.151  20.361  0.00  0.00    +0.000 C 
ATOM     24  S   UNL     1       9.444  13.065  21.752  0.00  0.00    +0.000 S 
ATOM     25  C   UNL     1       9.844  11.854  20.487  0.00  0.00    +0.000 C 
ATOM     26  N   UNL     1       9.212  12.320  19.282  0.00  0.00    +0.000 N 
ATOM     27  C   UNL     1       8.869  13.665  19.219  0.00  0.00    +0.000 C 
ATOM     28  O   UNL     1       8.397  14.206  18.224  0.00  0.00    +0.000 OA
ENDBRANCH  20  26
ENDBRANCH  19  20
ENDBRANCH  18  19
ENDBRANCH  17  18
ENDBRANCH   1  17
TORSDOF 7
ENDMDL
