MODEL 1
REMARK VINA RESULT:      -9.6      0.000      0.000
REMARK  Name = 
REMARK  8 active torsions:
REMARK  status: ('A' for Active; 'I' for Inactive)
REMARK    1  A    between atoms: C_1  and  C_2
REMARK    2  A    between atoms: C_2  and  C_3
REMARK    3  A    between atoms: C_2  and  N_4
REMARK    4  A    between atoms: C_6  and  C_7
REMARK    5  A    between atoms: C_7  and  C_9
REMARK    6  A    between atoms: C_13  and  N_14
REMARK    7  A    between atoms: N_14  and  C_15
REMARK    8  A    between atoms: C_19  and  C_20
REMARK                            x       y       z     vdW  Elec       q    Type
REMARK                         _______ _______ _______ _____ _____    ______ ____
ROOT
ATOM      1  C   UNL     1       1.282   9.384  19.533  0.00  0.00    +0.000 A 
ATOM      2  C   UNL     1       1.599   9.639  18.208  0.00  0.00    +0.000 A 
ATOM      3  N   UNL     1       2.310   8.762  17.462  0.00  0.00    +0.000 NA
ATOM      4  C   UNL     1       2.661   7.619  18.106  0.00  0.00    +0.000 A 
ATOM      5  C   UNL     1       2.320   7.324  19.433  0.00  0.00    +0.000 A 
ATOM      6  N   UNL     1       1.615   8.215  20.160  0.00  0.00    +0.000 NA
ENDROOT
BRANCH   1   7
ATOM      7  C   UNL     1       0.576  10.449  20.300  0.00  0.00    +0.000 C 
ATOM      8  O   UNL     1       1.046  10.817  21.370  0.00  0.00    +0.000 OA
BRANCH   7  11
ATOM      9  N   UNL     1      -2.433  11.403  18.426  0.00  0.00    +0.000 N 
ATOM     10  C   UNL     1      -1.232  10.736  18.534  0.00  0.00    +0.000 A 
ATOM     11  C   UNL     1      -0.692  10.972  19.787  0.00  0.00    +0.000 A 
ATOM     12  C   UNL     1      -1.657  11.769  20.495  0.00  0.00    +0.000 A 
ATOM     13  C   UNL     1      -1.759  12.334  21.780  0.00  0.00    +0.000 A 
ATOM     14  N   UNL     1      -0.786  12.217  22.754  0.00  0.00    +0.000 N 
ATOM     15  N   UNL     1      -2.850  13.065  22.085  0.00  0.00    +0.000 NA
ATOM     16  C   UNL     1      -3.788  13.238  21.138  0.00  0.00    +0.000 A 
ATOM     17  N   UNL     1      -3.806  12.749  19.888  0.00  0.00    +0.000 NA
ATOM     18  C   UNL     1      -2.710  12.022  19.619  0.00  0.00    +0.000 A 
ATOM     19  H   UNL     1      -0.131  11.443  22.654  0.00  0.00    +0.000 HD
ATOM     20  H   UNL     1      -1.092  12.468  23.683  0.00  0.00    +0.000 HD
BRANCH   9  22
ATOM     21  C   UNL     1      -2.550  10.611  16.096  0.00  0.00    +0.000 C 
ATOM     22  C   UNL     1      -3.260  11.360  17.221  0.00  0.00    +0.000 C 
ATOM     23  C   UNL     1      -4.683  10.836  17.429  0.00  0.00    +0.000 C 
ENDBRANCH   9  22
ENDBRANCH   7  11
ENDBRANCH   1   7
BRANCH   5  24
ATOM     24  N   UNL     1       2.725   6.109  19.983  0.00  0.00    +0.000 N 
ATOM     25  H   UNL     1       3.003   6.185  20.958  0.00  0.00    +0.000 HD
BRANCH  24  26
ATOM     26  C   UNL     1       1.978   4.892  19.635  0.00  0.00    +0.000 C 
ATOM     27  C   UNL     1       1.334   4.249  20.847  0.00  0.00    +0.000 C 
ATOM     28  C   UNL     1       2.326   3.202  21.310  0.00  0.00    +0.000 C 
ATOM     29  O   UNL     1       3.281   2.986  20.273  0.00  0.00    +0.000 OA
ATOM     30  C   UNL     1       2.894   3.751  19.114  0.00  0.00    +0.000 C 
BRANCH  30  31
ATOM     31  C   UNL     1       4.110   4.121  18.279  0.00  0.00    +0.000 A 
ATOM     32  C   UNL     1       5.365   4.359  18.872  0.00  0.00    +0.000 A 
ATOM     33  C   UNL     1       6.489   4.647  18.091  0.00  0.00    +0.000 A 
ATOM     34  C   UNL     1       6.369   4.687  16.710  0.00  0.00    +0.000 A 
ATOM     35  F   UNL     1       7.445   4.958  15.959  0.00  0.00    +0.000 F 
ATOM     36  C   UNL     1       5.147   4.442  16.095  0.00  0.00    +0.000 A 
ATOM     37  C   UNL     1       4.023   4.155  16.876  0.00  0.00    +0.000 A 
ENDBRANCH  30  31
ENDBRANCH  24  26
ENDBRANCH   5  24
TORSDOF 6
ENDMDL
MODEL 2
REMARK VINA RESULT:      -9.5      0.627      1.035
REMARK  Name = 
REMARK  8 active torsions:
REMARK  status: ('A' for Active; 'I' for Inactive)
REMARK    1  A    between atoms: C_1  and  C_2
REMARK    2  A    between atoms: C_2  and  C_3
REMARK    3  A    between atoms: C_2  and  N_4
REMARK    4  A    between atoms: C_6  and  C_7
REMARK    5  A    between atoms: C_7  and  C_9
REMARK    6  A    between atoms: C_13  and  N_14
REMARK    7  A    between atoms: N_14  and  C_15
REMARK    8  A    between atoms: C_19  and  C_20
REMARK                            x       y       z     vdW  Elec       q    Type
REMARK                         _______ _______ _______ _____ _____    ______ ____
ROOT
ATOM      1  C   UNL     1       1.185   9.629  19.544  0.00  0.00    +0.000 A 
ATOM      2  C   UNL     1       1.498   9.809  18.206  0.00  0.00    +0.000 A 
ATOM      3  N   UNL     1       2.169   8.873  17.496  0.00  0.00    +0.000 NA
ATOM      4  C   UNL     1       2.485   7.750  18.190  0.00  0.00    +0.000 A 
ATOM      5  C   UNL     1       2.147   7.529  19.532  0.00  0.00    +0.000 A 
ATOM      6  N   UNL     1       1.482   8.479  20.223  0.00  0.00    +0.000 NA
ENDROOT
BRANCH   1   7
ATOM      7  C   UNL     1       0.527  10.754  20.266  0.00  0.00    +0.000 C 
ATOM      8  O   UNL     1       1.076  11.223  21.256  0.00  0.00    +0.000 OA
BRANCH   7  11
ATOM      9  N   UNL     1      -2.612  11.555  18.540  0.00  0.00    +0.000 N 
ATOM     10  C   UNL     1      -1.380  10.942  18.592  0.00  0.00    +0.000 A 
ATOM     11  C   UNL     1      -0.787  11.216  19.814  0.00  0.00    +0.000 A 
ATOM     12  C   UNL     1      -1.748  11.978  20.562  0.00  0.00    +0.000 A 
ATOM     13  C   UNL     1      -1.810  12.554  21.845  0.00  0.00    +0.000 A 
ATOM     14  N   UNL     1      -0.784  12.489  22.769  0.00  0.00    +0.000 N 
ATOM     15  N   UNL     1      -2.915  13.240  22.199  0.00  0.00    +0.000 NA
ATOM     16  C   UNL     1      -3.907  13.362  21.300  0.00  0.00    +0.000 A 
ATOM     17  N   UNL     1      -3.966  12.858  20.057  0.00  0.00    +0.000 NA
ATOM     18  C   UNL     1      -2.855  12.176  19.740  0.00  0.00    +0.000 A 
ATOM     19  H   UNL     1      -0.102  11.743  22.644  0.00  0.00    +0.000 HD
ATOM     20  H   UNL     1      -1.054  12.738  23.710  0.00  0.00    +0.000 HD
BRANCH   9  22
ATOM     21  C   UNL     1      -2.733  10.986  16.145  0.00  0.00    +0.000 C 
ATOM     22  C   UNL     1      -3.497  11.462  17.379  0.00  0.00    +0.000 C 
ATOM     23  C   UNL     1      -4.770  10.643  17.598  0.00  0.00    +0.000 C 
ENDBRANCH   9  22
ENDBRANCH   7  11
ENDBRANCH   1   7
BRANCH   5  24
ATOM     24  N   UNL     1       2.513   6.327  20.135  0.00  0.00    +0.000 N 
ATOM     25  H   UNL     1       2.527   6.378  21.151  0.00  0.00    +0.000 HD
BRANCH  24  26
ATOM     26  C   UNL     1       1.999   5.070  19.575  0.00  0.00    +0.000 C 
ATOM     27  C   UNL     1       1.317   4.213  20.622  0.00  0.00    +0.000 C 
ATOM     28  C   UNL     1       2.391   3.260  21.110  0.00  0.00    +0.000 C 
ATOM     29  O   UNL     1       3.482   3.293  20.194  0.00  0.00    +0.000 OA
ATOM     30  C   UNL     1       3.128   4.128  19.073  0.00  0.00    +0.000 C 
BRANCH  30  31
ATOM     31  C   UNL     1       4.367   4.749  18.447  0.00  0.00    +0.000 A 
ATOM     32  C   UNL     1       4.386   5.155  17.098  0.00  0.00    +0.000 A 
ATOM     33  C   UNL     1       5.513   5.772  16.547  0.00  0.00    +0.000 A 
ATOM     34  C   UNL     1       6.626   5.999  17.342  0.00  0.00    +0.000 A 
ATOM     35  F   UNL     1       7.704   6.594  16.817  0.00  0.00    +0.000 F 
ATOM     36  C   UNL     1       6.631   5.623  18.680  0.00  0.00    +0.000 A 
ATOM     37  C   UNL     1       5.506   5.005  19.232  0.00  0.00    +0.000 A 
ENDBRANCH  30  31
ENDBRANCH  24  26
ENDBRANCH   5  24
TORSDOF 6
ENDMDL
MODEL 3
REMARK VINA RESULT:      -9.5      1.830      2.481
REMARK  Name = 
REMARK  8 active torsions:
REMARK  status: ('A' for Active; 'I' for Inactive)
REMARK    1  A    between atoms: C_1  and  C_2
REMARK    2  A    between atoms: C_2  and  C_3
REMARK    3  A    between atoms: C_2  and  N_4
REMARK    4  A    between atoms: C_6  and  C_7
REMARK    5  A    between atoms: C_7  and  C_9
REMARK    6  A    between atoms: C_13  and  N_14
REMARK    7  A    between atoms: N_14  and  C_15
REMARK    8  A    between atoms: C_19  and  C_20
REMARK                            x       y       z     vdW  Elec       q    Type
REMARK                         _______ _______ _______ _____ _____    ______ ____
ROOT
ATOM      1  C   UNL     1       1.545   8.845  19.320  0.00  0.00    +0.000 A 
ATOM      2  C   UNL     1       0.988   8.840  20.590  0.00  0.00    +0.000 A 
ATOM      3  N   UNL     1       1.054   7.755  21.396  0.00  0.00    +0.000 NA
ATOM      4  C   UNL     1       1.722   6.695  20.870  0.00  0.00    +0.000 A 
ATOM      5  C   UNL     1       2.326   6.690  19.606  0.00  0.00    +0.000 A 
ATOM      6  N   UNL     1       2.242   7.782  18.816  0.00  0.00    +0.000 NA
ENDROOT
BRANCH   1   7
ATOM      7  C   UNL     1       1.341  10.053  18.472  0.00  0.00    +0.000 C 
ATOM      8  O   UNL     1       2.288  10.491  17.831  0.00  0.00    +0.000 OA
BRANCH   7  11
ATOM      9  N   UNL     1      -2.093  11.259  17.996  0.00  0.00    +0.000 N 
ATOM     10  C   UNL     1      -1.054  10.408  17.691  0.00  0.00    +0.000 A 
ATOM     11  C   UNL     1       0.037  10.719  18.486  0.00  0.00    +0.000 A 
ATOM     12  C   UNL     1      -0.396  11.770  19.365  0.00  0.00    +0.000 A 
ATOM     13  C   UNL     1       0.179  12.523  20.407  0.00  0.00    +0.000 A 
ATOM     14  N   UNL     1       1.483  12.371  20.839  0.00  0.00    +0.000 N 
ATOM     15  N   UNL     1      -0.562  13.476  21.007  0.00  0.00    +0.000 NA
ATOM     16  C   UNL     1      -1.817  13.680  20.570  0.00  0.00    +0.000 A 
ATOM     17  N   UNL     1      -2.472  13.028  19.597  0.00  0.00    +0.000 NA
ATOM     18  C   UNL     1      -1.710  12.083  19.025  0.00  0.00    +0.000 A 
ATOM     19  H   UNL     1       1.936  11.485  20.623  0.00  0.00    +0.000 HD
ATOM     20  H   UNL     1       1.680  12.805  21.730  0.00  0.00    +0.000 HD
BRANCH   9  22
ATOM     21  C   UNL     1      -3.234  10.886  15.844  0.00  0.00    +0.000 C 
ATOM     22  C   UNL     1      -3.393  11.195  17.331  0.00  0.00    +0.000 C 
ATOM     23  C   UNL     1      -4.413  10.264  17.989  0.00  0.00    +0.000 C 
ENDBRANCH   9  22
ENDBRANCH   7  11
ENDBRANCH   1   7
BRANCH   5  24
ATOM     24  N   UNL     1       2.999   5.546  19.180  0.00  0.00    +0.000 N 
ATOM     25  H   UNL     1       2.993   4.799  19.870  0.00  0.00    +0.000 HD
BRANCH  24  26
ATOM     26  C   UNL     1       2.843   5.115  17.784  0.00  0.00    +0.000 C 
ATOM     27  C   UNL     1       2.032   3.840  17.666  0.00  0.00    +0.000 C 
ATOM     28  C   UNL     1       3.056   2.723  17.631  0.00  0.00    +0.000 C 
ATOM     29  O   UNL     1       4.340   3.288  17.377  0.00  0.00    +0.000 OA
ATOM     30  C   UNL     1       4.189   4.700  17.129  0.00  0.00    +0.000 C 
BRANCH  30  31
ATOM     31  C   UNL     1       5.450   5.456  17.519  0.00  0.00    +0.000 A 
ATOM     32  C   UNL     1       5.748   6.721  16.976  0.00  0.00    +0.000 A 
ATOM     33  C   UNL     1       6.883   7.431  17.380  0.00  0.00    +0.000 A 
ATOM     34  C   UNL     1       7.723   6.887  18.339  0.00  0.00    +0.000 A 
ATOM     35  F   UNL     1       8.808   7.566  18.732  0.00  0.00    +0.000 F 
ATOM     36  C   UNL     1       7.447   5.647  18.904  0.00  0.00    +0.000 A 
ATOM     37  C   UNL     1       6.313   4.937  18.500  0.00  0.00    +0.000 A 
ENDBRANCH  30  31
ENDBRANCH  24  26
ENDBRANCH   5  24
TORSDOF 6
ENDMDL
MODEL 4
REMARK VINA RESULT:      -9.4      2.479      3.301
REMARK  Name = 
REMARK  8 active torsions:
REMARK  status: ('A' for Active; 'I' for Inactive)
REMARK    1  A    between atoms: C_1  and  C_2
REMARK    2  A    between atoms: C_2  and  C_3
REMARK    3  A    between atoms: C_2  and  N_4
REMARK    4  A    between atoms: C_6  and  C_7
REMARK    5  A    between atoms: C_7  and  C_9
REMARK    6  A    between atoms: C_13  and  N_14
REMARK    7  A    between atoms: N_14  and  C_15
REMARK    8  A    between atoms: C_19  and  C_20
REMARK                            x       y       z     vdW  Elec       q    Type
REMARK                         _______ _______ _______ _____ _____    ______ ____
ROOT
ATOM      1  C   UNL     1       1.534   9.074  19.267  0.00  0.00    +0.000 A 
ATOM      2  C   UNL     1       1.000   9.195  20.540  0.00  0.00    +0.000 A 
ATOM      3  N   UNL     1       1.003   8.165  21.418  0.00  0.00    +0.000 NA
ATOM      4  C   UNL     1       1.586   7.028  20.959  0.00  0.00    +0.000 A 
ATOM      5  C   UNL     1       2.166   6.894  19.690  0.00  0.00    +0.000 A 
ATOM      6  N   UNL     1       2.146   7.932  18.829  0.00  0.00    +0.000 NA
ENDROOT
BRANCH   1   7
ATOM      7  C   UNL     1       1.401  10.233  18.340  0.00  0.00    +0.000 C 
ATOM      8  O   UNL     1       2.075  10.252  17.317  0.00  0.00    +0.000 OA
BRANCH   7  11
ATOM      9  N   UNL     1      -1.268  12.508  19.422  0.00  0.00    +0.000 N 
ATOM     10  C   UNL     1      -0.774  11.244  19.186  0.00  0.00    +0.000 A 
ATOM     11  C   UNL     1       0.523  11.345  18.713  0.00  0.00    +0.000 A 
ATOM     12  C   UNL     1       0.849  12.744  18.732  0.00  0.00    +0.000 A 
ATOM     13  C   UNL     1       1.972  13.529  18.410  0.00  0.00    +0.000 A 
ATOM     14  N   UNL     1       3.160  13.014  17.927  0.00  0.00    +0.000 N 
ATOM     15  N   UNL     1       1.891  14.868  18.545  0.00  0.00    +0.000 NA
ATOM     16  C   UNL     1       0.730  15.399  18.963  0.00  0.00    +0.000 A 
ATOM     17  N   UNL     1      -0.401  14.759  19.303  0.00  0.00    +0.000 NA
ATOM     18  C   UNL     1      -0.284  13.429  19.165  0.00  0.00    +0.000 A 
ATOM     19  H   UNL     1       3.339  12.028  18.111  0.00  0.00    +0.000 HD
ATOM     20  H   UNL     1       3.939  13.657  17.964  0.00  0.00    +0.000 HD
BRANCH   9  22
ATOM     21  C   UNL     1      -3.653  11.955  19.136  0.00  0.00    +0.000 C 
ATOM     22  C   UNL     1      -2.618  12.752  19.928  0.00  0.00    +0.000 C 
ATOM     23  C   UNL     1      -2.793  12.550  21.434  0.00  0.00    +0.000 C 
ENDBRANCH   9  22
ENDBRANCH   7  11
ENDBRANCH   1   7
BRANCH   5  24
ATOM     24  N   UNL     1       2.749   5.678  19.336  0.00  0.00    +0.000 N 
ATOM     25  H   UNL     1       2.642   4.961  20.050  0.00  0.00    +0.000 HD
BRANCH  24  26
ATOM     26  C   UNL     1       2.620   5.211  17.950  0.00  0.00    +0.000 C 
ATOM     27  C   UNL     1       1.788   3.948  17.846  0.00  0.00    +0.000 C 
ATOM     28  C   UNL     1       2.792   2.813  17.867  0.00  0.00    +0.000 C 
ATOM     29  O   UNL     1       4.092   3.347  17.630  0.00  0.00    +0.000 OA
ATOM     30  C   UNL     1       3.973   4.755  17.339  0.00  0.00    +0.000 C 
BRANCH  30  31
ATOM     31  C   UNL     1       5.238   5.499  17.740  0.00  0.00    +0.000 A 
ATOM     32  C   UNL     1       6.100   5.002  18.736  0.00  0.00    +0.000 A 
ATOM     33  C   UNL     1       7.287   5.666  19.061  0.00  0.00    +0.000 A 
ATOM     34  C   UNL     1       7.627   6.827  18.383  0.00  0.00    +0.000 A 
ATOM     35  F   UNL     1       8.765   7.463  18.689  0.00  0.00    +0.000 F 
ATOM     36  C   UNL     1       6.804   7.334  17.385  0.00  0.00    +0.000 A 
ATOM     37  C   UNL     1       5.617   6.671  17.061  0.00  0.00    +0.000 A 
ENDBRANCH  30  31
ENDBRANCH  24  26
ENDBRANCH   5  24
TORSDOF 6
ENDMDL
MODEL 5
REMARK VINA RESULT:      -9.3      1.261      1.550
REMARK  Name = 
REMARK  8 active torsions:
REMARK  status: ('A' for Active; 'I' for Inactive)
REMARK    1  A    between atoms: C_1  and  C_2
REMARK    2  A    between atoms: C_2  and  C_3
REMARK    3  A    between atoms: C_2  and  N_4
REMARK    4  A    between atoms: C_6  and  C_7
REMARK    5  A    between atoms: C_7  and  C_9
REMARK    6  A    between atoms: C_13  and  N_14
REMARK    7  A    between atoms: N_14  and  C_15
REMARK    8  A    between atoms: C_19  and  C_20
REMARK                            x       y       z     vdW  Elec       q    Type
REMARK                         _______ _______ _______ _____ _____    ______ ____
ROOT
ATOM      1  C   UNL     1       1.078   9.487  19.462  0.00  0.00    +0.000 A 
ATOM      2  C   UNL     1       1.552  10.148  18.340  0.00  0.00    +0.000 A 
ATOM      3  N   UNL     1       2.399   9.557  17.465  0.00  0.00    +0.000 NA
ATOM      4  C   UNL     1       2.722   8.273  17.766  0.00  0.00    +0.000 A 
ATOM      5  C   UNL     1       2.226   7.572  18.873  0.00  0.00    +0.000 A 
ATOM      6  N   UNL     1       1.387   8.183  19.735  0.00  0.00    +0.000 NA
ENDROOT
BRANCH   1   7
ATOM      7  C   UNL     1       0.224  10.250  20.415  0.00  0.00    +0.000 C 
ATOM      8  O   UNL     1       0.516  10.246  21.605  0.00  0.00    +0.000 OA
BRANCH   7  11
ATOM      9  N   UNL     1      -2.705  11.507  18.594  0.00  0.00    +0.000 N 
ATOM     10  C   UNL     1      -1.617  10.671  18.710  0.00  0.00    +0.000 A 
ATOM     11  C   UNL     1      -0.976  10.923  19.912  0.00  0.00    +0.000 A 
ATOM     12  C   UNL     1      -1.765  11.918  20.585  0.00  0.00    +0.000 A 
ATOM     13  C   UNL     1      -1.705  12.598  21.816  0.00  0.00    +0.000 A 
ATOM     14  N   UNL     1      -0.707  12.409  22.753  0.00  0.00    +0.000 N 
ATOM     15  N   UNL     1      -2.652  13.515  22.100  0.00  0.00    +0.000 NA
ATOM     16  C   UNL     1      -3.605  13.754  21.183  0.00  0.00    +0.000 A 
ATOM     17  N   UNL     1      -3.769  13.172  19.985  0.00  0.00    +0.000 NA
ATOM     18  C   UNL     1      -2.815  12.261  19.736  0.00  0.00    +0.000 A 
ATOM     19  H   UNL     1      -0.186  11.536  22.697  0.00  0.00    +0.000 HD
ATOM     20  H   UNL     1      -0.918  12.783  23.668  0.00  0.00    +0.000 HD
BRANCH   9  22
ATOM     21  C   UNL     1      -2.900  10.897  16.214  0.00  0.00    +0.000 C 
ATOM     22  C   UNL     1      -3.596  11.495  17.435  0.00  0.00    +0.000 C 
ATOM     23  C   UNL     1      -4.961  10.846  17.673  0.00  0.00    +0.000 C 
ENDBRANCH   9  22
ENDBRANCH   7  11
ENDBRANCH   1   7
BRANCH   5  24
ATOM     24  N   UNL     1       2.619   6.249  19.070  0.00  0.00    +0.000 N 
ATOM     25  H   UNL     1       2.283   5.859  19.947  0.00  0.00    +0.000 HD
BRANCH  24  26
ATOM     26  C   UNL     1       2.601   5.330  17.924  0.00  0.00    +0.000 C 
ATOM     27  C   UNL     1       1.657   4.164  18.139  0.00  0.00    +0.000 C 
ATOM     28  C   UNL     1       2.525   3.052  18.694  0.00  0.00    +0.000 C 
ATOM     29  O   UNL     1       3.893   3.390  18.480  0.00  0.00    +0.000 OA
ATOM     30  C   UNL     1       3.960   4.607  17.711  0.00  0.00    +0.000 C 
BRANCH  30  31
ATOM     31  C   UNL     1       5.242   5.368  18.011  0.00  0.00    +0.000 A 
ATOM     32  C   UNL     1       6.041   5.052  19.127  0.00  0.00    +0.000 A 
ATOM     33  C   UNL     1       7.244   5.723  19.366  0.00  0.00    +0.000 A 
ATOM     34  C   UNL     1       7.664   6.707  18.485  0.00  0.00    +0.000 A 
ATOM     35  F   UNL     1       8.819   7.348  18.709  0.00  0.00    +0.000 F 
ATOM     36  C   UNL     1       6.905   7.031  17.367  0.00  0.00    +0.000 A 
ATOM     37  C   UNL     1       5.701   6.362  17.128  0.00  0.00    +0.000 A 
ENDBRANCH  30  31
ENDBRANCH  24  26
ENDBRANCH   5  24
TORSDOF 6
ENDMDL
MODEL 6
REMARK VINA RESULT:      -9.3      2.039      2.695
REMARK  Name = 
REMARK  8 active torsions:
REMARK  status: ('A' for Active; 'I' for Inactive)
REMARK    1  A    between atoms: C_1  and  C_2
REMARK    2  A    between atoms: C_2  and  C_3
REMARK    3  A    between atoms: C_2  and  N_4
REMARK    4  A    between atoms: C_6  and  C_7
REMARK    5  A    between atoms: C_7  and  C_9
REMARK    6  A    between atoms: C_13  and  N_14
REMARK    7  A    between atoms: N_14  and  C_15
REMARK    8  A    between atoms: C_19  and  C_20
REMARK                            x       y       z     vdW  Elec       q    Type
REMARK                         _______ _______ _______ _____ _____    ______ ____
ROOT
ATOM      1  C   UNL     1       1.317   9.597  19.853  0.00  0.00    +0.000 A 
ATOM      2  C   UNL     1       1.402  10.192  18.604  0.00  0.00    +0.000 A 
ATOM      3  N   UNL     1       1.930   9.546  17.539  0.00  0.00    +0.000 NA
ATOM      4  C   UNL     1       2.343   8.277  17.790  0.00  0.00    +0.000 A 
ATOM      5  C   UNL     1       2.233   7.642  19.034  0.00  0.00    +0.000 A 
ATOM      6  N   UNL     1       1.708   8.307  20.084  0.00  0.00    +0.000 NA
ENDROOT
BRANCH   1   7
ATOM      7  C   UNL     1       0.805  10.420  20.986  0.00  0.00    +0.000 C 
ATOM      8  O   UNL     1       1.141  10.127  22.127  0.00  0.00    +0.000 OA
BRANCH   7  11
ATOM      9  N   UNL     1      -2.049  12.638  20.353  0.00  0.00    +0.000 N 
ATOM     10  C   UNL     1      -1.516  11.401  20.638  0.00  0.00    +0.000 A 
ATOM     11  C   UNL     1      -0.136  11.506  20.707  0.00  0.00    +0.000 A 
ATOM     12  C   UNL     1       0.169  12.898  20.521  0.00  0.00    +0.000 A 
ATOM     13  C   UNL     1       1.335  13.686  20.492  0.00  0.00    +0.000 A 
ATOM     14  N   UNL     1       2.611  13.181  20.654  0.00  0.00    +0.000 N 
ATOM     15  N   UNL     1       1.221  15.010  20.261  0.00  0.00    +0.000 NA
ATOM     16  C   UNL     1      -0.005  15.518  20.048  0.00  0.00    +0.000 A 
ATOM     17  N   UNL     1      -1.183  14.874  20.055  0.00  0.00    +0.000 NA
ATOM     18  C   UNL     1      -1.035  13.561  20.295  0.00  0.00    +0.000 A 
ATOM     19  H   UNL     1       2.690  12.280  21.121  0.00  0.00    +0.000 HD
ATOM     20  H   UNL     1       3.315  13.881  20.841  0.00  0.00    +0.000 HD
BRANCH   9  22
ATOM     21  C   UNL     1      -4.074  12.004  19.100  0.00  0.00    +0.000 C 
ATOM     22  C   UNL     1      -3.486  12.870  20.212  0.00  0.00    +0.000 C 
ATOM     23  C   UNL     1      -4.294  12.744  21.504  0.00  0.00    +0.000 C 
ENDBRANCH   9  22
ENDBRANCH   7  11
ENDBRANCH   1   7
BRANCH   5  24
ATOM     24  N   UNL     1       2.678   6.328  19.167  0.00  0.00    +0.000 N 
ATOM     25  H   UNL     1       2.454   5.920  20.071  0.00  0.00    +0.000 HD
BRANCH  24  26
ATOM     26  C   UNL     1       2.554   5.421  18.018  0.00  0.00    +0.000 C 
ATOM     27  C   UNL     1       1.581   4.289  18.284  0.00  0.00    +0.000 C 
ATOM     28  C   UNL     1       2.439   3.140  18.775  0.00  0.00    +0.000 C 
ATOM     29  O   UNL     1       3.804   3.429  18.478  0.00  0.00    +0.000 OA
ATOM     30  C   UNL     1       3.868   4.650  17.714  0.00  0.00    +0.000 C 
BRANCH  30  31
ATOM     31  C   UNL     1       5.195   5.359  17.940  0.00  0.00    +0.000 A 
ATOM     32  C   UNL     1       5.609   6.425  17.117  0.00  0.00    +0.000 A 
ATOM     33  C   UNL     1       6.805   7.104  17.364  0.00  0.00    +0.000 A 
ATOM     34  C   UNL     1       7.592   6.731  18.443  0.00  0.00    +0.000 A 
ATOM     35  F   UNL     1       8.737   7.384  18.685  0.00  0.00    +0.000 F 
ATOM     36  C   UNL     1       7.203   5.694  19.281  0.00  0.00    +0.000 A 
ATOM     37  C   UNL     1       6.007   5.013  19.034  0.00  0.00    +0.000 A 
ENDBRANCH  30  31
ENDBRANCH  24  26
ENDBRANCH   5  24
TORSDOF 6
ENDMDL
MODEL 7
REMARK VINA RESULT:      -9.3      1.769      2.362
REMARK  Name = 
REMARK  8 active torsions:
REMARK  status: ('A' for Active; 'I' for Inactive)
REMARK    1  A    between atoms: C_1  and  C_2
REMARK    2  A    between atoms: C_2  and  C_3
REMARK    3  A    between atoms: C_2  and  N_4
REMARK    4  A    between atoms: C_6  and  C_7
REMARK    5  A    between atoms: C_7  and  C_9
REMARK    6  A    between atoms: C_13  and  N_14
REMARK    7  A    between atoms: N_14  and  C_15
REMARK    8  A    between atoms: C_19  and  C_20
REMARK                            x       y       z     vdW  Elec       q    Type
REMARK                         _______ _______ _______ _____ _____    ______ ____
ROOT
ATOM      1  C   UNL     1       1.316   9.052  19.517  0.00  0.00    +0.000 A 
ATOM      2  C   UNL     1       0.897   9.051  20.839  0.00  0.00    +0.000 A 
ATOM      3  N   UNL     1       1.081   7.981  21.647  0.00  0.00    +0.000 NA
ATOM      4  C   UNL     1       1.721   6.933  21.066  0.00  0.00    +0.000 A 
ATOM      5  C   UNL     1       2.186   6.926  19.744  0.00  0.00    +0.000 A 
ATOM      6  N   UNL     1       1.986   8.002  18.955  0.00  0.00    +0.000 NA
ENDROOT
BRANCH   1   7
ATOM      7  C   UNL     1       0.987  10.241  18.681  0.00  0.00    +0.000 C 
ATOM      8  O   UNL     1       1.902  10.926  18.242  0.00  0.00    +0.000 OA
BRANCH   7  11
ATOM      9  N   UNL     1      -2.492  10.680  17.597  0.00  0.00    +0.000 N 
ATOM     10  C   UNL     1      -1.244  10.113  17.465  0.00  0.00    +0.000 A 
ATOM     11  C   UNL     1      -0.419  10.593  18.468  0.00  0.00    +0.000 A 
ATOM     12  C   UNL     1      -1.238  11.443  19.288  0.00  0.00    +0.000 A 
ATOM     13  C   UNL     1      -1.054  12.215  20.451  0.00  0.00    +0.000 A 
ATOM     14  N   UNL     1       0.149  12.324  21.122  0.00  0.00    +0.000 N 
ATOM     15  N   UNL     1      -2.095  12.923  20.934  0.00  0.00    +0.000 NA
ATOM     16  C   UNL     1      -3.263  12.875  20.271  0.00  0.00    +0.000 A 
ATOM     17  N   UNL     1      -3.561  12.177  19.163  0.00  0.00    +0.000 NA
ATOM     18  C   UNL     1      -2.506  11.479  18.713  0.00  0.00    +0.000 A 
ATOM     19  H   UNL     1       0.830  11.583  20.962  0.00  0.00    +0.000 HD
ATOM     20  H   UNL     1       0.075  12.713  22.051  0.00  0.00    +0.000 HD
BRANCH   9  22
ATOM     21  C   UNL     1      -4.561  11.565  16.591  0.00  0.00    +0.000 C 
ATOM     22  C   UNL     1      -3.600  10.382  16.690  0.00  0.00    +0.000 C 
ATOM     23  C   UNL     1      -3.189   9.880  15.305  0.00  0.00    +0.000 C 
ENDBRANCH   9  22
ENDBRANCH   7  11
ENDBRANCH   1   7
BRANCH   5  24
ATOM     24  N   UNL     1       2.843   5.794  19.263  0.00  0.00    +0.000 N 
ATOM     25  H   UNL     1       2.807   5.007  19.907  0.00  0.00    +0.000 HD
BRANCH  24  26
ATOM     26  C   UNL     1       2.709   5.451  17.841  0.00  0.00    +0.000 C 
ATOM     27  C   UNL     1       1.847   4.223  17.627  0.00  0.00    +0.000 C 
ATOM     28  C   UNL     1       2.824   3.066  17.552  0.00  0.00    +0.000 C 
ATOM     29  O   UNL     1       4.138   3.587  17.365  0.00  0.00    +0.000 OA
ATOM     30  C   UNL     1       4.054   5.017  17.197  0.00  0.00    +0.000 C 
BRANCH  30  31
ATOM     31  C   UNL     1       5.334   5.693  17.663  0.00  0.00    +0.000 A 
ATOM     32  C   UNL     1       6.114   5.153  18.704  0.00  0.00    +0.000 A 
ATOM     33  C   UNL     1       7.317   5.753  19.090  0.00  0.00    +0.000 A 
ATOM     34  C   UNL     1       7.754   6.892  18.431  0.00  0.00    +0.000 A 
ATOM     35  F   UNL     1       8.908   7.466  18.796  0.00  0.00    +0.000 F 
ATOM     36  C   UNL     1       7.014   7.439  17.390  0.00  0.00    +0.000 A 
ATOM     37  C   UNL     1       5.811   6.840  17.004  0.00  0.00    +0.000 A 
ENDBRANCH  30  31
ENDBRANCH  24  26
ENDBRANCH   5  24
TORSDOF 6
ENDMDL
MODEL 8
REMARK VINA RESULT:      -9.2      1.535      1.927
REMARK  Name = 
REMARK  8 active torsions:
REMARK  status: ('A' for Active; 'I' for Inactive)
REMARK    1  A    between atoms: C_1  and  C_2
REMARK    2  A    between atoms: C_2  and  C_3
REMARK    3  A    between atoms: C_2  and  N_4
REMARK    4  A    between atoms: C_6  and  C_7
REMARK    5  A    between atoms: C_7  and  C_9
REMARK    6  A    between atoms: C_13  and  N_14
REMARK    7  A    between atoms: N_14  and  C_15
REMARK    8  A    between atoms: C_19  and  C_20
REMARK                            x       y       z     vdW  Elec       q    Type
REMARK                         _______ _______ _______ _____ _____    ______ ____
ROOT
ATOM      1  C   UNL     1       1.510   8.756  19.712  0.00  0.00    +0.000 A 
ATOM      2  C   UNL     1       1.876   8.977  18.393  0.00  0.00    +0.000 A 
ATOM      3  N   UNL     1       2.607   8.079  17.693  0.00  0.00    +0.000 NA
ATOM      4  C   UNL     1       2.927   6.950  18.376  0.00  0.00    +0.000 A 
ATOM      5  C   UNL     1       2.536   6.688  19.696  0.00  0.00    +0.000 A 
ATOM      6  N   UNL     1       1.812   7.600  20.377  0.00  0.00    +0.000 NA
ENDROOT
BRANCH   1   7
ATOM      7  C   UNL     1       0.784   9.843  20.428  0.00  0.00    +0.000 C 
ATOM      8  O   UNL     1       0.825   9.873  21.652  0.00  0.00    +0.000 OA
BRANCH   7  11
ATOM      9  N   UNL     1      -1.614  11.673  18.337  0.00  0.00    +0.000 N 
ATOM     10  C   UNL     1      -1.159  10.517  18.931  0.00  0.00    +0.000 A 
ATOM     11  C   UNL     1      -0.011  10.798  19.653  0.00  0.00    +0.000 A 
ATOM     12  C   UNL     1       0.195  12.215  19.541  0.00  0.00    +0.000 A 
ATOM     13  C   UNL     1       1.133  13.146  20.027  0.00  0.00    +0.000 A 
ATOM     14  N   UNL     1       2.212  12.810  20.823  0.00  0.00    +0.000 N 
ATOM     15  N   UNL     1       1.005  14.442  19.679  0.00  0.00    +0.000 NA
ATOM     16  C   UNL     1      -0.006  14.788  18.863  0.00  0.00    +0.000 A 
ATOM     17  N   UNL     1      -0.959  13.999  18.343  0.00  0.00    +0.000 NA
ATOM     18  C   UNL     1      -0.807  12.718  18.714  0.00  0.00    +0.000 A 
ATOM     19  H   UNL     1       2.148  11.929  21.331  0.00  0.00    +0.000 HD
ATOM     20  H   UNL     1       2.655  13.595  21.279  0.00  0.00    +0.000 HD
BRANCH   9  22
ATOM     21  C   UNL     1      -2.659  10.822  16.274  0.00  0.00    +0.000 C 
ATOM     22  C   UNL     1      -2.812  11.719  17.501  0.00  0.00    +0.000 C 
ATOM     23  C   UNL     1      -4.126  11.441  18.234  0.00  0.00    +0.000 C 
ENDBRANCH   9  22
ENDBRANCH   7  11
ENDBRANCH   1   7
BRANCH   5  24
ATOM     24  N   UNL     1       2.913   5.483  20.288  0.00  0.00    +0.000 N 
ATOM     25  H   UNL     1       3.145   5.578  21.274  0.00  0.00    +0.000 HD
BRANCH  24  26
ATOM     26  C   UNL     1       2.182   4.260  19.929  0.00  0.00    +0.000 C 
ATOM     27  C   UNL     1       1.663   3.524  21.147  0.00  0.00    +0.000 C 
ATOM     28  C   UNL     1       2.726   2.491  21.465  0.00  0.00    +0.000 C 
ATOM     29  O   UNL     1       3.599   2.373  20.343  0.00  0.00    +0.000 OA
ATOM     30  C   UNL     1       3.091   3.188  19.268  0.00  0.00    +0.000 C 
BRANCH  30  31
ATOM     31  C   UNL     1       4.221   3.652  18.361  0.00  0.00    +0.000 A 
ATOM     32  C   UNL     1       4.072   3.692  16.961  0.00  0.00    +0.000 A 
ATOM     33  C   UNL     1       5.098   4.169  16.140  0.00  0.00    +0.000 A 
ATOM     34  C   UNL     1       6.277   4.622  16.713  0.00  0.00    +0.000 A 
ATOM     35  F   UNL     1       7.259   5.084  15.929  0.00  0.00    +0.000 F 
ATOM     36  C   UNL     1       6.447   4.609  18.091  0.00  0.00    +0.000 A 
ATOM     37  C   UNL     1       5.422   4.131  18.913  0.00  0.00    +0.000 A 
ENDBRANCH  30  31
ENDBRANCH  24  26
ENDBRANCH   5  24
TORSDOF 6
ENDMDL
MODEL 9
REMARK VINA RESULT:      -9.1      3.162      9.522
REMARK  Name = 
REMARK  8 active torsions:
REMARK  status: ('A' for Active; 'I' for Inactive)
REMARK    1  A    between atoms: C_1  and  C_2
REMARK    2  A    between atoms: C_2  and  C_3
REMARK    3  A    between atoms: C_2  and  N_4
REMARK    4  A    between atoms: C_6  and  C_7
REMARK    5  A    between atoms: C_7  and  C_9
REMARK    6  A    between atoms: C_13  and  N_14
REMARK    7  A    between atoms: N_14  and  C_15
REMARK    8  A    between atoms: C_19  and  C_20
REMARK                            x       y       z     vdW  Elec       q    Type
REMARK                         _______ _______ _______ _____ _____    ______ ____
ROOT
ATOM      1  C   UNL     1       1.960   7.764  19.436  0.00  0.00    +0.000 A 
ATOM      2  C   UNL     1       2.357   7.944  18.120  0.00  0.00    +0.000 A 
ATOM      3  N   UNL     1       2.126   9.099  17.454  0.00  0.00    +0.000 NA
ATOM      4  C   UNL     1       1.499  10.059  18.181  0.00  0.00    +0.000 A 
ATOM      5  C   UNL     1       1.122   9.914  19.523  0.00  0.00    +0.000 A 
ATOM      6  N   UNL     1       1.358   8.752  20.166  0.00  0.00    +0.000 NA
ENDROOT
BRANCH   1   7
ATOM      7  C   UNL     1       2.176   6.426  20.055  0.00  0.00    +0.000 C 
ATOM      8  O   UNL     1       1.640   6.178  21.128  0.00  0.00    +0.000 OA
BRANCH   7  11
ATOM      9  N   UNL     1       4.879   4.598  18.374  0.00  0.00    +0.000 N 
ATOM     10  C   UNL     1       4.353   5.743  18.929  0.00  0.00    +0.000 A 
ATOM     11  C   UNL     1       3.077   5.477  19.399  0.00  0.00    +0.000 A 
ATOM     12  C   UNL     1       2.854   4.075  19.175  0.00  0.00    +0.000 A 
ATOM     13  C   UNL     1       1.810   3.162  19.419  0.00  0.00    +0.000 A 
ATOM     14  N   UNL     1       0.608   3.505  20.007  0.00  0.00    +0.000 N 
ATOM     15  N   UNL     1       1.964   1.879  19.034  0.00  0.00    +0.000 NA
ATOM     16  C   UNL     1       3.104   1.531  18.413  0.00  0.00    +0.000 A 
ATOM     17  N   UNL     1       4.164   2.303  18.129  0.00  0.00    +0.000 NA
ATOM     18  C   UNL     1       3.982   3.571  18.532  0.00  0.00    +0.000 A 
ATOM     19  H   UNL     1       0.598   4.358  20.564  0.00  0.00    +0.000 HD
ATOM     20  H   UNL     1       0.060   2.718  20.327  0.00  0.00    +0.000 HD
BRANCH   9  22
ATOM     21  C   UNL     1       6.156   4.735  16.271  0.00  0.00    +0.000 C 
ATOM     22  C   UNL     1       6.216   4.542  17.785  0.00  0.00    +0.000 C 
ATOM     23  C   UNL     1       7.247   5.473  18.426  0.00  0.00    +0.000 C 
ENDBRANCH   9  22
ENDBRANCH   7  11
ENDBRANCH   1   7
BRANCH   5  24
ATOM     24  N   UNL     1       0.497  10.979  20.170  0.00  0.00    +0.000 N 
ATOM     25  H   UNL     1       0.446  10.858  21.179  0.00  0.00    +0.000 HD
BRANCH  24  26
ATOM     26  C   UNL     1       0.779  12.346  19.714  0.00  0.00    +0.000 C 
ATOM     27  C   UNL     1       1.537  13.152  20.750  0.00  0.00    +0.000 C 
ATOM     28  C   UNL     1       0.470  13.901  21.523  0.00  0.00    +0.000 C 
ATOM     29  O   UNL     1      -0.752  13.843  20.790  0.00  0.00    +0.000 OA
ATOM     30  C   UNL     1      -0.508  13.195  19.525  0.00  0.00    +0.000 C 
BRANCH  30  31
ATOM     31  C   UNL     1      -1.766  12.505  19.020  0.00  0.00    +0.000 A 
ATOM     32  C   UNL     1      -2.969  12.539  19.752  0.00  0.00    +0.000 A 
ATOM     33  C   UNL     1      -4.133  11.945  19.253  0.00  0.00    +0.000 A 
ATOM     34  C   UNL     1      -4.107  11.324  18.014  0.00  0.00    +0.000 A 
ATOM     35  F   UNL     1      -5.221  10.760  17.533  0.00  0.00    +0.000 F 
ATOM     36  C   UNL     1      -2.939  11.288  17.262  0.00  0.00    +0.000 A 
ATOM     37  C   UNL     1      -1.774  11.880  17.760  0.00  0.00    +0.000 A 
ENDBRANCH  30  31
ENDBRANCH  24  26
ENDBRANCH   5  24
TORSDOF 6
ENDMDL
