MODEL 1
REMARK VINA RESULT:      -7.8      0.000      0.000
REMARK  Name = 
REMARK  7 active torsions:
REMARK  status: ('A' for Active; 'I' for Inactive)
REMARK    1  A    between atoms: C_1  and  C_2
REMARK    2  A    between atoms: C_2  and  C_3
REMARK    3  A    between atoms: C_2  and  C_4
REMARK    4  A    between atoms: C_4  and  S_5
REMARK    5  A    between atoms: S_5  and  C_6
REMARK    6  A    between atoms: C_11  and  S_12
REMARK    7  A    between atoms: S_12  and  N_13
REMARK                            x       y       z     vdW  Elec       q    Type
REMARK                         _______ _______ _______ _____ _____    ______ ____
ROOT
ATOM      1  C   UNL     1       5.158   4.785  16.864  0.00  0.00    +0.000 A 
ATOM      2  C   UNL     1       3.852   4.262  16.741  0.00  0.00    +0.000 A 
ATOM      3  C   UNL     1       3.161   3.706  17.828  0.00  0.00    +0.000 A 
ATOM      4  C   UNL     1       3.799   3.749  19.065  0.00  0.00    +0.000 A 
ATOM      5  C   UNL     1       5.099   4.244  19.226  0.00  0.00    +0.000 A 
ATOM      6  C   UNL     1       5.788   4.746  18.115  0.00  0.00    +0.000 A 
ATOM      7  S   UNL     1       2.926   3.103  20.440  0.00  0.00    +0.000 S 
ATOM      8  O   UNL     1       3.855   2.441  21.327  0.00  0.00    +0.000 OA
ATOM      9  O   UNL     1       2.017   4.122  20.918  0.00  0.00    +0.000 OA
ATOM     10  N   UNL     1       2.013   1.909  19.714  0.00  0.00    +0.000 NA
ATOM     11  C   UNL     1       1.191   2.417  18.643  0.00  0.00    +0.000 C 
ATOM     12  N   UNL     1       1.993   2.994  17.590  0.00  0.00    +0.000 N 
ATOM     13  H   UNL     1       1.521   1.357  20.414  0.00  0.00    +0.000 HD
ATOM     14  H   UNL     1       1.473   3.255  16.759  0.00  0.00    +0.000 HD
ENDROOT
BRANCH   6  15
ATOM     15  S   UNL     1       7.480   5.249  18.347  0.00  0.00    +0.000 S 
ATOM     16  O   UNL     1       8.331   4.182  17.865  0.00  0.00    +0.000 OA
ATOM     17  O   UNL     1       7.635   6.601  17.873  0.00  0.00    +0.000 OA
BRANCH  15  18
ATOM     18  N   UNL     1       7.656   5.258  19.999  0.00  0.00    +0.000 NA
ATOM     19  H   UNL     1       6.881   4.897  20.544  0.00  0.00    +0.000 HD
ATOM     20  H   UNL     1       8.280   5.968  20.376  0.00  0.00    +0.000 HD
ENDBRANCH  15  18
ENDBRANCH   6  15
BRANCH   1  21
ATOM     21  S   UNL     1       5.868   5.487  15.386  0.00  0.00    +0.000 S 
BRANCH  21  22
ATOM     22  C   UNL     1       6.229   3.946  14.458  0.00  0.00    +0.000 C 
BRANCH  22  24
ATOM     23  C   UNL     1       7.570   4.778  12.501  0.00  0.00    +0.000 C 
ATOM     24  C   UNL     1       6.226   4.193  12.941  0.00  0.00    +0.000 C 
ATOM     25  C   UNL     1       5.942   2.922  12.138  0.00  0.00    +0.000 C 
ENDBRANCH  22  24
ENDBRANCH  21  22
ENDBRANCH   1  21
TORSDOF 5
ENDMDL
MODEL 2
REMARK VINA RESULT:      -7.5      1.048      1.394
REMARK  Name = 
REMARK  7 active torsions:
REMARK  status: ('A' for Active; 'I' for Inactive)
REMARK    1  A    between atoms: C_1  and  C_2
REMARK    2  A    between atoms: C_2  and  C_3
REMARK    3  A    between atoms: C_2  and  C_4
REMARK    4  A    between atoms: C_4  and  S_5
REMARK    5  A    between atoms: S_5  and  C_6
REMARK    6  A    between atoms: C_11  and  S_12
REMARK    7  A    between atoms: S_12  and  N_13
REMARK                            x       y       z     vdW  Elec       q    Type
REMARK                         _______ _______ _______ _____ _____    ______ ____
ROOT
ATOM      1  C   UNL     1       5.474   4.287  16.891  0.00  0.00    +0.000 A 
ATOM      2  C   UNL     1       4.212   3.696  16.658  0.00  0.00    +0.000 A 
ATOM      3  C   UNL     1       3.265   3.524  17.679  0.00  0.00    +0.000 A 
ATOM      4  C   UNL     1       3.598   4.025  18.935  0.00  0.00    +0.000 A 
ATOM      5  C   UNL     1       4.842   4.603  19.210  0.00  0.00    +0.000 A 
ATOM      6  C   UNL     1       5.792   4.716  18.187  0.00  0.00    +0.000 A 
ATOM      7  S   UNL     1       2.402   3.861  20.205  0.00  0.00    +0.000 S 
ATOM      8  O   UNL     1       3.070   3.593  21.458  0.00  0.00    +0.000 OA
ATOM      9  O   UNL     1       1.449   4.941  20.071  0.00  0.00    +0.000 OA
ATOM     10  N   UNL     1       1.636   2.449  19.751  0.00  0.00    +0.000 NA
ATOM     11  C   UNL     1       1.108   2.514  18.411  0.00  0.00    +0.000 C 
ATOM     12  N   UNL     1       2.157   2.722  17.440  0.00  0.00    +0.000 N 
ATOM     13  H   UNL     1       0.973   2.155  20.465  0.00  0.00    +0.000 HD
ATOM     14  H   UNL     1       1.856   2.653  16.473  0.00  0.00    +0.000 HD
ENDROOT
BRANCH   6  15
ATOM     15  S   UNL     1       7.402   5.343  18.615  0.00  0.00    +0.000 S 
ATOM     16  O   UNL     1       7.636   6.537  17.831  0.00  0.00    +0.000 OA
ATOM     17  O   UNL     1       7.535   5.351  20.049  0.00  0.00    +0.000 OA
BRANCH  15  18
ATOM     18  N   UNL     1       8.437   4.193  18.007  0.00  0.00    +0.000 NA
ATOM     19  H   UNL     1       8.711   3.446  18.635  0.00  0.00    +0.000 HD
ATOM     20  H   UNL     1       9.049   4.500  17.255  0.00  0.00    +0.000 HD
ENDBRANCH  15  18
ENDBRANCH   6  15
BRANCH   1  21
ATOM     21  S   UNL     1       6.537   4.459  15.469  0.00  0.00    +0.000 S 
BRANCH  21  22
ATOM     22  C   UNL     1       5.309   4.189  14.134  0.00  0.00    +0.000 C 
BRANCH  22  24
ATOM     23  C   UNL     1       4.896   3.265  11.832  0.00  0.00    +0.000 C 
ATOM     24  C   UNL     1       5.949   3.503  12.916  0.00  0.00    +0.000 C 
ATOM     25  C   UNL     1       7.106   4.313  12.326  0.00  0.00    +0.000 C 
ENDBRANCH  22  24
ENDBRANCH  21  22
ENDBRANCH   1  21
TORSDOF 5
ENDMDL
MODEL 3
REMARK VINA RESULT:      -7.3      1.165      1.478
REMARK  Name = 
REMARK  7 active torsions:
REMARK  status: ('A' for Active; 'I' for Inactive)
REMARK    1  A    between atoms: C_1  and  C_2
REMARK    2  A    between atoms: C_2  and  C_3
REMARK    3  A    between atoms: C_2  and  C_4
REMARK    4  A    between atoms: C_4  and  S_5
REMARK    5  A    between atoms: S_5  and  C_6
REMARK    6  A    between atoms: C_11  and  S_12
REMARK    7  A    between atoms: S_12  and  N_13
REMARK                            x       y       z     vdW  Elec       q    Type
REMARK                         _______ _______ _______ _____ _____    ______ ____
ROOT
ATOM      1  C   UNL     1       4.782   5.788  17.722  0.00  0.00    +0.000 A 
ATOM      2  C   UNL     1       3.418   5.424  17.687  0.00  0.00    +0.000 A 
ATOM      3  C   UNL     1       2.854   4.537  18.617  0.00  0.00    +0.000 A 
ATOM      4  C   UNL     1       3.691   4.074  19.629  0.00  0.00    +0.000 A 
ATOM      5  C   UNL     1       5.051   4.399  19.690  0.00  0.00    +0.000 A 
ATOM      6  C   UNL     1       5.603   5.245  18.720  0.00  0.00    +0.000 A 
ATOM      7  S   UNL     1       2.986   3.005  20.825  0.00  0.00    +0.000 S 
ATOM      8  O   UNL     1       3.959   2.007  21.207  0.00  0.00    +0.000 OA
ATOM      9  O   UNL     1       2.308   3.817  21.812  0.00  0.00    +0.000 OA
ATOM     10  N   UNL     1       1.820   2.227  19.920  0.00  0.00    +0.000 NA
ATOM     11  C   UNL     1       0.901   3.146  19.295  0.00  0.00    +0.000 C 
ATOM     12  N   UNL     1       1.582   4.033  18.381  0.00  0.00    +0.000 N 
ATOM     13  H   UNL     1       1.387   1.480  20.458  0.00  0.00    +0.000 HD
ATOM     14  H   UNL     1       0.967   4.618  17.824  0.00  0.00    +0.000 HD
ENDROOT
BRANCH   6  15
ATOM     15  S   UNL     1       7.360   5.528  18.768  0.00  0.00    +0.000 S 
ATOM     16  O   UNL     1       8.009   4.404  18.129  0.00  0.00    +0.000 OA
ATOM     17  O   UNL     1       7.626   6.881  18.352  0.00  0.00    +0.000 OA
BRANCH  15  18
ATOM     18  N   UNL     1       7.725   5.403  20.384  0.00  0.00    +0.000 NA
ATOM     19  H   UNL     1       8.408   4.701  20.646  0.00  0.00    +0.000 HD
ATOM     20  H   UNL     1       6.994   5.693  21.029  0.00  0.00    +0.000 HD
ENDBRANCH  15  18
ENDBRANCH   6  15
BRANCH   1  21
ATOM     21  S   UNL     1       5.317   6.956  16.485  0.00  0.00    +0.000 S 
BRANCH  21  22
ATOM     22  C   UNL     1       5.298   5.868  15.008  0.00  0.00    +0.000 C 
BRANCH  22  24
ATOM     23  C   UNL     1       6.028   3.488  15.359  0.00  0.00    +0.000 C 
ATOM     24  C   UNL     1       6.494   4.903  15.009  0.00  0.00    +0.000 C 
ATOM     25  C   UNL     1       7.229   4.875  13.667  0.00  0.00    +0.000 C 
ENDBRANCH  22  24
ENDBRANCH  21  22
ENDBRANCH   1  21
TORSDOF 5
ENDMDL
MODEL 4
REMARK VINA RESULT:      -7.0      4.111      5.748
REMARK  Name = 
REMARK  7 active torsions:
REMARK  status: ('A' for Active; 'I' for Inactive)
REMARK    1  A    between atoms: C_1  and  C_2
REMARK    2  A    between atoms: C_2  and  C_3
REMARK    3  A    between atoms: C_2  and  C_4
REMARK    4  A    between atoms: C_4  and  S_5
REMARK    5  A    between atoms: S_5  and  C_6
REMARK    6  A    between atoms: C_11  and  S_12
REMARK    7  A    between atoms: S_12  and  N_13
REMARK                            x       y       z     vdW  Elec       q    Type
REMARK                         _______ _______ _______ _____ _____    ______ ____
ROOT
ATOM      1  C   UNL     1       3.790   5.370  18.928  0.00  0.00    +0.000 A 
ATOM      2  C   UNL     1       2.884   5.881  19.883  0.00  0.00    +0.000 A 
ATOM      3  C   UNL     1       2.231   7.111  19.715  0.00  0.00    +0.000 A 
ATOM      4  C   UNL     1       2.468   7.789  18.521  0.00  0.00    +0.000 A 
ATOM      5  C   UNL     1       3.370   7.324  17.557  0.00  0.00    +0.000 A 
ATOM      6  C   UNL     1       4.049   6.118  17.772  0.00  0.00    +0.000 A 
ATOM      7  S   UNL     1       1.619   9.302  18.277  0.00  0.00    +0.000 S 
ATOM      8  O   UNL     1       2.484  10.227  17.580  0.00  0.00    +0.000 OA
ATOM      9  O   UNL     1       0.288   9.002  17.797  0.00  0.00    +0.000 OA
ATOM     10  N   UNL     1       1.481   9.854  19.846  0.00  0.00    +0.000 NA
ATOM     11  C   UNL     1       0.818   8.907  20.708  0.00  0.00    +0.000 C 
ATOM     12  N   UNL     1       1.551   7.666  20.791  0.00  0.00    +0.000 N 
ATOM     13  H   UNL     1       1.098  10.797  19.863  0.00  0.00    +0.000 HD
ATOM     14  H   UNL     1       1.195   7.010  21.479  0.00  0.00    +0.000 HD
ENDROOT
BRANCH   6  15
ATOM     15  S   UNL     1       5.276   5.632  16.577  0.00  0.00    +0.000 S 
ATOM     16  O   UNL     1       6.577   5.765  17.197  0.00  0.00    +0.000 OA
ATOM     17  O   UNL     1       4.864   4.398  15.959  0.00  0.00    +0.000 OA
BRANCH  15  18
ATOM     18  N   UNL     1       5.195   6.834  15.432  0.00  0.00    +0.000 NA
ATOM     19  H   UNL     1       5.062   6.543  14.470  0.00  0.00    +0.000 HD
ATOM     20  H   UNL     1       5.687   7.697  15.658  0.00  0.00    +0.000 HD
ENDBRANCH  15  18
ENDBRANCH   6  15
BRANCH   1  21
ATOM     21  S   UNL     1       4.498   3.773  19.290  0.00  0.00    +0.000 S 
BRANCH  21  22
ATOM     22  C   UNL     1       3.085   3.004  20.171  0.00  0.00    +0.000 C 
BRANCH  22  24
ATOM     23  C   UNL     1       0.813   2.741  19.126  0.00  0.00    +0.000 C 
ATOM     24  C   UNL     1       2.225   2.158  19.218  0.00  0.00    +0.000 C 
ATOM     25  C   UNL     1       2.824   2.065  17.813  0.00  0.00    +0.000 C 
ENDBRANCH  22  24
ENDBRANCH  21  22
ENDBRANCH   1  21
TORSDOF 5
ENDMDL
MODEL 5
REMARK VINA RESULT:      -6.7      4.245      6.000
REMARK  Name = 
REMARK  7 active torsions:
REMARK  status: ('A' for Active; 'I' for Inactive)
REMARK    1  A    between atoms: C_1  and  C_2
REMARK    2  A    between atoms: C_2  and  C_3
REMARK    3  A    between atoms: C_2  and  C_4
REMARK    4  A    between atoms: C_4  and  S_5
REMARK    5  A    between atoms: S_5  and  C_6
REMARK    6  A    between atoms: C_11  and  S_12
REMARK    7  A    between atoms: S_12  and  N_13
REMARK                            x       y       z     vdW  Elec       q    Type
REMARK                         _______ _______ _______ _____ _____    ______ ____
ROOT
ATOM      1  C   UNL     1       3.646   5.628  18.862  0.00  0.00    +0.000 A 
ATOM      2  C   UNL     1       2.762   6.139  19.837  0.00  0.00    +0.000 A 
ATOM      3  C   UNL     1       2.123   7.380  19.695  0.00  0.00    +0.000 A 
ATOM      4  C   UNL     1       2.349   8.069  18.506  0.00  0.00    +0.000 A 
ATOM      5  C   UNL     1       3.230   7.605  17.522  0.00  0.00    +0.000 A 
ATOM      6  C   UNL     1       3.896   6.387  17.711  0.00  0.00    +0.000 A 
ATOM      7  S   UNL     1       1.518   9.596  18.295  0.00  0.00    +0.000 S 
ATOM      8  O   UNL     1       2.384  10.519  17.596  0.00  0.00    +0.000 OA
ATOM      9  O   UNL     1       0.175   9.320  17.832  0.00  0.00    +0.000 OA
ATOM     10  N   UNL     1       1.412  10.130  19.873  0.00  0.00    +0.000 NA
ATOM     11  C   UNL     1       0.750   9.181  20.733  0.00  0.00    +0.000 C 
ATOM     12  N   UNL     1       1.468   7.929  20.789  0.00  0.00    +0.000 N 
ATOM     13  H   UNL     1       1.042  11.078  19.907  0.00  0.00    +0.000 HD
ATOM     14  H   UNL     1       1.113   7.270  21.474  0.00  0.00    +0.000 HD
ENDROOT
BRANCH   6  15
ATOM     15  S   UNL     1       5.097   5.901  16.491  0.00  0.00    +0.000 S 
ATOM     16  O   UNL     1       4.872   4.506  16.176  0.00  0.00    +0.000 OA
ATOM     17  O   UNL     1       5.146   6.902  15.457  0.00  0.00    +0.000 OA
BRANCH  15  18
ATOM     18  N   UNL     1       6.534   5.950  17.324  0.00  0.00    +0.000 NA
ATOM     19  H   UNL     1       6.528   6.425  18.220  0.00  0.00    +0.000 HD
ATOM     20  H   UNL     1       7.378   5.906  16.758  0.00  0.00    +0.000 HD
ENDBRANCH  15  18
ENDBRANCH   6  15
BRANCH   1  21
ATOM     21  S   UNL     1       4.337   4.017  19.192  0.00  0.00    +0.000 S 
BRANCH  21  22
ATOM     22  C   UNL     1       2.949   2.964  18.620  0.00  0.00    +0.000 C 
BRANCH  22  24
ATOM     23  C   UNL     1       2.863   2.692  21.118  0.00  0.00    +0.000 C 
ATOM     24  C   UNL     1       2.121   2.439  19.803  0.00  0.00    +0.000 C 
ATOM     25  C   UNL     1       0.732   3.076  19.878  0.00  0.00    +0.000 C 
ENDBRANCH  22  24
ENDBRANCH  21  22
ENDBRANCH   1  21
TORSDOF 5
ENDMDL
MODEL 6
REMARK VINA RESULT:      -6.7      4.082      5.568
REMARK  Name = 
REMARK  7 active torsions:
REMARK  status: ('A' for Active; 'I' for Inactive)
REMARK    1  A    between atoms: C_1  and  C_2
REMARK    2  A    between atoms: C_2  and  C_3
REMARK    3  A    between atoms: C_2  and  C_4
REMARK    4  A    between atoms: C_4  and  S_5
REMARK    5  A    between atoms: S_5  and  C_6
REMARK    6  A    between atoms: C_11  and  S_12
REMARK    7  A    between atoms: S_12  and  N_13
REMARK                            x       y       z     vdW  Elec       q    Type
REMARK                         _______ _______ _______ _____ _____    ______ ____
ROOT
ATOM      1  C   UNL     1       3.051   5.850  18.625  0.00  0.00    +0.000 A 
ATOM      2  C   UNL     1       2.857   7.209  18.293  0.00  0.00    +0.000 A 
ATOM      3  C   UNL     1       2.091   8.074  19.089  0.00  0.00    +0.000 A 
ATOM      4  C   UNL     1       1.576   7.547  20.272  0.00  0.00    +0.000 A 
ATOM      5  C   UNL     1       1.733   6.202  20.629  0.00  0.00    +0.000 A 
ATOM      6  C   UNL     1       2.458   5.346  19.790  0.00  0.00    +0.000 A 
ATOM      7  S   UNL     1       0.660   8.631  21.299  0.00  0.00    +0.000 S 
ATOM      8  O   UNL     1      -0.432   7.904  21.906  0.00  0.00    +0.000 OA
ATOM      9  O   UNL     1       1.595   9.396  22.095  0.00  0.00    +0.000 OA
ATOM     10  N   UNL     1      -0.010   9.661  20.170  0.00  0.00    +0.000 NA
ATOM     11  C   UNL     1       0.986  10.292  19.340  0.00  0.00    +0.000 C 
ATOM     12  N   UNL     1       1.739   9.318  18.585  0.00  0.00    +0.000 N 
ATOM     13  H   UNL     1      -0.671  10.296  20.612  0.00  0.00    +0.000 HD
ATOM     14  H   UNL     1       2.368   9.714  17.894  0.00  0.00    +0.000 HD
ENDROOT
BRANCH   6  15
ATOM     15  S   UNL     1       2.524   3.621  20.224  0.00  0.00    +0.000 S 
ATOM     16  O   UNL     1       1.436   2.950  19.547  0.00  0.00    +0.000 OA
ATOM     17  O   UNL     1       3.883   3.159  20.098  0.00  0.00    +0.000 OA
BRANCH  15  18
ATOM     18  N   UNL     1       2.126   3.614  21.837  0.00  0.00    +0.000 NA
ATOM     19  H   UNL     1       1.377   2.992  22.122  0.00  0.00    +0.000 HD
ATOM     20  H   UNL     1       2.317   4.474  22.346  0.00  0.00    +0.000 HD
ENDBRANCH  15  18
ENDBRANCH   6  15
BRANCH   1  21
ATOM     21  S   UNL     1       4.085   4.909  17.518  0.00  0.00    +0.000 S 
BRANCH  21  22
ATOM     22  C   UNL     1       5.263   6.220  17.009  0.00  0.00    +0.000 C 
BRANCH  22  24
ATOM     23  C   UNL     1       7.304   4.826  17.470  0.00  0.00    +0.000 C 
ATOM     24  C   UNL     1       6.576   6.130  17.803  0.00  0.00    +0.000 C 
ATOM     25  C   UNL     1       7.509   7.312  17.532  0.00  0.00    +0.000 C 
ENDBRANCH  22  24
ENDBRANCH  21  22
ENDBRANCH   1  21
TORSDOF 5
ENDMDL
MODEL 7
REMARK VINA RESULT:      -6.6      4.683      5.717
REMARK  Name = 
REMARK  7 active torsions:
REMARK  status: ('A' for Active; 'I' for Inactive)
REMARK    1  A    between atoms: C_1  and  C_2
REMARK    2  A    between atoms: C_2  and  C_3
REMARK    3  A    between atoms: C_2  and  C_4
REMARK    4  A    between atoms: C_4  and  S_5
REMARK    5  A    between atoms: S_5  and  C_6
REMARK    6  A    between atoms: C_11  and  S_12
REMARK    7  A    between atoms: S_12  and  N_13
REMARK                            x       y       z     vdW  Elec       q    Type
REMARK                         _______ _______ _______ _____ _____    ______ ____
ROOT
ATOM      1  C   UNL     1       3.202   7.127  18.066  0.00  0.00    +0.000 A 
ATOM      2  C   UNL     1       2.686   8.388  17.697  0.00  0.00    +0.000 A 
ATOM      3  C   UNL     1       1.795   9.102  18.513  0.00  0.00    +0.000 A 
ATOM      4  C   UNL     1       1.488   8.538  19.749  0.00  0.00    +0.000 A 
ATOM      5  C   UNL     1       1.966   7.284  20.145  0.00  0.00    +0.000 A 
ATOM      6  C   UNL     1       2.812   6.566  19.290  0.00  0.00    +0.000 A 
ATOM      7  S   UNL     1       0.416   9.444  20.798  0.00  0.00    +0.000 S 
ATOM      8  O   UNL     1      -0.443   8.526  21.511  0.00  0.00    +0.000 OA
ATOM      9  O   UNL     1       1.201  10.441  21.494  0.00  0.00    +0.000 OA
ATOM     10  N   UNL     1      -0.538  10.237  19.683  0.00  0.00    +0.000 NA
ATOM     11  C   UNL     1       0.235  11.029  18.758  0.00  0.00    +0.000 C 
ATOM     12  N   UNL     1       1.140  10.208  17.989  0.00  0.00    +0.000 N 
ATOM     13  H   UNL     1      -1.298  10.732  20.147  0.00  0.00    +0.000 HD
ATOM     14  H   UNL     1       1.619  10.696  17.239  0.00  0.00    +0.000 HD
ENDROOT
BRANCH   6  15
ATOM     15  S   UNL     1       3.294   4.926  19.784  0.00  0.00    +0.000 S 
ATOM     16  O   UNL     1       2.639   3.985  18.899  0.00  0.00    +0.000 OA
ATOM     17  O   UNL     1       4.720   4.897  19.983  0.00  0.00    +0.000 OA
BRANCH  15  18
ATOM     18  N   UNL     1       2.562   4.739  21.264  0.00  0.00    +0.000 NA
ATOM     19  H   UNL     1       2.329   5.586  21.770  0.00  0.00    +0.000 HD
ATOM     20  H   UNL     1       2.768   3.872  21.756  0.00  0.00    +0.000 HD
ENDBRANCH  15  18
ENDBRANCH   6  15
BRANCH   1  21
ATOM     21  S   UNL     1       4.351   6.382  16.923  0.00  0.00    +0.000 S 
BRANCH  21  22
ATOM     22  C   UNL     1       5.898   7.207  17.461  0.00  0.00    +0.000 C 
BRANCH  22  24
ATOM     23  C   UNL     1       7.806   6.195  18.748  0.00  0.00    +0.000 C 
ATOM     24  C   UNL     1       7.096   6.248  17.393  0.00  0.00    +0.000 C 
ATOM     25  C   UNL     1       6.693   4.831  16.981  0.00  0.00    +0.000 C 
ENDBRANCH  22  24
ENDBRANCH  21  22
ENDBRANCH   1  21
TORSDOF 5
ENDMDL
MODEL 8
REMARK VINA RESULT:      -6.6      3.508      5.023
REMARK  Name = 
REMARK  7 active torsions:
REMARK  status: ('A' for Active; 'I' for Inactive)
REMARK    1  A    between atoms: C_1  and  C_2
REMARK    2  A    between atoms: C_2  and  C_3
REMARK    3  A    between atoms: C_2  and  C_4
REMARK    4  A    between atoms: C_4  and  S_5
REMARK    5  A    between atoms: S_5  and  C_6
REMARK    6  A    between atoms: C_11  and  S_12
REMARK    7  A    between atoms: S_12  and  N_13
REMARK                            x       y       z     vdW  Elec       q    Type
REMARK                         _______ _______ _______ _____ _____    ______ ____
ROOT
ATOM      1  C   UNL     1       3.385   6.557  17.910  0.00  0.00    +0.000 A 
ATOM      2  C   UNL     1       2.347   5.975  18.671  0.00  0.00    +0.000 A 
ATOM      3  C   UNL     1       2.318   4.607  18.977  0.00  0.00    +0.000 A 
ATOM      4  C   UNL     1       3.404   3.845  18.551  0.00  0.00    +0.000 A 
ATOM      5  C   UNL     1       4.445   4.381  17.783  0.00  0.00    +0.000 A 
ATOM      6  C   UNL     1       4.424   5.740  17.445  0.00  0.00    +0.000 A 
ATOM      7  S   UNL     1       3.404   2.145  18.972  0.00  0.00    +0.000 S 
ATOM      8  O   UNL     1       3.974   1.383  17.884  0.00  0.00    +0.000 OA
ATOM      9  O   UNL     1       3.896   2.014  20.327  0.00  0.00    +0.000 OA
ATOM     10  N   UNL     1       1.768   1.814  18.991  0.00  0.00    +0.000 NA
ATOM     11  C   UNL     1       1.042   2.673  19.894  0.00  0.00    +0.000 C 
ATOM     12  N   UNL     1       1.159   4.060  19.510  0.00  0.00    +0.000 N 
ATOM     13  H   UNL     1       1.605   0.817  19.117  0.00  0.00    +0.000 HD
ATOM     14  H   UNL     1       0.568   4.695  20.038  0.00  0.00    +0.000 HD
ENDROOT
BRANCH   6  15
ATOM     15  S   UNL     1       5.703   6.345  16.364  0.00  0.00    +0.000 S 
ATOM     16  O   UNL     1       5.084   6.718  15.110  0.00  0.00    +0.000 OA
ATOM     17  O   UNL     1       6.532   7.269  17.094  0.00  0.00    +0.000 OA
BRANCH  15  18
ATOM     18  N   UNL     1       6.605   4.988  16.038  0.00  0.00    +0.000 NA
ATOM     19  H   UNL     1       7.613   5.085  16.089  0.00  0.00    +0.000 HD
ATOM     20  H   UNL     1       6.173   4.305  15.420  0.00  0.00    +0.000 HD
ENDBRANCH  15  18
ENDBRANCH   6  15
BRANCH   1  21
ATOM     21  S   UNL     1       3.278   8.318  17.649  0.00  0.00    +0.000 S 
BRANCH  21  22
ATOM     22  C   UNL     1       1.465   8.542  17.807  0.00  0.00    +0.000 C 
BRANCH  22  24
ATOM     23  C   UNL     1      -0.206  10.303  18.460  0.00  0.00    +0.000 C 
ATOM     24  C   UNL     1       1.124   9.642  18.826  0.00  0.00    +0.000 C 
ATOM     25  C   UNL     1       1.047   9.112  20.259  0.00  0.00    +0.000 C 
ENDBRANCH  22  24
ENDBRANCH  21  22
ENDBRANCH   1  21
TORSDOF 5
ENDMDL
MODEL 9
REMARK VINA RESULT:      -6.6      4.184      5.782
REMARK  Name = 
REMARK  7 active torsions:
REMARK  status: ('A' for Active; 'I' for Inactive)
REMARK    1  A    between atoms: C_1  and  C_2
REMARK    2  A    between atoms: C_2  and  C_3
REMARK    3  A    between atoms: C_2  and  C_4
REMARK    4  A    between atoms: C_4  and  S_5
REMARK    5  A    between atoms: S_5  and  C_6
REMARK    6  A    between atoms: C_11  and  S_12
REMARK    7  A    between atoms: S_12  and  N_13
REMARK                            x       y       z     vdW  Elec       q    Type
REMARK                         _______ _______ _______ _____ _____    ______ ____
ROOT
ATOM      1  C   UNL     1       2.790   5.813  18.952  0.00  0.00    +0.000 A 
ATOM      2  C   UNL     1       2.673   7.165  18.560  0.00  0.00    +0.000 A 
ATOM      3  C   UNL     1       1.944   8.102  19.307  0.00  0.00    +0.000 A 
ATOM      4  C   UNL     1       1.385   7.654  20.502  0.00  0.00    +0.000 A 
ATOM      5  C   UNL     1       1.466   6.320  20.918  0.00  0.00    +0.000 A 
ATOM      6  C   UNL     1       2.155   5.391  20.128  0.00  0.00    +0.000 A 
ATOM      7  S   UNL     1       0.515   8.827  21.469  0.00  0.00    +0.000 S 
ATOM      8  O   UNL     1      -0.623   8.186  22.089  0.00  0.00    +0.000 OA
ATOM      9  O   UNL     1       1.478   9.576  22.247  0.00  0.00    +0.000 OA
ATOM     10  N   UNL     1      -0.084   9.843  20.288  0.00  0.00    +0.000 NA
ATOM     11  C   UNL     1       0.955  10.384  19.447  0.00  0.00    +0.000 C 
ATOM     12  N   UNL     1       1.665   9.340  18.746  0.00  0.00    +0.000 N 
ATOM     13  H   UNL     1      -0.717  10.530  20.692  0.00  0.00    +0.000 HD
ATOM     14  H   UNL     1       2.323   9.673  18.049  0.00  0.00    +0.000 HD
ENDROOT
BRANCH   6  15
ATOM     15  S   UNL     1       2.124   3.685  20.635  0.00  0.00    +0.000 S 
ATOM     16  O   UNL     1       3.043   2.953  19.789  0.00  0.00    +0.000 OA
ATOM     17  O   UNL     1       2.216   3.622  22.070  0.00  0.00    +0.000 OA
BRANCH  15  18
ATOM     18  N   UNL     1       0.603   3.180  20.193  0.00  0.00    +0.000 NA
ATOM     19  H   UNL     1      -0.148   3.362  20.849  0.00  0.00    +0.000 HD
ATOM     20  H   UNL     1       0.566   2.388  19.555  0.00  0.00    +0.000 HD
ENDBRANCH  15  18
ENDBRANCH   6  15
BRANCH   1  21
ATOM     21  S   UNL     1       3.787   4.772  17.901  0.00  0.00    +0.000 S 
BRANCH  21  22
ATOM     22  C   UNL     1       5.455   5.390  18.351  0.00  0.00    +0.000 C 
BRANCH  22  24
ATOM     23  C   UNL     1       5.241   6.221  15.987  0.00  0.00    +0.000 C 
ATOM     24  C   UNL     1       6.221   5.882  17.113  0.00  0.00    +0.000 C 
ATOM     25  C   UNL     1       7.093   7.105  17.407  0.00  0.00    +0.000 C 
ENDBRANCH  22  24
ENDBRANCH  21  22
ENDBRANCH   1  21
TORSDOF 5
ENDMDL
