MODEL 1
REMARK VINA RESULT:      -5.8      0.000      0.000
REMARK  Name = 
REMARK  5 active torsions:
REMARK  status: ('A' for Active; 'I' for Inactive)
REMARK    1  A    between atoms: C_1  and  C_2
REMARK    2  A    between atoms: C_4  and  O_5
REMARK    3  A    between atoms: C_6  and  O_7
REMARK    4  A    between atoms: C_8  and  O_9
REMARK    5  A    between atoms: C_10  and  O_11
REMARK                            x       y       z     vdW  Elec       q    Type
REMARK                         _______ _______ _______ _____ _____    ______ ____
ROOT
ATOM      1  C   UNL     1       3.716   6.287  17.744  0.00  0.00    +0.000 C 
ATOM      2  C   UNL     1       4.343   4.900  17.798  0.00  0.00    +0.000 C 
ATOM      3  S   UNL     1       5.204   4.524  16.224  0.00  0.00    +0.000 S 
ATOM      4  C   UNL     1       6.675   5.590  16.416  0.00  0.00    +0.000 C 
ATOM      5  C   UNL     1       7.425   5.347  17.741  0.00  0.00    +0.000 C 
ATOM      6  C   UNL     1       6.532   5.588  18.972  0.00  0.00    +0.000 C 
ATOM      7  C   UNL     1       5.285   4.684  18.996  0.00  0.00    +0.000 C 
ENDROOT
BRANCH   4   8
ATOM      8  O   UNL     1       7.559   5.341  15.331  0.00  0.00    +0.000 OA
ATOM      9  H   UNL     1       8.414   5.712  15.622  0.00  0.00    +0.000 HD
ENDBRANCH   4   8
BRANCH   5  10
ATOM     10  O   UNL     1       7.981   4.012  17.747  0.00  0.00    +0.000 OA
ATOM     11  H   UNL     1       8.661   3.994  18.454  0.00  0.00    +0.000 HD
ENDBRANCH   5  10
BRANCH   6  12
ATOM     12  O   UNL     1       7.299   5.336  20.163  0.00  0.00    +0.000 OA
ATOM     13  H   UNL     1       6.814   4.634  20.644  0.00  0.00    +0.000 HD
ENDBRANCH   6  12
BRANCH   7  14
ATOM     14  O   UNL     1       5.737   3.312  19.033  0.00  0.00    +0.000 OA
ATOM     15  H   UNL     1       5.218   2.839  19.711  0.00  0.00    +0.000 HD
ENDBRANCH   7  14
TORSDOF 4
ENDMDL
MODEL 2
REMARK VINA RESULT:      -5.4      3.005      3.813
REMARK  Name = 
REMARK  5 active torsions:
REMARK  status: ('A' for Active; 'I' for Inactive)
REMARK    1  A    between atoms: C_1  and  C_2
REMARK    2  A    between atoms: C_4  and  O_5
REMARK    3  A    between atoms: C_6  and  O_7
REMARK    4  A    between atoms: C_8  and  O_9
REMARK    5  A    between atoms: C_10  and  O_11
REMARK                            x       y       z     vdW  Elec       q    Type
REMARK                         _______ _______ _______ _____ _____    ______ ____
ROOT
ATOM      1  C   UNL     1       1.093   3.851  20.464  0.00  0.00    +0.000 C 
ATOM      2  C   UNL     1       1.493   3.096  19.203  0.00  0.00    +0.000 C 
ATOM      3  S   UNL     1       1.801   4.265  17.825  0.00  0.00    +0.000 S 
ATOM      4  C   UNL     1       3.408   4.950  18.358  0.00  0.00    +0.000 C 
ATOM      5  C   UNL     1       4.461   3.862  18.647  0.00  0.00    +0.000 C 
ATOM      6  C   UNL     1       4.005   2.883  19.745  0.00  0.00    +0.000 C 
ATOM      7  C   UNL     1       2.695   2.152  19.392  0.00  0.00    +0.000 C 
ENDROOT
BRANCH   4   8
ATOM      8  O   UNL     1       3.897   5.807  17.334  0.00  0.00    +0.000 OA
ATOM      9  H   UNL     1       4.717   5.376  17.024  0.00  0.00    +0.000 HD
ENDBRANCH   4   8
BRANCH   5  10
ATOM     10  O   UNL     1       4.788   3.165  17.423  0.00  0.00    +0.000 OA
ATOM     11  H   UNL     1       5.759   3.239  17.308  0.00  0.00    +0.000 HD
ENDBRANCH   5  10
BRANCH   6  12
ATOM     12  O   UNL     1       5.033   1.899  19.951  0.00  0.00    +0.000 OA
ATOM     13  H   UNL     1       4.896   1.562  20.860  0.00  0.00    +0.000 HD
ENDBRANCH   6  12
BRANCH   7  14
ATOM     14  O   UNL     1       2.927   1.394  18.184  0.00  0.00    +0.000 OA
ATOM     15  H   UNL     1       3.585   0.700  18.383  0.00  0.00    +0.000 HD
ENDBRANCH   7  14
TORSDOF 4
ENDMDL
MODEL 3
REMARK VINA RESULT:      -5.3      3.674      5.025
REMARK  Name = 
REMARK  5 active torsions:
REMARK  status: ('A' for Active; 'I' for Inactive)
REMARK    1  A    between atoms: C_1  and  C_2
REMARK    2  A    between atoms: C_4  and  O_5
REMARK    3  A    between atoms: C_6  and  O_7
REMARK    4  A    between atoms: C_8  and  O_9
REMARK    5  A    between atoms: C_10  and  O_11
REMARK                            x       y       z     vdW  Elec       q    Type
REMARK                         _______ _______ _______ _____ _____    ______ ____
ROOT
ATOM      1  C   UNL     1       4.244   5.436  19.223  0.00  0.00    +0.000 C 
ATOM      2  C   UNL     1       3.340   4.818  18.165  0.00  0.00    +0.000 C 
ATOM      3  S   UNL     1       4.090   3.285  17.495  0.00  0.00    +0.000 S 
ATOM      4  C   UNL     1       3.807   2.163  18.908  0.00  0.00    +0.000 C 
ATOM      5  C   UNL     1       2.333   2.123  19.360  0.00  0.00    +0.000 C 
ATOM      6  C   UNL     1       1.812   3.511  19.778  0.00  0.00    +0.000 C 
ATOM      7  C   UNL     1       1.902   4.552  18.646  0.00  0.00    +0.000 C 
ENDROOT
BRANCH   4   8
ATOM      8  O   UNL     1       4.211   0.852  18.533  0.00  0.00    +0.000 OA
ATOM      9  H   UNL     1       4.066   0.312  19.334  0.00  0.00    +0.000 HD
ENDBRANCH   4   8
BRANCH   5  10
ATOM     10  O   UNL     1       1.519   1.549  18.312  0.00  0.00    +0.000 OA
ATOM     11  H   UNL     1       1.392   2.251  17.638  0.00  0.00    +0.000 HD
ENDBRANCH   5  10
BRANCH   6  12
ATOM     12  O   UNL     1       0.436   3.393  20.177  0.00  0.00    +0.000 OA
ATOM     13  H   UNL     1       0.414   2.668  20.835  0.00  0.00    +0.000 HD
ENDBRANCH   6  12
BRANCH   7  14
ATOM     14  O   UNL     1       1.089   4.080  17.549  0.00  0.00    +0.000 OA
ATOM     15  H   UNL     1       1.488   3.259  17.206  0.00  0.00    +0.000 HD
ENDBRANCH   7  14
TORSDOF 4
ENDMDL
MODEL 4
REMARK VINA RESULT:      -5.3      3.585      4.931
REMARK  Name = 
REMARK  5 active torsions:
REMARK  status: ('A' for Active; 'I' for Inactive)
REMARK    1  A    between atoms: C_1  and  C_2
REMARK    2  A    between atoms: C_4  and  O_5
REMARK    3  A    between atoms: C_6  and  O_7
REMARK    4  A    between atoms: C_8  and  O_9
REMARK    5  A    between atoms: C_10  and  O_11
REMARK                            x       y       z     vdW  Elec       q    Type
REMARK                         _______ _______ _______ _____ _____    ______ ____
ROOT
ATOM      1  C   UNL     1       2.676   6.000  19.458  0.00  0.00    +0.000 C 
ATOM      2  C   UNL     1       2.914   5.074  18.273  0.00  0.00    +0.000 C 
ATOM      3  S   UNL     1       4.487   4.155  18.482  0.00  0.00    +0.000 S 
ATOM      4  C   UNL     1       3.977   2.965  19.770  0.00  0.00    +0.000 C 
ATOM      5  C   UNL     1       2.709   2.174  19.391  0.00  0.00    +0.000 C 
ATOM      6  C   UNL     1       1.502   3.094  19.129  0.00  0.00    +0.000 C 
ATOM      7  C   UNL     1       1.752   4.103  17.992  0.00  0.00    +0.000 C 
ENDROOT
BRANCH   4   8
ATOM      8  O   UNL     1       5.044   2.051  19.989  0.00  0.00    +0.000 OA
ATOM      9  H   UNL     1       5.585   2.467  20.687  0.00  0.00    +0.000 HD
ENDBRANCH   4   8
BRANCH   5  10
ATOM     10  O   UNL     1       2.985   1.330  18.251  0.00  0.00    +0.000 OA
ATOM     11  H   UNL     1       2.868   0.403  18.552  0.00  0.00    +0.000 HD
ENDBRANCH   5  10
BRANCH   6  12
ATOM     12  O   UNL     1       0.366   2.287  18.777  0.00  0.00    +0.000 OA
ATOM     13  H   UNL     1       0.135   1.789  19.588  0.00  0.00    +0.000 HD
ENDBRANCH   6  12
BRANCH   7  14
ATOM     14  O   UNL     1       2.012   3.351  16.786  0.00  0.00    +0.000 OA
ATOM     15  H   UNL     1       2.843   2.855  16.911  0.00  0.00    +0.000 HD
ENDBRANCH   7  14
TORSDOF 4
ENDMDL
MODEL 5
REMARK VINA RESULT:      -5.3      2.513      3.684
REMARK  Name = 
REMARK  5 active torsions:
REMARK  status: ('A' for Active; 'I' for Inactive)
REMARK    1  A    between atoms: C_1  and  C_2
REMARK    2  A    between atoms: C_4  and  O_5
REMARK    3  A    between atoms: C_6  and  O_7
REMARK    4  A    between atoms: C_8  and  O_9
REMARK    5  A    between atoms: C_10  and  O_11
REMARK                            x       y       z     vdW  Elec       q    Type
REMARK                         _______ _______ _______ _____ _____    ______ ____
ROOT
ATOM      1  C   UNL     1       1.914   5.089  17.854  0.00  0.00    +0.000 C 
ATOM      2  C   UNL     1       2.379   3.647  17.701  0.00  0.00    +0.000 C 
ATOM      3  S   UNL     1       4.127   3.592  17.148  0.00  0.00    +0.000 S 
ATOM      4  C   UNL     1       4.955   4.073  18.703  0.00  0.00    +0.000 C 
ATOM      5  C   UNL     1       4.537   3.201  19.904  0.00  0.00    +0.000 C 
ATOM      6  C   UNL     1       3.021   3.258  20.168  0.00  0.00    +0.000 C 
ATOM      7  C   UNL     1       2.183   2.787  18.963  0.00  0.00    +0.000 C 
ENDROOT
BRANCH   4   8
ATOM      8  O   UNL     1       6.361   3.964  18.519  0.00  0.00    +0.000 OA
ATOM      9  H   UNL     1       6.730   3.991  19.423  0.00  0.00    +0.000 HD
ENDBRANCH   4   8
BRANCH   5  10
ATOM     10  O   UNL     1       4.985   1.842  19.696  0.00  0.00    +0.000 OA
ATOM     11  H   UNL     1       5.960   1.849  19.806  0.00  0.00    +0.000 HD
ENDBRANCH   5  10
BRANCH   6  12
ATOM     12  O   UNL     1       2.710   2.418  21.293  0.00  0.00    +0.000 OA
ATOM     13  H   UNL     1       2.684   1.505  20.940  0.00  0.00    +0.000 HD
ENDBRANCH   6  12
BRANCH   7  14
ATOM     14  O   UNL     1       2.539   1.414  18.690  0.00  0.00    +0.000 OA
ATOM     15  H   UNL     1       3.347   1.204  19.195  0.00  0.00    +0.000 HD
ENDBRANCH   7  14
TORSDOF 4
ENDMDL
MODEL 6
REMARK VINA RESULT:      -5.2      2.988      4.352
REMARK  Name = 
REMARK  5 active torsions:
REMARK  status: ('A' for Active; 'I' for Inactive)
REMARK    1  A    between atoms: C_1  and  C_2
REMARK    2  A    between atoms: C_4  and  O_5
REMARK    3  A    between atoms: C_6  and  O_7
REMARK    4  A    between atoms: C_8  and  O_9
REMARK    5  A    between atoms: C_10  and  O_11
REMARK                            x       y       z     vdW  Elec       q    Type
REMARK                         _______ _______ _______ _____ _____    ______ ____
ROOT
ATOM      1  C   UNL     1       1.938   5.469  20.453  0.00  0.00    +0.000 C 
ATOM      2  C   UNL     1       2.149   5.131  18.983  0.00  0.00    +0.000 C 
ATOM      3  S   UNL     1       3.915   5.318  18.529  0.00  0.00    +0.000 S 
ATOM      4  C   UNL     1       4.599   3.832  19.340  0.00  0.00    +0.000 C 
ATOM      5  C   UNL     1       3.870   2.535  18.935  0.00  0.00    +0.000 C 
ATOM      6  C   UNL     1       2.368   2.578  19.273  0.00  0.00    +0.000 C 
ATOM      7  C   UNL     1       1.630   3.738  18.578  0.00  0.00    +0.000 C 
ENDROOT
BRANCH   4   8
ATOM      8  O   UNL     1       5.973   3.718  18.991  0.00  0.00    +0.000 OA
ATOM      9  H   UNL     1       6.295   2.955  19.508  0.00  0.00    +0.000 HD
ENDBRANCH   4   8
BRANCH   5  10
ATOM     10  O   UNL     1       4.086   2.274  17.530  0.00  0.00    +0.000 OA
ATOM     11  H   UNL     1       3.833   1.338  17.376  0.00  0.00    +0.000 HD
ENDBRANCH   5  10
BRANCH   6  12
ATOM     12  O   UNL     1       1.760   1.342  18.862  0.00  0.00    +0.000 OA
ATOM     13  H   UNL     1       1.467   0.905  19.688  0.00  0.00    +0.000 HD
ENDBRANCH   6  12
BRANCH   7  14
ATOM     14  O   UNL     1       1.763   3.553  17.152  0.00  0.00    +0.000 OA
ATOM     15  H   UNL     1       2.125   2.660  16.994  0.00  0.00    +0.000 HD
ENDBRANCH   7  14
TORSDOF 4
ENDMDL
MODEL 7
REMARK VINA RESULT:      -5.2      3.055      4.639
REMARK  Name = 
REMARK  5 active torsions:
REMARK  status: ('A' for Active; 'I' for Inactive)
REMARK    1  A    between atoms: C_1  and  C_2
REMARK    2  A    between atoms: C_4  and  O_5
REMARK    3  A    between atoms: C_6  and  O_7
REMARK    4  A    between atoms: C_8  and  O_9
REMARK    5  A    between atoms: C_10  and  O_11
REMARK                            x       y       z     vdW  Elec       q    Type
REMARK                         _______ _______ _______ _____ _____    ______ ____
ROOT
ATOM      1  C   UNL     1       2.837   5.825  19.504  0.00  0.00    +0.000 C 
ATOM      2  C   UNL     1       3.455   4.518  19.983  0.00  0.00    +0.000 C 
ATOM      3  S   UNL     1       2.150   3.271  20.306  0.00  0.00    +0.000 S 
ATOM      4  C   UNL     1       1.701   2.846  18.587  0.00  0.00    +0.000 C 
ATOM      5  C   UNL     1       2.916   2.434  17.732  0.00  0.00    +0.000 C 
ATOM      6  C   UNL     1       3.981   3.544  17.655  0.00  0.00    +0.000 C 
ATOM      7  C   UNL     1       4.528   3.948  19.038  0.00  0.00    +0.000 C 
ENDROOT
BRANCH   4   8
ATOM      8  O   UNL     1       0.770   1.773  18.615  0.00  0.00    +0.000 OA
ATOM      9  H   UNL     1       1.169   1.117  19.218  0.00  0.00    +0.000 HD
ENDBRANCH   4   8
BRANCH   5  10
ATOM     10  O   UNL     1       3.475   1.202  18.242  0.00  0.00    +0.000 OA
ATOM     11  H   UNL     1       3.969   0.790  17.502  0.00  0.00    +0.000 HD
ENDBRANCH   5  10
BRANCH   6  12
ATOM     12  O   UNL     1       5.080   3.083  16.849  0.00  0.00    +0.000 OA
ATOM     13  H   UNL     1       5.129   3.703  16.092  0.00  0.00    +0.000 HD
ENDBRANCH   6  12
BRANCH   7  14
ATOM     14  O   UNL     1       5.140   2.779  19.627  0.00  0.00    +0.000 OA
ATOM     15  H   UNL     1       5.214   2.094  18.936  0.00  0.00    +0.000 HD
ENDBRANCH   7  14
TORSDOF 4
ENDMDL
MODEL 8
REMARK VINA RESULT:      -5.1      3.288      4.383
REMARK  Name = 
REMARK  5 active torsions:
REMARK  status: ('A' for Active; 'I' for Inactive)
REMARK    1  A    between atoms: C_1  and  C_2
REMARK    2  A    between atoms: C_4  and  O_5
REMARK    3  A    between atoms: C_6  and  O_7
REMARK    4  A    between atoms: C_8  and  O_9
REMARK    5  A    between atoms: C_10  and  O_11
REMARK                            x       y       z     vdW  Elec       q    Type
REMARK                         _______ _______ _______ _____ _____    ______ ____
ROOT
ATOM      1  C   UNL     1       2.192   3.283  21.632  0.00  0.00    +0.000 C 
ATOM      2  C   UNL     1       2.531   2.324  20.499  0.00  0.00    +0.000 C 
ATOM      3  S   UNL     1       1.334   2.508  19.123  0.00  0.00    +0.000 S 
ATOM      4  C   UNL     1       1.905   4.098  18.430  0.00  0.00    +0.000 C 
ATOM      5  C   UNL     1       3.412   4.105  18.099  0.00  0.00    +0.000 C 
ATOM      6  C   UNL     1       4.283   3.815  19.335  0.00  0.00    +0.000 C 
ATOM      7  C   UNL     1       3.976   2.450  19.981  0.00  0.00    +0.000 C 
ENDROOT
BRANCH   4   8
ATOM      8  O   UNL     1       1.170   4.365  17.243  0.00  0.00    +0.000 OA
ATOM      9  H   UNL     1       0.298   3.953  17.396  0.00  0.00    +0.000 HD
ENDBRANCH   4   8
BRANCH   5  10
ATOM     10  O   UNL     1       3.679   3.164  17.034  0.00  0.00    +0.000 OA
ATOM     11  H   UNL     1       3.885   2.306  17.463  0.00  0.00    +0.000 HD
ENDBRANCH   5  10
BRANCH   6  12
ATOM     12  O   UNL     1       5.667   3.832  18.946  0.00  0.00    +0.000 OA
ATOM     13  H   UNL     1       5.665   3.895  17.969  0.00  0.00    +0.000 HD
ENDBRANCH   6  12
BRANCH   7  14
ATOM     14  O   UNL     1       4.243   1.428  18.995  0.00  0.00    +0.000 OA
ATOM     15  H   UNL     1       5.088   1.642  18.557  0.00  0.00    +0.000 HD
ENDBRANCH   7  14
TORSDOF 4
ENDMDL
MODEL 9
REMARK VINA RESULT:      -5.1      3.295      4.933
REMARK  Name = 
REMARK  5 active torsions:
REMARK  status: ('A' for Active; 'I' for Inactive)
REMARK    1  A    between atoms: C_1  and  C_2
REMARK    2  A    between atoms: C_4  and  O_5
REMARK    3  A    between atoms: C_6  and  O_7
REMARK    4  A    between atoms: C_8  and  O_9
REMARK    5  A    between atoms: C_10  and  O_11
REMARK                            x       y       z     vdW  Elec       q    Type
REMARK                         _______ _______ _______ _____ _____    ______ ____
ROOT
ATOM      1  C   UNL     1       1.488   4.215  17.724  0.00  0.00    +0.000 C 
ATOM      2  C   UNL     1       2.920   4.361  18.221  0.00  0.00    +0.000 C 
ATOM      3  S   UNL     1       2.942   4.694  20.024  0.00  0.00    +0.000 S 
ATOM      4  C   UNL     1       2.514   3.031  20.648  0.00  0.00    +0.000 C 
ATOM      5  C   UNL     1       3.433   1.924  20.094  0.00  0.00    +0.000 C 
ATOM      6  C   UNL     1       3.396   1.849  18.556  0.00  0.00    +0.000 C 
ATOM      7  C   UNL     1       3.828   3.165  17.880  0.00  0.00    +0.000 C 
ENDROOT
BRANCH   4   8
ATOM      8  O   UNL     1       2.606   3.043  22.067  0.00  0.00    +0.000 OA
ATOM      9  H   UNL     1       1.684   2.949  22.374  0.00  0.00    +0.000 HD
ENDBRANCH   4   8
BRANCH   5  10
ATOM     10  O   UNL     1       4.780   2.123  20.580  0.00  0.00    +0.000 OA
ATOM     11  H   UNL     1       4.779   1.860  21.526  0.00  0.00    +0.000 HD
ENDBRANCH   5  10
BRANCH   6  12
ATOM     12  O   UNL     1       4.280   0.803  18.118  0.00  0.00    +0.000 OA
ATOM     13  H   UNL     1       5.105   0.923  18.632  0.00  0.00    +0.000 HD
ENDBRANCH   6  12
BRANCH   7  14
ATOM     14  O   UNL     1       5.188   3.440  18.283  0.00  0.00    +0.000 OA
ATOM     15  H   UNL     1       5.437   4.316  17.931  0.00  0.00    +0.000 HD
ENDBRANCH   7  14
TORSDOF 4
ENDMDL
