MODEL 1
REMARK VINA RESULT:      -8.2      0.000      0.000
REMARK  Name = 
REMARK  4 active torsions:
REMARK  status: ('A' for Active; 'I' for Inactive)
REMARK    1  A    between atoms: C_7  and  C_8
REMARK    2  A    between atoms: N_9  and  N_10
REMARK    3  A    between atoms: N_10  and  C_11
REMARK    4  A    between atoms: C_13  and  C_14
REMARK                            x       y       z     vdW  Elec       q    Type
REMARK                         _______ _______ _______ _____ _____    ______ ____
ROOT
ATOM      1  C   UNL     1       3.171   5.584  19.082  0.00  0.00    +0.000 A 
ATOM      2  N   UNL     1       4.086   5.693  18.101  0.00  0.00    +0.000 NA
ATOM      3  C   UNL     1       4.190   4.667  17.239  0.00  0.00    +0.000 A 
ATOM      4  N   UNL     1       3.418   3.568  17.272  0.00  0.00    +0.000 NA
ATOM      5  C   UNL     1       2.507   3.474  18.224  0.00  0.00    +0.000 A 
ATOM      6  C   UNL     1       1.726   2.320  18.267  0.00  0.00    +0.000 A 
ATOM      7  C   UNL     1       0.736   2.130  19.234  0.00  0.00    +0.000 A 
ATOM      8  C   UNL     1       0.511   3.114  20.184  0.00  0.00    +0.000 A 
ATOM      9  C   UNL     1       1.287   4.279  20.161  0.00  0.00    +0.000 A 
ATOM     10  C   UNL     1       2.299   4.477  19.186  0.00  0.00    +0.000 A 
ENDROOT
BRANCH   3  11
ATOM     11  C   UNL     1       5.208   4.755  16.170  0.00  0.00    +0.000 A 
ATOM     12  C   UNL     1       5.040   4.124  14.936  0.00  0.00    +0.000 A 
ATOM     13  C   UNL     1       6.066   4.168  13.997  0.00  0.00    +0.000 A 
ATOM     14  C   UNL     1       7.243   4.837  14.310  0.00  0.00    +0.000 A 
ATOM     15  C   UNL     1       7.337   5.450  15.544  0.00  0.00    +0.000 A 
ATOM     16  N   UNL     1       6.352   5.438  16.462  0.00  0.00    +0.000 NA
ENDBRANCH   3  11
BRANCH   1  17
ATOM     17  N   UNL     1       3.075   6.666  20.019  0.00  0.00    +0.000 N 
ATOM     18  H   UNL     1       2.864   6.243  20.924  0.00  0.00    +0.000 HD
BRANCH  17  20
ATOM     19  C   UNL     1       1.548   8.271  20.560  0.00  0.00    +0.000 C 
ATOM     20  N   UNL     1       2.221   7.667  19.621  0.00  0.00    +0.000 NA
BRANCH  19  27
ATOM     21  F   UNL     1       0.190   9.832  22.536  0.00  0.00    +0.000 F 
ATOM     22  C   UNL     1       0.023  10.137  21.242  0.00  0.00    +0.000 A 
ATOM     23  C   UNL     1      -0.827  11.198  20.926  0.00  0.00    +0.000 A 
ATOM     24  C   UNL     1      -1.046  11.542  19.593  0.00  0.00    +0.000 A 
ATOM     25  C   UNL     1      -0.409  10.826  18.579  0.00  0.00    +0.000 A 
ATOM     26  C   UNL     1       0.442   9.764  18.895  0.00  0.00    +0.000 A 
ATOM     27  C   UNL     1       0.659   9.410  20.233  0.00  0.00    +0.000 A 
ENDBRANCH  19  27
ENDBRANCH  17  20
ENDBRANCH   1  17
TORSDOF 4
ENDMDL
MODEL 2
REMARK VINA RESULT:      -8.1      1.565      4.762
REMARK  Name = 
REMARK  4 active torsions:
REMARK  status: ('A' for Active; 'I' for Inactive)
REMARK    1  A    between atoms: C_7  and  C_8
REMARK    2  A    between atoms: N_9  and  N_10
REMARK    3  A    between atoms: N_10  and  C_11
REMARK    4  A    between atoms: C_13  and  C_14
REMARK                            x       y       z     vdW  Elec       q    Type
REMARK                         _______ _______ _______ _____ _____    ______ ____
ROOT
ATOM      1  C   UNL     1       3.942   6.233  17.271  0.00  0.00    +0.000 A 
ATOM      2  N   UNL     1       3.302   5.636  18.293  0.00  0.00    +0.000 NA
ATOM      3  C   UNL     1       3.471   4.310  18.435  0.00  0.00    +0.000 A 
ATOM      4  N   UNL     1       4.262   3.558  17.650  0.00  0.00    +0.000 NA
ATOM      5  C   UNL     1       4.905   4.152  16.660  0.00  0.00    +0.000 A 
ATOM      6  C   UNL     1       5.704   3.362  15.836  0.00  0.00    +0.000 A 
ATOM      7  C   UNL     1       6.424   3.898  14.766  0.00  0.00    +0.000 A 
ATOM      8  C   UNL     1       6.351   5.259  14.508  0.00  0.00    +0.000 A 
ATOM      9  C   UNL     1       5.551   6.070  15.321  0.00  0.00    +0.000 A 
ATOM     10  C   UNL     1       4.812   5.531  16.406  0.00  0.00    +0.000 A 
ENDROOT
BRANCH   3  11
ATOM     11  C   UNL     1       2.756   3.629  19.535  0.00  0.00    +0.000 A 
ATOM     12  C   UNL     1       1.371   3.715  19.682  0.00  0.00    +0.000 A 
ATOM     13  C   UNL     1       0.758   3.125  20.783  0.00  0.00    +0.000 A 
ATOM     14  C   UNL     1       1.542   2.463  21.721  0.00  0.00    +0.000 A 
ATOM     15  C   UNL     1       2.905   2.405  21.508  0.00  0.00    +0.000 A 
ATOM     16  N   UNL     1       3.519   2.951  20.441  0.00  0.00    +0.000 NA
ENDBRANCH   3  11
BRANCH   1  17
ATOM     17  N   UNL     1       3.743   7.644  17.102  0.00  0.00    +0.000 N 
ATOM     18  H   UNL     1       4.664   8.040  16.902  0.00  0.00    +0.000 HD
BRANCH  17  20
ATOM     19  C   UNL     1       1.967   8.873  17.829  0.00  0.00    +0.000 C 
ATOM     20  N   UNL     1       3.058   8.234  18.138  0.00  0.00    +0.000 NA
BRANCH  19  27
ATOM     21  F   UNL     1       1.824   7.866  20.503  0.00  0.00    +0.000 F 
ATOM     22  C   UNL     1       1.096   8.943  20.177  0.00  0.00    +0.000 A 
ATOM     23  C   UNL     1       0.287   9.507  21.164  0.00  0.00    +0.000 A 
ATOM     24  C   UNL     1      -0.500  10.618  20.868  0.00  0.00    +0.000 A 
ATOM     25  C   UNL     1      -0.474  11.164  19.584  0.00  0.00    +0.000 A 
ATOM     26  C   UNL     1       0.337  10.599  18.596  0.00  0.00    +0.000 A 
ATOM     27  C   UNL     1       1.125   9.478  18.887  0.00  0.00    +0.000 A 
ENDBRANCH  19  27
ENDBRANCH  17  20
ENDBRANCH   1  17
TORSDOF 4
ENDMDL
MODEL 3
REMARK VINA RESULT:      -8.0      1.772      4.878
REMARK  Name = 
REMARK  4 active torsions:
REMARK  status: ('A' for Active; 'I' for Inactive)
REMARK    1  A    between atoms: C_7  and  C_8
REMARK    2  A    between atoms: N_9  and  N_10
REMARK    3  A    between atoms: N_10  and  C_11
REMARK    4  A    between atoms: C_13  and  C_14
REMARK                            x       y       z     vdW  Elec       q    Type
REMARK                         _______ _______ _______ _____ _____    ______ ____
ROOT
ATOM      1  C   UNL     1       3.870   6.274  17.282  0.00  0.00    +0.000 A 
ATOM      2  N   UNL     1       3.235   5.667  18.300  0.00  0.00    +0.000 NA
ATOM      3  C   UNL     1       3.429   4.345  18.446  0.00  0.00    +0.000 A 
ATOM      4  N   UNL     1       4.239   3.606  17.669  0.00  0.00    +0.000 NA
ATOM      5  C   UNL     1       4.878   4.210  16.683  0.00  0.00    +0.000 A 
ATOM      6  C   UNL     1       5.698   3.434  15.867  0.00  0.00    +0.000 A 
ATOM      7  C   UNL     1       6.416   3.981  14.800  0.00  0.00    +0.000 A 
ATOM      8  C   UNL     1       6.318   5.339  14.538  0.00  0.00    +0.000 A 
ATOM      9  C   UNL     1       5.497   6.136  15.343  0.00  0.00    +0.000 A 
ATOM     10  C   UNL     1       4.760   5.586  16.425  0.00  0.00    +0.000 A 
ENDROOT
BRANCH   3  11
ATOM     11  C   UNL     1       2.718   3.653  19.544  0.00  0.00    +0.000 A 
ATOM     12  C   UNL     1       1.330   3.703  19.673  0.00  0.00    +0.000 A 
ATOM     13  C   UNL     1       0.720   3.105  20.772  0.00  0.00    +0.000 A 
ATOM     14  C   UNL     1       1.510   2.471  21.723  0.00  0.00    +0.000 A 
ATOM     15  C   UNL     1       2.876   2.447  21.526  0.00  0.00    +0.000 A 
ATOM     16  N   UNL     1       3.488   3.002  20.463  0.00  0.00    +0.000 NA
ENDBRANCH   3  11
BRANCH   1  17
ATOM     17  N   UNL     1       3.646   7.680  17.107  0.00  0.00    +0.000 N 
ATOM     18  H   UNL     1       4.561   8.094  16.916  0.00  0.00    +0.000 HD
BRANCH  17  20
ATOM     19  C   UNL     1       1.816   8.837  17.818  0.00  0.00    +0.000 C 
ATOM     20  N   UNL     1       2.939   8.258  18.135  0.00  0.00    +0.000 NA
BRANCH  19  27
ATOM     21  F   UNL     1      -0.630  10.216  17.266  0.00  0.00    +0.000 F 
ATOM     22  C   UNL     1      -0.234  10.085  18.539  0.00  0.00    +0.000 A 
ATOM     23  C   UNL     1      -1.035  10.650  19.533  0.00  0.00    +0.000 A 
ATOM     24  C   UNL     1      -0.656  10.553  20.871  0.00  0.00    +0.000 A 
ATOM     25  C   UNL     1       0.523   9.889  21.211  0.00  0.00    +0.000 A 
ATOM     26  C   UNL     1       1.325   9.323  20.216  0.00  0.00    +0.000 A 
ATOM     27  C   UNL     1       0.951   9.423  18.869  0.00  0.00    +0.000 A 
ENDBRANCH  19  27
ENDBRANCH  17  20
ENDBRANCH   1  17
TORSDOF 4
ENDMDL
MODEL 4
REMARK VINA RESULT:      -8.0      2.988      7.740
REMARK  Name = 
REMARK  4 active torsions:
REMARK  status: ('A' for Active; 'I' for Inactive)
REMARK    1  A    between atoms: C_7  and  C_8
REMARK    2  A    between atoms: N_9  and  N_10
REMARK    3  A    between atoms: N_10  and  C_11
REMARK    4  A    between atoms: C_13  and  C_14
REMARK                            x       y       z     vdW  Elec       q    Type
REMARK                         _______ _______ _______ _____ _____    ______ ____
ROOT
ATOM      1  C   UNL     1       4.564   5.680  18.411  0.00  0.00    +0.000 A 
ATOM      2  N   UNL     1       3.895   6.845  18.366  0.00  0.00    +0.000 NA
ATOM      3  C   UNL     1       2.745   6.923  19.058  0.00  0.00    +0.000 A 
ATOM      4  N   UNL     1       2.248   5.932  19.817  0.00  0.00    +0.000 NA
ATOM      5  C   UNL     1       2.919   4.795  19.875  0.00  0.00    +0.000 A 
ATOM      6  C   UNL     1       2.385   3.763  20.644  0.00  0.00    +0.000 A 
ATOM      7  C   UNL     1       3.021   2.526  20.770  0.00  0.00    +0.000 A 
ATOM      8  C   UNL     1       4.224   2.308  20.116  0.00  0.00    +0.000 A 
ATOM      9  C   UNL     1       4.776   3.330  19.335  0.00  0.00    +0.000 A 
ATOM     10  C   UNL     1       4.132   4.587  19.198  0.00  0.00    +0.000 A 
ENDROOT
BRANCH   3  11
ATOM     11  C   UNL     1       1.980   8.188  19.000  0.00  0.00    +0.000 A 
ATOM     12  C   UNL     1       1.959   8.987  17.857  0.00  0.00    +0.000 A 
ATOM     13  C   UNL     1       1.292  10.208  17.884  0.00  0.00    +0.000 A 
ATOM     14  C   UNL     1       0.662  10.610  19.056  0.00  0.00    +0.000 A 
ATOM     15  C   UNL     1       0.711   9.764  20.147  0.00  0.00    +0.000 A 
ATOM     16  N   UNL     1       1.333   8.570  20.139  0.00  0.00    +0.000 NA
ENDBRANCH   3  11
BRANCH   1  17
ATOM     17  N   UNL     1       5.778   5.584  17.653  0.00  0.00    +0.000 N 
ATOM     18  H   UNL     1       6.269   6.470  17.787  0.00  0.00    +0.000 HD
BRANCH  17  20
ATOM     19  C   UNL     1       6.653   4.988  15.635  0.00  0.00    +0.000 C 
ATOM     20  N   UNL     1       5.584   5.208  16.345  0.00  0.00    +0.000 NA
BRANCH  19  27
ATOM     21  F   UNL     1       8.491   5.710  13.564  0.00  0.00    +0.000 F 
ATOM     22  C   UNL     1       7.471   4.894  13.268  0.00  0.00    +0.000 A 
ATOM     23  C   UNL     1       7.349   4.453  11.950  0.00  0.00    +0.000 A 
ATOM     24  C   UNL     1       6.295   3.615  11.591  0.00  0.00    +0.000 A 
ATOM     25  C   UNL     1       5.365   3.219  12.553  0.00  0.00    +0.000 A 
ATOM     26  C   UNL     1       5.487   3.661  13.873  0.00  0.00    +0.000 A 
ATOM     27  C   UNL     1       6.542   4.509  14.237  0.00  0.00    +0.000 A 
ENDBRANCH  19  27
ENDBRANCH  17  20
ENDBRANCH   1  17
TORSDOF 4
ENDMDL
MODEL 5
REMARK VINA RESULT:      -8.0      1.924      2.193
REMARK  Name = 
REMARK  4 active torsions:
REMARK  status: ('A' for Active; 'I' for Inactive)
REMARK    1  A    between atoms: C_7  and  C_8
REMARK    2  A    between atoms: N_9  and  N_10
REMARK    3  A    between atoms: N_10  and  C_11
REMARK    4  A    between atoms: C_13  and  C_14
REMARK                            x       y       z     vdW  Elec       q    Type
REMARK                         _______ _______ _______ _____ _____    ______ ____
ROOT
ATOM      1  C   UNL     1       2.478   5.429  20.109  0.00  0.00    +0.000 A 
ATOM      2  N   UNL     1       3.637   6.007  19.748  0.00  0.00    +0.000 NA
ATOM      3  C   UNL     1       4.412   5.340  18.876  0.00  0.00    +0.000 A 
ATOM      4  N   UNL     1       4.086   4.162  18.318  0.00  0.00    +0.000 NA
ATOM      5  C   UNL     1       2.937   3.607  18.659  0.00  0.00    +0.000 A 
ATOM      6  C   UNL     1       2.616   2.374  18.094  0.00  0.00    +0.000 A 
ATOM      7  C   UNL     1       1.423   1.711  18.390  0.00  0.00    +0.000 A 
ATOM      8  C   UNL     1       0.521   2.289  19.270  0.00  0.00    +0.000 A 
ATOM      9  C   UNL     1       0.825   3.525  19.852  0.00  0.00    +0.000 A 
ATOM     10  C   UNL     1       2.038   4.202  19.560  0.00  0.00    +0.000 A 
ENDROOT
BRANCH   3  11
ATOM     11  C   UNL     1       5.705   5.945  18.487  0.00  0.00    +0.000 A 
ATOM     12  C   UNL     1       6.889   5.661  19.167  0.00  0.00    +0.000 A 
ATOM     13  C   UNL     1       8.061   6.322  18.814  0.00  0.00    +0.000 A 
ATOM     14  C   UNL     1       8.027   7.260  17.788  0.00  0.00    +0.000 A 
ATOM     15  C   UNL     1       6.824   7.483  17.148  0.00  0.00    +0.000 A 
ATOM     16  N   UNL     1       5.681   6.843  17.459  0.00  0.00    +0.000 NA
ENDBRANCH   3  11
BRANCH   1  17
ATOM     17  N   UNL     1       1.660   6.125  21.059  0.00  0.00    +0.000 N 
ATOM     18  H   UNL     1       0.832   5.544  21.205  0.00  0.00    +0.000 HD
BRANCH  17  20
ATOM     19  C   UNL     1       0.616   8.102  21.507  0.00  0.00    +0.000 C 
ATOM     20  N   UNL     1       1.411   7.434  20.720  0.00  0.00    +0.000 NA
BRANCH  19  27
ATOM     21  F   UNL     1      -0.486   9.864  23.473  0.00  0.00    +0.000 F 
ATOM     22  C   UNL     1      -0.190  10.351  22.261  0.00  0.00    +0.000 A 
ATOM     23  C   UNL     1      -0.456  11.699  22.016  0.00  0.00    +0.000 A 
ATOM     24  C   UNL     1      -0.181  12.247  20.765  0.00  0.00    +0.000 A 
ATOM     25  C   UNL     1       0.363  11.445  19.761  0.00  0.00    +0.000 A 
ATOM     26  C   UNL     1       0.630  10.095  20.006  0.00  0.00    +0.000 A 
ATOM     27  C   UNL     1       0.348   9.538  21.261  0.00  0.00    +0.000 A 
ENDBRANCH  19  27
ENDBRANCH  17  20
ENDBRANCH   1  17
TORSDOF 4
ENDMDL
MODEL 6
REMARK VINA RESULT:      -8.0      1.674      4.771
REMARK  Name = 
REMARK  4 active torsions:
REMARK  status: ('A' for Active; 'I' for Inactive)
REMARK    1  A    between atoms: C_7  and  C_8
REMARK    2  A    between atoms: N_9  and  N_10
REMARK    3  A    between atoms: N_10  and  C_11
REMARK    4  A    between atoms: C_13  and  C_14
REMARK                            x       y       z     vdW  Elec       q    Type
REMARK                         _______ _______ _______ _____ _____    ______ ____
ROOT
ATOM      1  C   UNL     1       3.770   6.470  17.537  0.00  0.00    +0.000 A 
ATOM      2  N   UNL     1       3.160   5.799  18.530  0.00  0.00    +0.000 NA
ATOM      3  C   UNL     1       3.356   4.471  18.588  0.00  0.00    +0.000 A 
ATOM      4  N   UNL     1       4.147   3.784  17.747  0.00  0.00    +0.000 NA
ATOM      5  C   UNL     1       4.762   4.449  16.785  0.00  0.00    +0.000 A 
ATOM      6  C   UNL     1       5.562   3.727  15.902  0.00  0.00    +0.000 A 
ATOM      7  C   UNL     1       6.254   4.341  14.855  0.00  0.00    +0.000 A 
ATOM      8  C   UNL     1       6.151   5.713  14.682  0.00  0.00    +0.000 A 
ATOM      9  C   UNL     1       5.349   6.457  15.555  0.00  0.00    +0.000 A 
ATOM     10  C   UNL     1       4.639   5.839  16.618  0.00  0.00    +0.000 A 
ENDROOT
BRANCH   3  11
ATOM     11  C   UNL     1       2.672   3.710  19.656  0.00  0.00    +0.000 A 
ATOM     12  C   UNL     1       1.285   3.734  19.809  0.00  0.00    +0.000 A 
ATOM     13  C   UNL     1       0.701   3.069  20.882  0.00  0.00    +0.000 A 
ATOM     14  C   UNL     1       1.513   2.394  21.785  0.00  0.00    +0.000 A 
ATOM     15  C   UNL     1       2.877   2.399  21.567  0.00  0.00    +0.000 A 
ATOM     16  N   UNL     1       3.465   3.020  20.527  0.00  0.00    +0.000 NA
ENDBRANCH   3  11
BRANCH   1  17
ATOM     17  N   UNL     1       3.543   7.884  17.457  0.00  0.00    +0.000 N 
ATOM     18  H   UNL     1       4.328   8.328  17.938  0.00  0.00    +0.000 HD
BRANCH  17  20
ATOM     19  C   UNL     1       2.043   9.546  17.888  0.00  0.00    +0.000 C 
ATOM     20  N   UNL     1       2.294   8.267  17.886  0.00  0.00    +0.000 NA
BRANCH  19  27
ATOM     21  F   UNL     1       1.578  11.326  20.080  0.00  0.00    +0.000 F 
ATOM     22  C   UNL     1       0.534  10.917  19.345  0.00  0.00    +0.000 A 
ATOM     23  C   UNL     1      -0.735  11.371  19.705  0.00  0.00    +0.000 A 
ATOM     24  C   UNL     1      -1.853  10.960  18.980  0.00  0.00    +0.000 A 
ATOM     25  C   UNL     1      -1.696  10.097  17.895  0.00  0.00    +0.000 A 
ATOM     26  C   UNL     1      -0.425   9.642  17.535  0.00  0.00    +0.000 A 
ATOM     27  C   UNL     1       0.701  10.047  18.265  0.00  0.00    +0.000 A 
ENDBRANCH  19  27
ENDBRANCH  17  20
ENDBRANCH   1  17
TORSDOF 4
ENDMDL
MODEL 7
REMARK VINA RESULT:      -7.9      2.894      7.888
REMARK  Name = 
REMARK  4 active torsions:
REMARK  status: ('A' for Active; 'I' for Inactive)
REMARK    1  A    between atoms: C_7  and  C_8
REMARK    2  A    between atoms: N_9  and  N_10
REMARK    3  A    between atoms: N_10  and  C_11
REMARK    4  A    between atoms: C_13  and  C_14
REMARK                            x       y       z     vdW  Elec       q    Type
REMARK                         _______ _______ _______ _____ _____    ______ ____
ROOT
ATOM      1  C   UNL     1       4.317   5.821  17.869  0.00  0.00    +0.000 A 
ATOM      2  N   UNL     1       3.762   6.970  18.297  0.00  0.00    +0.000 NA
ATOM      3  C   UNL     1       2.540   6.895  18.851  0.00  0.00    +0.000 A 
ATOM      4  N   UNL     1       1.860   5.750  19.037  0.00  0.00    +0.000 NA
ATOM      5  C   UNL     1       2.417   4.622  18.634  0.00  0.00    +0.000 A 
ATOM      6  C   UNL     1       1.697   3.441  18.809  0.00  0.00    +0.000 A 
ATOM      7  C   UNL     1       2.203   2.199  18.418  0.00  0.00    +0.000 A 
ATOM      8  C   UNL     1       3.461   2.126  17.840  0.00  0.00    +0.000 A 
ATOM      9  C   UNL     1       4.199   3.300  17.652  0.00  0.00    +0.000 A 
ATOM     10  C   UNL     1       3.690   4.566  18.041  0.00  0.00    +0.000 A 
ENDROOT
BRANCH   3  11
ATOM     11  C   UNL     1       1.900   8.149  19.303  0.00  0.00    +0.000 A 
ATOM     12  C   UNL     1       1.423   8.308  20.605  0.00  0.00    +0.000 A 
ATOM     13  C   UNL     1       0.753   9.477  20.953  0.00  0.00    +0.000 A 
ATOM     14  C   UNL     1       0.569  10.464  19.993  0.00  0.00    +0.000 A 
ATOM     15  C   UNL     1       1.078  10.247  18.727  0.00  0.00    +0.000 A 
ATOM     16  N   UNL     1       1.745   9.133  18.371  0.00  0.00    +0.000 NA
ENDBRANCH   3  11
BRANCH   1  17
ATOM     17  N   UNL     1       5.610   5.901  17.255  0.00  0.00    +0.000 N 
ATOM     18  H   UNL     1       5.995   6.811  17.515  0.00  0.00    +0.000 HD
BRANCH  17  20
ATOM     19  C   UNL     1       6.537   4.839  15.463  0.00  0.00    +0.000 C 
ATOM     20  N   UNL     1       5.599   5.627  15.907  0.00  0.00    +0.000 NA
BRANCH  19  27
ATOM     21  F   UNL     1       8.484   5.770  13.584  0.00  0.00    +0.000 F 
ATOM     22  C   UNL     1       7.539   4.917  13.168  0.00  0.00    +0.000 A 
ATOM     23  C   UNL     1       7.545   4.541  11.824  0.00  0.00    +0.000 A 
ATOM     24  C   UNL     1       6.572   3.669  11.340  0.00  0.00    +0.000 A 
ATOM     25  C   UNL     1       5.595   3.172  12.204  0.00  0.00    +0.000 A 
ATOM     26  C   UNL     1       5.589   3.548  13.550  0.00  0.00    +0.000 A 
ATOM     27  C   UNL     1       6.561   4.430  14.039  0.00  0.00    +0.000 A 
ENDBRANCH  19  27
ENDBRANCH  17  20
ENDBRANCH   1  17
TORSDOF 4
ENDMDL
MODEL 8
REMARK VINA RESULT:      -7.8      1.030      1.399
REMARK  Name = 
REMARK  4 active torsions:
REMARK  status: ('A' for Active; 'I' for Inactive)
REMARK    1  A    between atoms: C_7  and  C_8
REMARK    2  A    between atoms: N_9  and  N_10
REMARK    3  A    between atoms: N_10  and  C_11
REMARK    4  A    between atoms: C_13  and  C_14
REMARK                            x       y       z     vdW  Elec       q    Type
REMARK                         _______ _______ _______ _____ _____    ______ ____
ROOT
ATOM      1  C   UNL     1       3.141   5.654  19.086  0.00  0.00    +0.000 A 
ATOM      2  N   UNL     1       4.036   5.750  18.086  0.00  0.00    +0.000 NA
ATOM      3  C   UNL     1       4.211   4.666  17.311  0.00  0.00    +0.000 A 
ATOM      4  N   UNL     1       3.527   3.517  17.447  0.00  0.00    +0.000 NA
ATOM      5  C   UNL     1       2.634   3.435  18.418  0.00  0.00    +0.000 A 
ATOM      6  C   UNL     1       1.945   2.232  18.568  0.00  0.00    +0.000 A 
ATOM      7  C   UNL     1       0.981   2.049  19.562  0.00  0.00    +0.000 A 
ATOM      8  C   UNL     1       0.690   3.090  20.431  0.00  0.00    +0.000 A 
ATOM      9  C   UNL     1       1.373   4.305  20.300  0.00  0.00    +0.000 A 
ATOM     10  C   UNL     1       2.358   4.496  19.296  0.00  0.00    +0.000 A 
ENDROOT
BRANCH   3  11
ATOM     11  C   UNL     1       5.209   4.741  16.222  0.00  0.00    +0.000 A 
ATOM     12  C   UNL     1       5.025   4.086  15.004  0.00  0.00    +0.000 A 
ATOM     13  C   UNL     1       6.033   4.119  14.046  0.00  0.00    +0.000 A 
ATOM     14  C   UNL     1       7.211   4.803  14.326  0.00  0.00    +0.000 A 
ATOM     15  C   UNL     1       7.322   5.440  15.546  0.00  0.00    +0.000 A 
ATOM     16  N   UNL     1       6.353   5.438  16.481  0.00  0.00    +0.000 NA
ENDBRANCH   3  11
BRANCH   1  17
ATOM     17  N   UNL     1       2.970   6.801  19.932  0.00  0.00    +0.000 N 
ATOM     18  H   UNL     1       2.976   6.451  20.892  0.00  0.00    +0.000 HD
BRANCH  17  20
ATOM     19  C   UNL     1       1.737   8.690  20.259  0.00  0.00    +0.000 C 
ATOM     20  N   UNL     1       1.890   7.581  19.593  0.00  0.00    +0.000 NA
BRANCH  19  27
ATOM     21  F   UNL     1       1.031   9.375  17.572  0.00  0.00    +0.000 F 
ATOM     22  C   UNL     1       0.343   9.925  18.582  0.00  0.00    +0.000 A 
ATOM     23  C   UNL     1      -0.675  10.824  18.265  0.00  0.00    +0.000 A 
ATOM     24  C   UNL     1      -1.407  11.434  19.283  0.00  0.00    +0.000 A 
ATOM     25  C   UNL     1      -1.119  11.140  20.616  0.00  0.00    +0.000 A 
ATOM     26  C   UNL     1      -0.098  10.239  20.934  0.00  0.00    +0.000 A 
ATOM     27  C   UNL     1       0.644   9.629  19.914  0.00  0.00    +0.000 A 
ENDBRANCH  19  27
ENDBRANCH  17  20
ENDBRANCH   1  17
TORSDOF 4
ENDMDL
MODEL 9
REMARK VINA RESULT:      -7.8      2.010      2.447
REMARK  Name = 
REMARK  4 active torsions:
REMARK  status: ('A' for Active; 'I' for Inactive)
REMARK    1  A    between atoms: C_7  and  C_8
REMARK    2  A    between atoms: N_9  and  N_10
REMARK    3  A    between atoms: N_10  and  C_11
REMARK    4  A    between atoms: C_13  and  C_14
REMARK                            x       y       z     vdW  Elec       q    Type
REMARK                         _______ _______ _______ _____ _____    ______ ____
ROOT
ATOM      1  C   UNL     1       2.541   5.323  20.182  0.00  0.00    +0.000 A 
ATOM      2  N   UNL     1       3.689   5.915  19.808  0.00  0.00    +0.000 NA
ATOM      3  C   UNL     1       4.434   5.285  18.883  0.00  0.00    +0.000 A 
ATOM      4  N   UNL     1       4.088   4.132  18.288  0.00  0.00    +0.000 NA
ATOM      5  C   UNL     1       2.949   3.564  18.643  0.00  0.00    +0.000 A 
ATOM      6  C   UNL     1       2.607   2.355  18.038  0.00  0.00    +0.000 A 
ATOM      7  C   UNL     1       1.424   1.681  18.346  0.00  0.00    +0.000 A 
ATOM      8  C   UNL     1       0.552   2.222  19.278  0.00  0.00    +0.000 A 
ATOM      9  C   UNL     1       0.878   3.432  19.901  0.00  0.00    +0.000 A 
ATOM     10  C   UNL     1       2.082   4.121  19.598  0.00  0.00    +0.000 A 
ENDROOT
BRANCH   3  11
ATOM     11  C   UNL     1       5.714   5.906  18.477  0.00  0.00    +0.000 A 
ATOM     12  C   UNL     1       6.905   5.657  19.159  0.00  0.00    +0.000 A 
ATOM     13  C   UNL     1       8.064   6.332  18.788  0.00  0.00    +0.000 A 
ATOM     14  C   UNL     1       8.009   7.248  17.744  0.00  0.00    +0.000 A 
ATOM     15  C   UNL     1       6.800   7.437  17.104  0.00  0.00    +0.000 A 
ATOM     16  N   UNL     1       5.670   6.782  17.432  0.00  0.00    +0.000 NA
ENDBRANCH   3  11
BRANCH   1  17
ATOM     17  N   UNL     1       1.756   5.980  21.187  0.00  0.00    +0.000 N 
ATOM     18  H   UNL     1       1.235   5.245  21.670  0.00  0.00    +0.000 HD
BRANCH  17  20
ATOM     19  C   UNL     1       1.333   8.218  21.092  0.00  0.00    +0.000 C 
ATOM     20  N   UNL     1       0.998   7.021  20.704  0.00  0.00    +0.000 NA
BRANCH  19  27
ATOM     21  F   UNL     1       1.536   9.110  18.381  0.00  0.00    +0.000 F 
ATOM     22  C   UNL     1       0.757   9.793  19.231  0.00  0.00    +0.000 A 
ATOM     23  C   UNL     1       0.096  10.922  18.746  0.00  0.00    +0.000 A 
ATOM     24  C   UNL     1      -0.712  11.675  19.597  0.00  0.00    +0.000 A 
ATOM     25  C   UNL     1      -0.860  11.292  20.931  0.00  0.00    +0.000 A 
ATOM     26  C   UNL     1      -0.199  10.160  21.416  0.00  0.00    +0.000 A 
ATOM     27  C   UNL     1       0.621   9.405  20.566  0.00  0.00    +0.000 A 
ENDBRANCH  19  27
ENDBRANCH  17  20
ENDBRANCH   1  17
TORSDOF 4
ENDMDL
