MODEL 1
REMARK VINA RESULT:      -7.3      0.000      0.000
REMARK  Name = 
REMARK  11 active torsions:
REMARK  status: ('A' for Active; 'I' for Inactive)
REMARK    1  A    between atoms: C_1  and  C_2
REMARK    2  A    between atoms: C_2  and  C_3
REMARK    3  A    between atoms: C_3  and  O_4
REMARK    4  A    between atoms: O_4  and  C_5
REMARK    5  A    between atoms: C_8  and  C_9
REMARK    6  A    between atoms: C_11  and  O_12
REMARK    7  A    between atoms: O_12  and  C_13
REMARK    8  A    between atoms: C_13  and  C_14
REMARK    9  A    between atoms: C_14  and  N_15
REMARK   10  A    between atoms: C_26  and  O_27
REMARK   11  A    between atoms: O_27  and  C_28
REMARK                            x       y       z     vdW  Elec       q    Type
REMARK                         _______ _______ _______ _____ _____    ______ ____
ROOT
ATOM      1  C   UNL     1       3.589   6.683  18.095  0.00  0.00    +0.000 A 
ATOM      2  C   UNL     1       3.286   6.044  19.284  0.00  0.00    +0.000 A 
ATOM      3  C   UNL     1       2.239   6.471  20.064  0.00  0.00    +0.000 A 
ATOM      4  C   UNL     1       1.790   7.771  19.899  0.00  0.00    +0.000 A 
ATOM      5  C   UNL     1       1.029   8.332  20.941  0.00  0.00    +0.000 A 
ATOM      6  C   UNL     1       0.670   9.659  20.921  0.00  0.00    +0.000 A 
ATOM      7  C   UNL     1       0.997  10.402  19.802  0.00  0.00    +0.000 A 
ATOM      8  C   UNL     1       1.716   9.841  18.720  0.00  0.00    +0.000 A 
ATOM      9  C   UNL     1       2.201   8.503  18.744  0.00  0.00    +0.000 A 
ATOM     10  N   UNL     1       3.038   7.897  17.809  0.00  0.00    +0.000 NA
ENDROOT
BRANCH   1  14
ATOM     11  C   UNL     1       5.991   4.568  15.149  0.00  0.00    +0.000 A 
ATOM     12  C   UNL     1       5.621   5.887  14.948  0.00  0.00    +0.000 A 
ATOM     13  C   UNL     1       4.942   6.580  15.959  0.00  0.00    +0.000 A 
ATOM     14  C   UNL     1       4.560   5.982  17.191  0.00  0.00    +0.000 A 
ATOM     15  C   UNL     1       5.062   4.701  17.423  0.00  0.00    +0.000 A 
ATOM     16  C   UNL     1       5.753   4.003  16.407  0.00  0.00    +0.000 A 
BRANCH  11  17
ATOM     17  O   UNL     1       6.590   3.764  14.214  0.00  0.00    +0.000 OA
BRANCH  17  18
ATOM     18  C   UNL     1       5.909   3.627  12.960  0.00  0.00    +0.000 C 
BRANCH  18  20
ATOM     19  C   UNL     1       7.064   2.108  11.279  0.00  0.00    +0.000 C 
ATOM     20  C   UNL     1       6.907   3.526  11.806  0.00  0.00    +0.000 C 
ENDBRANCH  18  20
ENDBRANCH  17  18
ENDBRANCH  11  17
ENDBRANCH   1  14
BRANCH   8  21
ATOM     21  O   UNL     1       1.906  10.807  17.760  0.00  0.00    +0.000 OA
ATOM     22  C   UNL     1       2.307  12.101  18.166  0.00  0.00    +0.000 C 
ENDBRANCH   8  21
BRANCH   3  23
ATOM     23  O   UNL     1       1.639   5.658  21.006  0.00  0.00    +0.000 OA
BRANCH  23  24
ATOM     24  C   UNL     1       0.768   4.662  20.460  0.00  0.00    +0.000 C 
BRANCH  24  25
ATOM     25  C   UNL     1       1.003   3.263  21.034  0.00  0.00    +0.000 C 
BRANCH  25  26
ATOM     26  N   UNL     1       2.016   2.529  20.242  0.00  0.00    +0.000 NA
ATOM     27  C   UNL     1       2.016   2.949  18.843  0.00  0.00    +0.000 C 
ATOM     28  C   UNL     1       2.329   1.764  17.925  0.00  0.00    +0.000 C 
ATOM     29  C   UNL     1       3.798   1.363  17.835  0.00  0.00    +0.000 C 
ATOM     30  C   UNL     1       4.460   1.023  19.164  0.00  0.00    +0.000 C 
ATOM     31  C   UNL     1       4.580   2.243  20.065  0.00  0.00    +0.000 C 
ATOM     32  C   UNL     1       3.331   2.520  20.899  0.00  0.00    +0.000 C 
ENDBRANCH  25  26
ENDBRANCH  24  25
ENDBRANCH  23  24
ENDBRANCH   3  23
TORSDOF 9
ENDMDL
MODEL 2
REMARK VINA RESULT:      -7.0      0.615      1.044
REMARK  Name = 
REMARK  11 active torsions:
REMARK  status: ('A' for Active; 'I' for Inactive)
REMARK    1  A    between atoms: C_1  and  C_2
REMARK    2  A    between atoms: C_2  and  C_3
REMARK    3  A    between atoms: C_3  and  O_4
REMARK    4  A    between atoms: O_4  and  C_5
REMARK    5  A    between atoms: C_8  and  C_9
REMARK    6  A    between atoms: C_11  and  O_12
REMARK    7  A    between atoms: O_12  and  C_13
REMARK    8  A    between atoms: C_13  and  C_14
REMARK    9  A    between atoms: C_14  and  N_15
REMARK   10  A    between atoms: C_26  and  O_27
REMARK   11  A    between atoms: O_27  and  C_28
REMARK                            x       y       z     vdW  Elec       q    Type
REMARK                         _______ _______ _______ _____ _____    ______ ____
ROOT
ATOM      1  C   UNL     1       3.196   6.907  18.175  0.00  0.00    +0.000 A 
ATOM      2  C   UNL     1       3.022   6.187  19.343  0.00  0.00    +0.000 A 
ATOM      3  C   UNL     1       2.060   6.549  20.255  0.00  0.00    +0.000 A 
ATOM      4  C   UNL     1       1.590   7.851  20.225  0.00  0.00    +0.000 A 
ATOM      5  C   UNL     1       0.939   8.334  21.375  0.00  0.00    +0.000 A 
ATOM      6  C   UNL     1       0.574   9.654  21.481  0.00  0.00    +0.000 A 
ATOM      7  C   UNL     1       0.779  10.474  20.388  0.00  0.00    +0.000 A 
ATOM      8  C   UNL     1       1.384   9.995  19.202  0.00  0.00    +0.000 A 
ATOM      9  C   UNL     1       1.875   8.663  19.086  0.00  0.00    +0.000 A 
ATOM     10  N   UNL     1       2.613   8.131  18.030  0.00  0.00    +0.000 NA
ENDROOT
BRANCH   1  14
ATOM     11  C   UNL     1       6.061   4.954  15.547  0.00  0.00    +0.000 A 
ATOM     12  C   UNL     1       5.165   4.211  16.298  0.00  0.00    +0.000 A 
ATOM     13  C   UNL     1       4.180   4.864  17.052  0.00  0.00    +0.000 A 
ATOM     14  C   UNL     1       4.072   6.279  17.131  0.00  0.00    +0.000 A 
ATOM     15  C   UNL     1       4.895   6.999  16.263  0.00  0.00    +0.000 A 
ATOM     16  C   UNL     1       5.884   6.341  15.497  0.00  0.00    +0.000 A 
BRANCH  11  17
ATOM     17  O   UNL     1       7.110   4.439  14.831  0.00  0.00    +0.000 OA
BRANCH  17  18
ATOM     18  C   UNL     1       6.997   4.498  13.403  0.00  0.00    +0.000 C 
BRANCH  18  20
ATOM     19  C   UNL     1       6.252   2.686  11.782  0.00  0.00    +0.000 C 
ATOM     20  C   UNL     1       5.845   3.621  12.910  0.00  0.00    +0.000 C 
ENDBRANCH  18  20
ENDBRANCH  17  18
ENDBRANCH  11  17
ENDBRANCH   1  14
BRANCH   8  21
ATOM     21  O   UNL     1       1.468  11.024  18.295  0.00  0.00    +0.000 OA
ATOM     22  C   UNL     1       1.117  12.329  18.711  0.00  0.00    +0.000 C 
ENDBRANCH   8  21
BRANCH   3  23
ATOM     23  O   UNL     1       1.565   5.668  21.196  0.00  0.00    +0.000 OA
BRANCH  23  24
ATOM     24  C   UNL     1       0.769   4.609  20.656  0.00  0.00    +0.000 C 
BRANCH  24  25
ATOM     25  C   UNL     1       1.109   3.232  21.232  0.00  0.00    +0.000 C 
BRANCH  25  26
ATOM     26  N   UNL     1       2.069   2.518  20.360  0.00  0.00    +0.000 NA
ATOM     27  C   UNL     1       1.951   2.939  18.967  0.00  0.00    +0.000 C 
ATOM     28  C   UNL     1       2.211   1.761  18.023  0.00  0.00    +0.000 C 
ATOM     29  C   UNL     1       3.675   1.386  17.816  0.00  0.00    +0.000 C 
ATOM     30  C   UNL     1       4.446   1.056  19.088  0.00  0.00    +0.000 C 
ATOM     31  C   UNL     1       4.616   2.277  19.980  0.00  0.00    +0.000 C 
ATOM     32  C   UNL     1       3.432   2.531  20.911  0.00  0.00    +0.000 C 
ENDBRANCH  25  26
ENDBRANCH  24  25
ENDBRANCH  23  24
ENDBRANCH   3  23
TORSDOF 9
ENDMDL
MODEL 3
REMARK VINA RESULT:      -6.9      2.306      8.028
REMARK  Name = 
REMARK  11 active torsions:
REMARK  status: ('A' for Active; 'I' for Inactive)
REMARK    1  A    between atoms: C_1  and  C_2
REMARK    2  A    between atoms: C_2  and  C_3
REMARK    3  A    between atoms: C_3  and  O_4
REMARK    4  A    between atoms: O_4  and  C_5
REMARK    5  A    between atoms: C_8  and  C_9
REMARK    6  A    between atoms: C_11  and  O_12
REMARK    7  A    between atoms: O_12  and  C_13
REMARK    8  A    between atoms: C_13  and  C_14
REMARK    9  A    between atoms: C_14  and  N_15
REMARK   10  A    between atoms: C_26  and  O_27
REMARK   11  A    between atoms: O_27  and  C_28
REMARK                            x       y       z     vdW  Elec       q    Type
REMARK                         _______ _______ _______ _____ _____    ______ ____
ROOT
ATOM      1  C   UNL     1       2.605   6.173  18.469  0.00  0.00    +0.000 A 
ATOM      2  C   UNL     1       3.596   5.938  17.533  0.00  0.00    +0.000 A 
ATOM      3  C   UNL     1       3.815   4.673  17.044  0.00  0.00    +0.000 A 
ATOM      4  C   UNL     1       3.370   3.598  17.794  0.00  0.00    +0.000 A 
ATOM      5  C   UNL     1       3.936   2.339  17.524  0.00  0.00    +0.000 A 
ATOM      6  C   UNL     1       3.658   1.251  18.317  0.00  0.00    +0.000 A 
ATOM      7  C   UNL     1       2.732   1.408  19.331  0.00  0.00    +0.000 A 
ATOM      8  C   UNL     1       2.111   2.654  19.586  0.00  0.00    +0.000 A 
ATOM      9  C   UNL     1       2.448   3.832  18.859  0.00  0.00    +0.000 A 
ATOM     10  N   UNL     1       2.014   5.130  19.119  0.00  0.00    +0.000 NA
ENDROOT
BRANCH   1  14
ATOM     11  C   UNL     1       1.106  10.184  19.241  0.00  0.00    +0.000 A 
ATOM     12  C   UNL     1       1.203   9.253  20.262  0.00  0.00    +0.000 A 
ATOM     13  C   UNL     1       1.791   8.005  20.013  0.00  0.00    +0.000 A 
ATOM     14  C   UNL     1       2.264   7.610  18.731  0.00  0.00    +0.000 A 
ATOM     15  C   UNL     1       2.280   8.610  17.758  0.00  0.00    +0.000 A 
ATOM     16  C   UNL     1       1.694   9.871  18.010  0.00  0.00    +0.000 A 
BRANCH  11  17
ATOM     17  O   UNL     1       0.490  11.404  19.339  0.00  0.00    +0.000 OA
BRANCH  17  18
ATOM     18  C   UNL     1       0.367  11.952  20.658  0.00  0.00    +0.000 C 
BRANCH  18  20
ATOM     19  C   UNL     1      -1.196  11.864  22.662  0.00  0.00    +0.000 C 
ATOM     20  C   UNL     1      -1.080  11.881  21.146  0.00  0.00    +0.000 C 
ENDBRANCH  18  20
ENDBRANCH  17  18
ENDBRANCH  11  17
ENDBRANCH   1  14
BRANCH   8  21
ATOM     21  O   UNL     1       1.251   2.517  20.649  0.00  0.00    +0.000 OA
ATOM     22  C   UNL     1       1.722   2.813  21.949  0.00  0.00    +0.000 C 
ENDBRANCH   8  21
BRANCH   3  23
ATOM     23  O   UNL     1       4.470   4.446  15.849  0.00  0.00    +0.000 OA
BRANCH  23  24
ATOM     24  C   UNL     1       5.233   5.557  15.371  0.00  0.00    +0.000 C 
BRANCH  24  25
ATOM     25  C   UNL     1       6.744   5.317  15.395  0.00  0.00    +0.000 C 
BRANCH  25  26
ATOM     26  N   UNL     1       7.354   5.907  16.609  0.00  0.00    +0.000 NA
ATOM     27  C   UNL     1       6.889   7.272  16.839  0.00  0.00    +0.000 C 
ATOM     28  C   UNL     1       8.007   8.129  17.438  0.00  0.00    +0.000 C 
ATOM     29  C   UNL     1       8.267   7.936  18.928  0.00  0.00    +0.000 C 
ATOM     30  C   UNL     1       8.590   6.508  19.350  0.00  0.00    +0.000 C 
ATOM     31  C   UNL     1       7.396   5.582  19.174  0.00  0.00    +0.000 C 
ATOM     32  C   UNL     1       7.264   5.005  17.766  0.00  0.00    +0.000 C 
ENDBRANCH  25  26
ENDBRANCH  24  25
ENDBRANCH  23  24
ENDBRANCH   3  23
TORSDOF 9
ENDMDL
MODEL 4
REMARK VINA RESULT:      -6.9      2.493      7.695
REMARK  Name = 
REMARK  11 active torsions:
REMARK  status: ('A' for Active; 'I' for Inactive)
REMARK    1  A    between atoms: C_1  and  C_2
REMARK    2  A    between atoms: C_2  and  C_3
REMARK    3  A    between atoms: C_3  and  O_4
REMARK    4  A    between atoms: O_4  and  C_5
REMARK    5  A    between atoms: C_8  and  C_9
REMARK    6  A    between atoms: C_11  and  O_12
REMARK    7  A    between atoms: O_12  and  C_13
REMARK    8  A    between atoms: C_13  and  C_14
REMARK    9  A    between atoms: C_14  and  N_15
REMARK   10  A    between atoms: C_26  and  O_27
REMARK   11  A    between atoms: O_27  and  C_28
REMARK                            x       y       z     vdW  Elec       q    Type
REMARK                         _______ _______ _______ _____ _____    ______ ____
ROOT
ATOM      1  C   UNL     1       2.511   6.600  18.882  0.00  0.00    +0.000 A 
ATOM      2  C   UNL     1       3.332   6.310  17.808  0.00  0.00    +0.000 A 
ATOM      3  C   UNL     1       3.680   5.013  17.520  0.00  0.00    +0.000 A 
ATOM      4  C   UNL     1       3.588   4.072  18.533  0.00  0.00    +0.000 A 
ATOM      5  C   UNL     1       4.312   2.876  18.376  0.00  0.00    +0.000 A 
ATOM      6  C   UNL     1       4.391   1.957  19.395  0.00  0.00    +0.000 A 
ATOM      7  C   UNL     1       3.662   2.198  20.544  0.00  0.00    +0.000 A 
ATOM      8  C   UNL     1       2.885   3.371  20.700  0.00  0.00    +0.000 A 
ATOM      9  C   UNL     1       2.859   4.399  19.716  0.00  0.00    +0.000 A 
ATOM     10  N   UNL     1       2.253   5.650  19.825  0.00  0.00    +0.000 NA
ENDROOT
BRANCH   1  14
ATOM     11  C   UNL     1       0.468  10.431  19.160  0.00  0.00    +0.000 A 
ATOM     12  C   UNL     1       0.780   9.709  20.300  0.00  0.00    +0.000 A 
ATOM     13  C   UNL     1       1.535   8.533  20.193  0.00  0.00    +0.000 A 
ATOM     14  C   UNL     1       1.971   7.999  18.949  0.00  0.00    +0.000 A 
ATOM     15  C   UNL     1       1.763   8.813  17.835  0.00  0.00    +0.000 A 
ATOM     16  C   UNL     1       1.008  10.002  17.942  0.00  0.00    +0.000 A 
BRANCH  11  17
ATOM     17  O   UNL     1      -0.322  11.551  19.125  0.00  0.00    +0.000 OA
BRANCH  17  18
ATOM     18  C   UNL     1      -1.187  11.686  17.991  0.00  0.00    +0.000 C 
BRANCH  18  20
ATOM     19  C   UNL     1      -2.844   9.796  17.603  0.00  0.00    +0.000 C 
ATOM     20  C   UNL     1      -2.577  11.123  18.294  0.00  0.00    +0.000 C 
ENDBRANCH  18  20
ENDBRANCH  17  18
ENDBRANCH  11  17
ENDBRANCH   1  14
BRANCH   8  21
ATOM     21  O   UNL     1       2.282   3.347  21.935  0.00  0.00    +0.000 OA
ATOM     22  C   UNL     1       1.186   2.477  22.141  0.00  0.00    +0.000 C 
ENDBRANCH   8  21
BRANCH   3  23
ATOM     23  O   UNL     1       4.127   4.627  16.271  0.00  0.00    +0.000 OA
BRANCH  23  24
ATOM     24  C   UNL     1       4.980   5.578  15.627  0.00  0.00    +0.000 C 
BRANCH  24  25
ATOM     25  C   UNL     1       6.457   5.177  15.633  0.00  0.00    +0.000 C 
BRANCH  25  26
ATOM     26  N   UNL     1       7.175   5.825  16.755  0.00  0.00    +0.000 NA
ATOM     27  C   UNL     1       6.725   7.198  16.964  0.00  0.00    +0.000 C 
ATOM     28  C   UNL     1       7.889   8.086  17.413  0.00  0.00    +0.000 C 
ATOM     29  C   UNL     1       8.292   7.963  18.878  0.00  0.00    +0.000 C 
ATOM     30  C   UNL     1       8.664   6.558  19.333  0.00  0.00    +0.000 C 
ATOM     31  C   UNL     1       7.465   5.621  19.316  0.00  0.00    +0.000 C 
ATOM     32  C   UNL     1       7.203   4.978  17.956  0.00  0.00    +0.000 C 
ENDBRANCH  25  26
ENDBRANCH  24  25
ENDBRANCH  23  24
ENDBRANCH   3  23
TORSDOF 9
ENDMDL
MODEL 5
REMARK VINA RESULT:      -6.8      4.339      8.110
REMARK  Name = 
REMARK  11 active torsions:
REMARK  status: ('A' for Active; 'I' for Inactive)
REMARK    1  A    between atoms: C_1  and  C_2
REMARK    2  A    between atoms: C_2  and  C_3
REMARK    3  A    between atoms: C_3  and  O_4
REMARK    4  A    between atoms: O_4  and  C_5
REMARK    5  A    between atoms: C_8  and  C_9
REMARK    6  A    between atoms: C_11  and  O_12
REMARK    7  A    between atoms: O_12  and  C_13
REMARK    8  A    between atoms: C_13  and  C_14
REMARK    9  A    between atoms: C_14  and  N_15
REMARK   10  A    between atoms: C_26  and  O_27
REMARK   11  A    between atoms: O_27  and  C_28
REMARK                            x       y       z     vdW  Elec       q    Type
REMARK                         _______ _______ _______ _____ _____    ______ ____
ROOT
ATOM      1  C   UNL     1       1.320  11.333  18.854  0.00  0.00    +0.000 A 
ATOM      2  C   UNL     1       0.111  11.796  19.338  0.00  0.00    +0.000 A 
ATOM      3  C   UNL     1      -0.291  13.089  19.107  0.00  0.00    +0.000 A 
ATOM      4  C   UNL     1       0.679  14.027  18.795  0.00  0.00    +0.000 A 
ATOM      5  C   UNL     1       0.348  15.384  18.963  0.00  0.00    +0.000 A 
ATOM      6  C   UNL     1       1.296  16.368  18.817  0.00  0.00    +0.000 A 
ATOM      7  C   UNL     1       2.561  15.994  18.407  0.00  0.00    +0.000 A 
ATOM      8  C   UNL     1       2.900  14.639  18.181  0.00  0.00    +0.000 A 
ATOM      9  C   UNL     1       1.982  13.577  18.424  0.00  0.00    +0.000 A 
ATOM     10  N   UNL     1       2.250  12.210  18.378  0.00  0.00    +0.000 NA
ENDROOT
BRANCH   1  14
ATOM     11  C   UNL     1       2.376   7.143  19.364  0.00  0.00    +0.000 A 
ATOM     12  C   UNL     1       1.694   7.829  20.355  0.00  0.00    +0.000 A 
ATOM     13  C   UNL     1       1.268   9.145  20.123  0.00  0.00    +0.000 A 
ATOM     14  C   UNL     1       1.541   9.850  18.920  0.00  0.00    +0.000 A 
ATOM     15  C   UNL     1       2.107   9.096  17.891  0.00  0.00    +0.000 A 
ATOM     16  C   UNL     1       2.530   7.767  18.120  0.00  0.00    +0.000 A 
BRANCH  11  17
ATOM     17  O   UNL     1       2.906   5.886  19.494  0.00  0.00    +0.000 OA
BRANCH  17  18
ATOM     18  C   UNL     1       1.999   4.790  19.320  0.00  0.00    +0.000 C 
BRANCH  18  20
ATOM     19  C   UNL     1       1.217   2.785  20.673  0.00  0.00    +0.000 C 
ATOM     20  C   UNL     1       1.494   4.280  20.670  0.00  0.00    +0.000 C 
ENDBRANCH  18  20
ENDBRANCH  17  18
ENDBRANCH  11  17
ENDBRANCH   1  14
BRANCH   8  21
ATOM     21  O   UNL     1       4.217  14.565  17.795  0.00  0.00    +0.000 OA
ATOM     22  C   UNL     1       5.087  15.628  18.132  0.00  0.00    +0.000 C 
ENDBRANCH   8  21
BRANCH   3  23
ATOM     23  O   UNL     1      -1.614  13.478  19.189  0.00  0.00    +0.000 OA
BRANCH  23  24
ATOM     24  C   UNL     1      -2.398  12.720  20.114  0.00  0.00    +0.000 C 
BRANCH  24  25
ATOM     25  C   UNL     1      -3.656  12.109  19.492  0.00  0.00    +0.000 C 
BRANCH  25  26
ATOM     26  N   UNL     1      -3.370  11.569  18.143  0.00  0.00    +0.000 NA
ATOM     27  C   UNL     1      -2.880  10.195  18.204  0.00  0.00    +0.000 C 
ATOM     28  C   UNL     1      -1.842   9.943  17.105  0.00  0.00    +0.000 C 
ATOM     29  C   UNL     1      -2.400   9.713  15.705  0.00  0.00    +0.000 C 
ATOM     30  C   UNL     1      -3.286  10.830  15.169  0.00  0.00    +0.000 C 
ATOM     31  C   UNL     1      -4.587  10.945  15.949  0.00  0.00    +0.000 C 
ATOM     32  C   UNL     1      -4.479  11.804  17.207  0.00  0.00    +0.000 C 
ENDBRANCH  25  26
ENDBRANCH  24  25
ENDBRANCH  23  24
ENDBRANCH   3  23
TORSDOF 9
ENDMDL
MODEL 6
REMARK VINA RESULT:      -6.8      2.191      7.861
REMARK  Name = 
REMARK  11 active torsions:
REMARK  status: ('A' for Active; 'I' for Inactive)
REMARK    1  A    between atoms: C_1  and  C_2
REMARK    2  A    between atoms: C_2  and  C_3
REMARK    3  A    between atoms: C_3  and  O_4
REMARK    4  A    between atoms: O_4  and  C_5
REMARK    5  A    between atoms: C_8  and  C_9
REMARK    6  A    between atoms: C_11  and  O_12
REMARK    7  A    between atoms: O_12  and  C_13
REMARK    8  A    between atoms: C_13  and  C_14
REMARK    9  A    between atoms: C_14  and  N_15
REMARK   10  A    between atoms: C_26  and  O_27
REMARK   11  A    between atoms: O_27  and  C_28
REMARK                            x       y       z     vdW  Elec       q    Type
REMARK                         _______ _______ _______ _____ _____    ______ ____
ROOT
ATOM      1  C   UNL     1       2.448   6.923  19.159  0.00  0.00    +0.000 A 
ATOM      2  C   UNL     1       3.374   6.749  18.147  0.00  0.00    +0.000 A 
ATOM      3  C   UNL     1       3.823   5.494  17.813  0.00  0.00    +0.000 A 
ATOM      4  C   UNL     1       3.701   4.486  18.754  0.00  0.00    +0.000 A 
ATOM      5  C   UNL     1       4.506   3.344  18.591  0.00  0.00    +0.000 A 
ATOM      6  C   UNL     1       4.553   2.365  19.555  0.00  0.00    +0.000 A 
ATOM      7  C   UNL     1       3.715   2.490  20.647  0.00  0.00    +0.000 A 
ATOM      8  C   UNL     1       2.858   3.606  20.804  0.00  0.00    +0.000 A 
ATOM      9  C   UNL     1       2.854   4.694  19.885  0.00  0.00    +0.000 A 
ATOM     10  N   UNL     1       2.168   5.900  20.016  0.00  0.00    +0.000 NA
ENDROOT
BRANCH   1  14
ATOM     11  C   UNL     1       0.161  10.611  19.462  0.00  0.00    +0.000 A 
ATOM     12  C   UNL     1       0.370   9.812  20.574  0.00  0.00    +0.000 A 
ATOM     13  C   UNL     1       1.201   8.688  20.476  0.00  0.00    +0.000 A 
ATOM     14  C   UNL     1       1.821   8.282  19.262  0.00  0.00    +0.000 A 
ATOM     15  C   UNL     1       1.706   9.175  18.196  0.00  0.00    +0.000 A 
ATOM     16  C   UNL     1       0.874  10.313  18.295  0.00  0.00    +0.000 A 
BRANCH  11  17
ATOM     17  O   UNL     1      -0.684  11.689  19.411  0.00  0.00    +0.000 OA
BRANCH  17  18
ATOM     18  C   UNL     1      -1.403  11.878  18.186  0.00  0.00    +0.000 C 
BRANCH  18  20
ATOM     19  C   UNL     1      -2.686  10.010  17.031  0.00  0.00    +0.000 C 
ATOM     20  C   UNL     1      -2.673  11.026  18.163  0.00  0.00    +0.000 C 
ENDBRANCH  18  20
ENDBRANCH  17  18
ENDBRANCH  11  17
ENDBRANCH   1  14
BRANCH   8  21
ATOM     21  O   UNL     1       2.154   3.468  21.976  0.00  0.00    +0.000 OA
ATOM     22  C   UNL     1       1.112   2.515  22.037  0.00  0.00    +0.000 C 
ENDBRANCH   8  21
BRANCH   3  23
ATOM     23  O   UNL     1       4.397   5.216  16.588  0.00  0.00    +0.000 OA
BRANCH  23  24
ATOM     24  C   UNL     1       5.493   6.067  16.241  0.00  0.00    +0.000 C 
BRANCH  24  25
ATOM     25  C   UNL     1       6.788   5.306  15.945  0.00  0.00    +0.000 C 
BRANCH  25  26
ATOM     26  N   UNL     1       6.722   4.645  14.621  0.00  0.00    +0.000 NA
ATOM     27  C   UNL     1       5.353   4.581  14.117  0.00  0.00    +0.000 C 
ATOM     28  C   UNL     1       5.129   3.288  13.327  0.00  0.00    +0.000 C 
ATOM     29  C   UNL     1       5.683   3.273  11.907  0.00  0.00    +0.000 C 
ATOM     30  C   UNL     1       7.175   3.558  11.790  0.00  0.00    +0.000 C 
ATOM     31  C   UNL     1       7.510   4.990  12.182  0.00  0.00    +0.000 C 
ATOM     32  C   UNL     1       7.715   5.187  13.683  0.00  0.00    +0.000 C 
ENDBRANCH  25  26
ENDBRANCH  24  25
ENDBRANCH  23  24
ENDBRANCH   3  23
TORSDOF 9
ENDMDL
MODEL 7
REMARK VINA RESULT:      -6.8      2.205      7.653
REMARK  Name = 
REMARK  11 active torsions:
REMARK  status: ('A' for Active; 'I' for Inactive)
REMARK    1  A    between atoms: C_1  and  C_2
REMARK    2  A    between atoms: C_2  and  C_3
REMARK    3  A    between atoms: C_3  and  O_4
REMARK    4  A    between atoms: O_4  and  C_5
REMARK    5  A    between atoms: C_8  and  C_9
REMARK    6  A    between atoms: C_11  and  O_12
REMARK    7  A    between atoms: O_12  and  C_13
REMARK    8  A    between atoms: C_13  and  C_14
REMARK    9  A    between atoms: C_14  and  N_15
REMARK   10  A    between atoms: C_26  and  O_27
REMARK   11  A    between atoms: O_27  and  C_28
REMARK                            x       y       z     vdW  Elec       q    Type
REMARK                         _______ _______ _______ _____ _____    ______ ____
ROOT
ATOM      1  C   UNL     1       2.711   6.372  18.792  0.00  0.00    +0.000 A 
ATOM      2  C   UNL     1       3.472   6.022  17.691  0.00  0.00    +0.000 A 
ATOM      3  C   UNL     1       3.745   4.704  17.415  0.00  0.00    +0.000 A 
ATOM      4  C   UNL     1       3.651   3.788  18.450  0.00  0.00    +0.000 A 
ATOM      5  C   UNL     1       4.310   2.556  18.288  0.00  0.00    +0.000 A 
ATOM      6  C   UNL     1       4.388   1.653  19.322  0.00  0.00    +0.000 A 
ATOM      7  C   UNL     1       3.721   1.950  20.494  0.00  0.00    +0.000 A 
ATOM      8  C   UNL     1       3.008   3.162  20.658  0.00  0.00    +0.000 A 
ATOM      9  C   UNL     1       2.989   4.172  19.655  0.00  0.00    +0.000 A 
ATOM     10  N   UNL     1       2.449   5.452  19.764  0.00  0.00    +0.000 NA
ENDROOT
BRANCH   1  14
ATOM     11  C   UNL     1       0.855  10.302  18.957  0.00  0.00    +0.000 A 
ATOM     12  C   UNL     1       0.930   9.505  20.087  0.00  0.00    +0.000 A 
ATOM     13  C   UNL     1       1.630   8.291  20.036  0.00  0.00    +0.000 A 
ATOM     14  C   UNL     1       2.242   7.795  18.853  0.00  0.00    +0.000 A 
ATOM     15  C   UNL     1       2.269   8.676  17.770  0.00  0.00    +0.000 A 
ATOM     16  C   UNL     1       1.570   9.904  17.822  0.00  0.00    +0.000 A 
BRANCH  11  17
ATOM     17  O   UNL     1       0.142  11.469  18.859  0.00  0.00    +0.000 OA
BRANCH  17  18
ATOM     18  C   UNL     1       0.729  12.628  19.464  0.00  0.00    +0.000 C 
BRANCH  18  20
ATOM     19  C   UNL     1       2.903  13.827  18.915  0.00  0.00    +0.000 C 
ATOM     20  C   UNL     1       1.512  13.444  18.435  0.00  0.00    +0.000 C 
ENDBRANCH  18  20
ENDBRANCH  17  18
ENDBRANCH  11  17
ENDBRANCH   1  14
BRANCH   8  21
ATOM     21  O   UNL     1       2.457   3.190  21.917  0.00  0.00    +0.000 OA
ATOM     22  C   UNL     1       1.206   2.565  22.128  0.00  0.00    +0.000 C 
ENDBRANCH   8  21
BRANCH   3  23
ATOM     23  O   UNL     1       4.120   4.274  16.157  0.00  0.00    +0.000 OA
BRANCH  23  24
ATOM     24  C   UNL     1       5.094   5.102  15.514  0.00  0.00    +0.000 C 
BRANCH  24  25
ATOM     25  C   UNL     1       6.535   4.642  15.745  0.00  0.00    +0.000 C 
BRANCH  25  26
ATOM     26  N   UNL     1       7.191   5.462  16.789  0.00  0.00    +0.000 NA
ATOM     27  C   UNL     1       6.687   6.833  16.795  0.00  0.00    +0.000 C 
ATOM     28  C   UNL     1       7.805   7.817  17.154  0.00  0.00    +0.000 C 
ATOM     29  C   UNL     1       8.158   7.909  18.635  0.00  0.00    +0.000 C 
ATOM     30  C   UNL     1       8.560   6.594  19.289  0.00  0.00    +0.000 C 
ATOM     31  C   UNL     1       7.395   5.618  19.362  0.00  0.00    +0.000 C 
ATOM     32  C   UNL     1       7.204   4.787  18.095  0.00  0.00    +0.000 C 
ENDBRANCH  25  26
ENDBRANCH  24  25
ENDBRANCH  23  24
ENDBRANCH   3  23
TORSDOF 9
ENDMDL
MODEL 8
REMARK VINA RESULT:      -6.7      4.436      8.553
REMARK  Name = 
REMARK  11 active torsions:
REMARK  status: ('A' for Active; 'I' for Inactive)
REMARK    1  A    between atoms: C_1  and  C_2
REMARK    2  A    between atoms: C_2  and  C_3
REMARK    3  A    between atoms: C_3  and  O_4
REMARK    4  A    between atoms: O_4  and  C_5
REMARK    5  A    between atoms: C_8  and  C_9
REMARK    6  A    between atoms: C_11  and  O_12
REMARK    7  A    between atoms: O_12  and  C_13
REMARK    8  A    between atoms: C_13  and  C_14
REMARK    9  A    between atoms: C_14  and  N_15
REMARK   10  A    between atoms: C_26  and  O_27
REMARK   11  A    between atoms: O_27  and  C_28
REMARK                            x       y       z     vdW  Elec       q    Type
REMARK                         _______ _______ _______ _____ _____    ______ ____
ROOT
ATOM      1  C   UNL     1       1.098  10.211  19.047  0.00  0.00    +0.000 A 
ATOM      2  C   UNL     1      -0.276  10.331  19.139  0.00  0.00    +0.000 A 
ATOM      3  C   UNL     1      -0.908  11.491  18.763  0.00  0.00    +0.000 A 
ATOM      4  C   UNL     1      -0.161  12.657  18.725  0.00  0.00    +0.000 A 
ATOM      5  C   UNL     1      -0.860  13.877  18.749  0.00  0.00    +0.000 A 
ATOM      6  C   UNL     1      -0.194  15.075  18.861  0.00  0.00    +0.000 A 
ATOM      7  C   UNL     1       1.188  15.050  18.854  0.00  0.00    +0.000 A 
ATOM      8  C   UNL     1       1.910  13.836  18.777  0.00  0.00    +0.000 A 
ATOM      9  C   UNL     1       1.263  12.568  18.767  0.00  0.00    +0.000 A 
ATOM     10  N   UNL     1       1.871  11.316  18.842  0.00  0.00    +0.000 NA
ENDROOT
BRANCH   1  14
ATOM     11  C   UNL     1       2.310   6.038  19.252  0.00  0.00    +0.000 A 
ATOM     12  C   UNL     1       2.540   6.789  18.111  0.00  0.00    +0.000 A 
ATOM     13  C   UNL     1       2.241   8.158  18.108  0.00  0.00    +0.000 A 
ATOM     14  C   UNL     1       1.660   8.830  19.217  0.00  0.00    +0.000 A 
ATOM     15  C   UNL     1       1.566   8.086  20.394  0.00  0.00    +0.000 A 
ATOM     16  C   UNL     1       1.873   6.706  20.401  0.00  0.00    +0.000 A 
BRANCH  11  17
ATOM     17  O   UNL     1       2.490   4.683  19.356  0.00  0.00    +0.000 OA
BRANCH  17  18
ATOM     18  C   UNL     1       1.550   3.859  18.656  0.00  0.00    +0.000 C 
BRANCH  18  20
ATOM     19  C   UNL     1       1.365   2.966  21.030  0.00  0.00    +0.000 C 
ATOM     20  C   UNL     1       0.777   2.967  19.628  0.00  0.00    +0.000 C 
ENDBRANCH  18  20
ENDBRANCH  17  18
ENDBRANCH  11  17
ENDBRANCH   1  14
BRANCH   8  21
ATOM     21  O   UNL     1       3.256  14.114  18.798  0.00  0.00    +0.000 OA
ATOM     22  C   UNL     1       3.778  15.031  17.856  0.00  0.00    +0.000 C 
ENDBRANCH   8  21
BRANCH   3  23
ATOM     23  O   UNL     1      -2.250  11.532  18.440  0.00  0.00    +0.000 OA
BRANCH  23  24
ATOM     24  C   UNL     1      -2.590  10.838  17.235  0.00  0.00    +0.000 C 
BRANCH  24  25
ATOM     25  C   UNL     1      -3.890  11.329  16.594  0.00  0.00    +0.000 C 
BRANCH  25  26
ATOM     26  N   UNL     1      -4.920  11.597  17.624  0.00  0.00    +0.000 NA
ATOM     27  C   UNL     1      -5.931  12.535  17.146  0.00  0.00    +0.000 C 
ATOM     28  C   UNL     1      -6.415  13.436  18.287  0.00  0.00    +0.000 C 
ATOM     29  C   UNL     1      -7.413  12.807  19.252  0.00  0.00    +0.000 C 
ATOM     30  C   UNL     1      -6.941  11.526  19.929  0.00  0.00    +0.000 C 
ATOM     31  C   UNL     1      -6.789  10.384  18.935  0.00  0.00    +0.000 C 
ATOM     32  C   UNL     1      -5.438  10.359  18.224  0.00  0.00    +0.000 C 
ENDBRANCH  25  26
ENDBRANCH  24  25
ENDBRANCH  23  24
ENDBRANCH   3  23
TORSDOF 9
ENDMDL
MODEL 9
REMARK VINA RESULT:      -6.6      4.599      8.972
REMARK  Name = 
REMARK  11 active torsions:
REMARK  status: ('A' for Active; 'I' for Inactive)
REMARK    1  A    between atoms: C_1  and  C_2
REMARK    2  A    between atoms: C_2  and  C_3
REMARK    3  A    between atoms: C_3  and  O_4
REMARK    4  A    between atoms: O_4  and  C_5
REMARK    5  A    between atoms: C_8  and  C_9
REMARK    6  A    between atoms: C_11  and  O_12
REMARK    7  A    between atoms: O_12  and  C_13
REMARK    8  A    between atoms: C_13  and  C_14
REMARK    9  A    between atoms: C_14  and  N_15
REMARK   10  A    between atoms: C_26  and  O_27
REMARK   11  A    between atoms: O_27  and  C_28
REMARK                            x       y       z     vdW  Elec       q    Type
REMARK                         _______ _______ _______ _____ _____    ______ ____
ROOT
ATOM      1  C   UNL     1       1.144  10.779  18.869  0.00  0.00    +0.000 A 
ATOM      2  C   UNL     1      -0.138  11.157  19.224  0.00  0.00    +0.000 A 
ATOM      3  C   UNL     1      -0.603  12.418  18.942  0.00  0.00    +0.000 A 
ATOM      4  C   UNL     1       0.326  13.422  18.723  0.00  0.00    +0.000 A 
ATOM      5  C   UNL     1      -0.114  14.752  18.844  0.00  0.00    +0.000 A 
ATOM      6  C   UNL     1       0.774  15.800  18.787  0.00  0.00    +0.000 A 
ATOM      7  C   UNL     1       2.097  15.515  18.512  0.00  0.00    +0.000 A 
ATOM      8  C   UNL     1       2.550  14.186  18.334  0.00  0.00    +0.000 A 
ATOM      9  C   UNL     1       1.688  13.064  18.490  0.00  0.00    +0.000 A 
ATOM     10  N   UNL     1       2.054  11.719  18.483  0.00  0.00    +0.000 NA
ENDROOT
BRANCH   1  14
ATOM     11  C   UNL     1       2.480   6.681  19.455  0.00  0.00    +0.000 A 
ATOM     12  C   UNL     1       1.805   7.357  20.457  0.00  0.00    +0.000 A 
ATOM     13  C   UNL     1       1.288   8.636  20.207  0.00  0.00    +0.000 A 
ATOM     14  C   UNL     1       1.459   9.316  18.970  0.00  0.00    +0.000 A 
ATOM     15  C   UNL     1       2.020   8.562  17.938  0.00  0.00    +0.000 A 
ATOM     16  C   UNL     1       2.536   7.270  18.187  0.00  0.00    +0.000 A 
BRANCH  11  17
ATOM     17  O   UNL     1       3.092   5.463  19.598  0.00  0.00    +0.000 OA
BRANCH  17  18
ATOM     18  C   UNL     1       2.564   4.387  18.812  0.00  0.00    +0.000 C 
BRANCH  18  20
ATOM     19  C   UNL     1       1.409   3.473  20.884  0.00  0.00    +0.000 C 
ATOM     20  C   UNL     1       1.266   3.854  19.419  0.00  0.00    +0.000 C 
ENDBRANCH  18  20
ENDBRANCH  17  18
ENDBRANCH  11  17
ENDBRANCH   1  14
BRANCH   8  21
ATOM     21  O   UNL     1       3.902  14.204  18.084  0.00  0.00    +0.000 OA
ATOM     22  C   UNL     1       4.744  14.948  18.943  0.00  0.00    +0.000 C 
ENDBRANCH   8  21
BRANCH   3  23
ATOM     23  O   UNL     1      -1.951  12.714  18.885  0.00  0.00    +0.000 OA
BRANCH  23  24
ATOM     24  C   UNL     1      -2.703  12.275  20.020  0.00  0.00    +0.000 C 
BRANCH  24  25
ATOM     25  C   UNL     1      -3.736  13.296  20.502  0.00  0.00    +0.000 C 
BRANCH  25  26
ATOM     26  N   UNL     1      -5.024  12.636  20.818  0.00  0.00    +0.000 NA
ATOM     27  C   UNL     1      -5.889  13.495  21.621  0.00  0.00    +0.000 C 
ATOM     28  C   UNL     1      -6.705  12.662  22.614  0.00  0.00    +0.000 C 
ATOM     29  C   UNL     1      -7.914  11.936  22.035  0.00  0.00    +0.000 C 
ATOM     30  C   UNL     1      -7.612  10.993  20.877  0.00  0.00    +0.000 C 
ATOM     31  C   UNL     1      -7.146  11.747  19.640  0.00  0.00    +0.000 C 
ATOM     32  C   UNL     1      -5.649  12.046  19.626  0.00  0.00    +0.000 C 
ENDBRANCH  25  26
ENDBRANCH  24  25
ENDBRANCH  23  24
ENDBRANCH   3  23
TORSDOF 9
ENDMDL
