MODEL 1
REMARK VINA RESULT:      -5.4      0.000      0.000
REMARK  Name = 
REMARK  5 active torsions:
REMARK  status: ('A' for Active; 'I' for Inactive)
REMARK    1  A    between atoms: C_1  and  C_2
REMARK    2  A    between atoms: N_4  and  C_5
REMARK    3  A    between atoms: C_8  and  C_9
REMARK    4  A    between atoms: C_9  and  O_10
REMARK    5  A    between atoms: C_11  and  O_12
REMARK                            x       y       z     vdW  Elec       q    Type
REMARK                         _______ _______ _______ _____ _____    ______ ____
ROOT
ATOM      1  C   UNK     1       4.900   3.732  18.700  0.00  0.00    +0.000 C 
ATOM      2  C   UNK     1       3.666   4.329  17.998  0.00  0.00    +0.000 C 
ATOM      3  N   UNK     1       2.480   3.954  18.789  0.00  0.00    +0.000 NA
ATOM      4  C   UNK     1       2.855   2.733  19.524  0.00  0.00    +0.000 C 
ATOM      5  C   UNK     1       4.324   2.949  19.891  0.00  0.00    +0.000 C 
ATOM      6  H   UNK     1       1.699   3.758  18.161  0.00  0.00    +0.000 HD
ENDROOT
BRANCH   1  10
ATOM      7  C   UNK     1       7.928   6.002  18.994  0.00  0.00    +0.000 C 
ATOM      8  C   UNK     1       6.993   5.009  18.361  0.00  0.00    +0.000 C 
ATOM      9  O   UNK     1       7.202   4.496  17.267  0.00  0.00    +0.000 OA
ATOM     10  N   UNK     1       5.881   4.730  19.118  0.00  0.00    +0.000 N 
ATOM     11  H   UNK     1       5.783   5.165  20.029  0.00  0.00    +0.000 HD
ENDBRANCH   1  10
BRANCH   5  12
ATOM     12  O   UNK     1       5.019   1.723  20.103  0.00  0.00    +0.000 OA
ATOM     13  H   UNK     1       5.674   1.857  20.811  0.00  0.00    +0.000 HD
ENDBRANCH   5  12
BRANCH   4  14
ATOM     14  C   UNK     1       1.978   2.539  20.767  0.00  0.00    +0.000 C 
BRANCH  14  15
ATOM     15  O   UNK     1       2.792   2.521  21.939  0.00  0.00    +0.000 OA
ATOM     16  H   UNK     1       3.049   3.448  22.089  0.00  0.00    +0.000 HD
ENDBRANCH  14  15
ENDBRANCH   4  14
TORSDOF 4
ENDMDL
MODEL 2
REMARK VINA RESULT:      -5.3      2.154      4.779
REMARK  Name = 
REMARK  5 active torsions:
REMARK  status: ('A' for Active; 'I' for Inactive)
REMARK    1  A    between atoms: C_1  and  C_2
REMARK    2  A    between atoms: N_4  and  C_5
REMARK    3  A    between atoms: C_8  and  C_9
REMARK    4  A    between atoms: C_9  and  O_10
REMARK    5  A    between atoms: C_11  and  O_12
REMARK                            x       y       z     vdW  Elec       q    Type
REMARK                         _______ _______ _______ _____ _____    ______ ____
ROOT
ATOM      1  C   UNK     1       4.275   5.056  19.102  0.00  0.00    +0.000 C 
ATOM      2  C   UNK     1       3.679   5.357  17.714  0.00  0.00    +0.000 C 
ATOM      3  N   UNK     1       4.732   5.107  16.714  0.00  0.00    +0.000 NA
ATOM      4  C   UNK     1       6.012   5.264  17.429  0.00  0.00    +0.000 C 
ATOM      5  C   UNK     1       5.741   4.688  18.819  0.00  0.00    +0.000 C 
ATOM      6  H   UNK     1       4.662   5.799  15.965  0.00  0.00    +0.000 HD
ENDROOT
BRANCH   1  10
ATOM      7  C   UNK     1       1.973   3.084  21.385  0.00  0.00    +0.000 C 
ATOM      8  C   UNK     1       2.512   4.284  20.658  0.00  0.00    +0.000 C 
ATOM      9  O   UNK     1       2.046   5.411  20.789  0.00  0.00    +0.000 OA
ATOM     10  N   UNK     1       3.573   4.003  19.831  0.00  0.00    +0.000 N 
ATOM     11  H   UNK     1       3.930   3.055  19.792  0.00  0.00    +0.000 HD
ENDBRANCH   1  10
BRANCH   5  12
ATOM     12  O   UNK     1       6.619   5.218  19.809  0.00  0.00    +0.000 OA
ATOM     13  H   UNK     1       7.081   5.988  19.432  0.00  0.00    +0.000 HD
ENDBRANCH   5  12
BRANCH   4  14
ATOM     14  C   UNK     1       7.144   4.519  16.712  0.00  0.00    +0.000 C 
BRANCH  14  15
ATOM     15  O   UNK     1       8.127   4.101  17.659  0.00  0.00    +0.000 OA
ATOM     16  H   UNK     1       7.959   4.634  18.457  0.00  0.00    +0.000 HD
ENDBRANCH  14  15
ENDBRANCH   4  14
TORSDOF 4
ENDMDL
MODEL 3
REMARK VINA RESULT:      -5.3      1.722      4.864
REMARK  Name = 
REMARK  5 active torsions:
REMARK  status: ('A' for Active; 'I' for Inactive)
REMARK    1  A    between atoms: C_1  and  C_2
REMARK    2  A    between atoms: N_4  and  C_5
REMARK    3  A    between atoms: C_8  and  C_9
REMARK    4  A    between atoms: C_9  and  O_10
REMARK    5  A    between atoms: C_11  and  O_12
REMARK                            x       y       z     vdW  Elec       q    Type
REMARK                         _______ _______ _______ _____ _____    ______ ____
ROOT
ATOM      1  C   UNK     1       3.796   4.973  18.527  0.00  0.00    +0.000 C 
ATOM      2  C   UNK     1       3.840   6.285  17.721  0.00  0.00    +0.000 C 
ATOM      3  N   UNK     1       5.031   6.235  16.854  0.00  0.00    +0.000 NA
ATOM      4  C   UNK     1       5.967   5.304  17.509  0.00  0.00    +0.000 C 
ATOM      5  C   UNK     1       5.068   4.219  18.104  0.00  0.00    +0.000 C 
ATOM      6  H   UNK     1       5.447   7.165  16.793  0.00  0.00    +0.000 HD
ENDROOT
BRANCH   1  10
ATOM      7  C   UNK     1       0.960   2.460  18.759  0.00  0.00    +0.000 C 
ATOM      8  C   UNK     1       2.177   3.225  19.200  0.00  0.00    +0.000 C 
ATOM      9  O   UNK     1       2.751   3.016  20.263  0.00  0.00    +0.000 OA
ATOM     10  N   UNK     1       2.588   4.183  18.304  0.00  0.00    +0.000 N 
ATOM     11  H   UNK     1       2.088   4.285  17.428  0.00  0.00    +0.000 HD
ENDBRANCH   1  10
BRANCH   5  12
ATOM     12  O   UNK     1       5.677   3.551  19.206  0.00  0.00    +0.000 OA
ATOM     13  H   UNK     1       4.984   3.082  19.705  0.00  0.00    +0.000 HD
ENDBRANCH   5  12
BRANCH   4  14
ATOM     14  C   UNK     1       6.972   4.726  16.505  0.00  0.00    +0.000 C 
BRANCH  14  15
ATOM     15  O   UNK     1       8.051   4.102  17.201  0.00  0.00    +0.000 OA
ATOM     16  H   UNK     1       8.221   4.670  17.974  0.00  0.00    +0.000 HD
ENDBRANCH  14  15
ENDBRANCH   4  14
TORSDOF 4
ENDMDL
MODEL 4
REMARK VINA RESULT:      -5.3      3.320      4.540
REMARK  Name = 
REMARK  5 active torsions:
REMARK  status: ('A' for Active; 'I' for Inactive)
REMARK    1  A    between atoms: C_1  and  C_2
REMARK    2  A    between atoms: N_4  and  C_5
REMARK    3  A    between atoms: C_8  and  C_9
REMARK    4  A    between atoms: C_9  and  O_10
REMARK    5  A    between atoms: C_11  and  O_12
REMARK                            x       y       z     vdW  Elec       q    Type
REMARK                         _______ _______ _______ _____ _____    ______ ____
ROOT
ATOM      1  C   UNK     1       5.147   5.025  16.647  0.00  0.00    +0.000 C 
ATOM      2  C   UNK     1       5.238   6.558  16.522  0.00  0.00    +0.000 C 
ATOM      3  N   UNK     1       6.346   7.009  17.384  0.00  0.00    +0.000 NA
ATOM      4  C   UNK     1       6.502   5.970  18.417  0.00  0.00    +0.000 C 
ATOM      5  C   UNK     1       6.227   4.659  17.679  0.00  0.00    +0.000 C 
ATOM      6  H   UNK     1       6.098   7.901  17.817  0.00  0.00    +0.000 HD
ENDROOT
BRANCH   1  10
ATOM      7  C   UNK     1       6.394   3.788  13.283  0.00  0.00    +0.000 C 
ATOM      8  C   UNK     1       6.421   4.547  14.580  0.00  0.00    +0.000 C 
ATOM      9  O   UNK     1       7.336   5.301  14.895  0.00  0.00    +0.000 OA
ATOM     10  N   UNK     1       5.330   4.318  15.383  0.00  0.00    +0.000 N 
ATOM     11  H   UNK     1       4.594   3.706  15.050  0.00  0.00    +0.000 HD
ENDBRANCH   1  10
BRANCH   5  12
ATOM     12  O   UNK     1       5.790   3.623  18.555  0.00  0.00    +0.000 OA
ATOM     13  H   UNK     1       6.258   3.717  19.404  0.00  0.00    +0.000 HD
ENDBRANCH   5  12
BRANCH   4  14
ATOM     14  C   UNK     1       7.908   5.998  19.027  0.00  0.00    +0.000 C 
BRANCH  14  15
ATOM     15  O   UNK     1       7.885   5.415  20.330  0.00  0.00    +0.000 OA
ATOM     16  H   UNK     1       8.573   5.885  20.835  0.00  0.00    +0.000 HD
ENDBRANCH  14  15
ENDBRANCH   4  14
TORSDOF 4
ENDMDL
MODEL 5
REMARK VINA RESULT:      -5.2      1.135      1.188
REMARK  Name = 
REMARK  5 active torsions:
REMARK  status: ('A' for Active; 'I' for Inactive)
REMARK    1  A    between atoms: C_1  and  C_2
REMARK    2  A    between atoms: N_4  and  C_5
REMARK    3  A    between atoms: C_8  and  C_9
REMARK    4  A    between atoms: C_9  and  O_10
REMARK    5  A    between atoms: C_11  and  O_12
REMARK                            x       y       z     vdW  Elec       q    Type
REMARK                         _______ _______ _______ _____ _____    ______ ____
ROOT
ATOM      1  C   UNK     1       4.140   3.516  17.890  0.00  0.00    +0.000 C 
ATOM      2  C   UNK     1       2.732   3.312  17.297  0.00  0.00    +0.000 C 
ATOM      3  N   UNK     1       1.814   3.040  18.416  0.00  0.00    +0.000 NA
ATOM      4  C   UNK     1       2.649   2.494  19.500  0.00  0.00    +0.000 C 
ATOM      5  C   UNK     1       3.960   3.276  19.398  0.00  0.00    +0.000 C 
ATOM      6  H   UNK     1       1.119   2.349  18.127  0.00  0.00    +0.000 HD
ENDROOT
BRANCH   1  10
ATOM      7  C   UNK     1       6.439   6.516  17.545  0.00  0.00    +0.000 C 
ATOM      8  C   UNK     1       6.048   5.089  17.816  0.00  0.00    +0.000 C 
ATOM      9  O   UNK     1       6.846   4.237  18.190  0.00  0.00    +0.000 OA
ATOM     10  N   UNK     1       4.717   4.827  17.605  0.00  0.00    +0.000 N 
ATOM     11  H   UNK     1       4.103   5.584  17.325  0.00  0.00    +0.000 HD
ENDBRANCH   1  10
BRANCH   5  12
ATOM     12  O   UNK     1       5.063   2.566  19.955  0.00  0.00    +0.000 OA
ATOM     13  H   UNK     1       5.878   3.063  19.767  0.00  0.00    +0.000 HD
ENDBRANCH   5  12
BRANCH   4  14
ATOM     14  C   UNK     1       1.979   2.678  20.867  0.00  0.00    +0.000 C 
BRANCH  14  15
ATOM     15  O   UNK     1       2.918   2.415  21.909  0.00  0.00    +0.000 OA
ATOM     16  H   UNK     1       3.227   1.504  21.754  0.00  0.00    +0.000 HD
ENDBRANCH  14  15
ENDBRANCH   4  14
TORSDOF 4
ENDMDL
MODEL 6
REMARK VINA RESULT:      -5.2      3.066      4.223
REMARK  Name = 
REMARK  5 active torsions:
REMARK  status: ('A' for Active; 'I' for Inactive)
REMARK    1  A    between atoms: C_1  and  C_2
REMARK    2  A    between atoms: N_4  and  C_5
REMARK    3  A    between atoms: C_8  and  C_9
REMARK    4  A    between atoms: C_9  and  O_10
REMARK    5  A    between atoms: C_11  and  O_12
REMARK                            x       y       z     vdW  Elec       q    Type
REMARK                         _______ _______ _______ _____ _____    ______ ____
ROOT
ATOM      1  C   UNK     1       6.147   4.907  16.230  0.00  0.00    +0.000 C 
ATOM      2  C   UNK     1       7.378   4.546  17.082  0.00  0.00    +0.000 C 
ATOM      3  N   UNK     1       6.891   4.107  18.402  0.00  0.00    +0.000 NA
ATOM      4  C   UNK     1       5.569   4.734  18.574  0.00  0.00    +0.000 C 
ATOM      5  C   UNK     1       4.951   4.704  17.176  0.00  0.00    +0.000 C 
ATOM      6  H   UNK     1       7.532   4.434  19.128  0.00  0.00    +0.000 HD
ENDROOT
BRANCH   1  10
ATOM      7  C   UNK     1       6.363   3.586  12.678  0.00  0.00    +0.000 C 
ATOM      8  C   UNK     1       6.678   4.471  13.852  0.00  0.00    +0.000 C 
ATOM      9  O   UNK     1       7.451   5.421  13.786  0.00  0.00    +0.000 OA
ATOM     10  N   UNK     1       6.023   4.118  15.007  0.00  0.00    +0.000 N 
ATOM     11  H   UNK     1       5.373   3.340  14.987  0.00  0.00    +0.000 HD
ENDBRANCH   1  10
BRANCH   5  12
ATOM     12  O   UNK     1       3.959   5.711  16.996  0.00  0.00    +0.000 OA
ATOM     13  H   UNK     1       4.406   6.562  16.839  0.00  0.00    +0.000 HD
ENDBRANCH   5  12
BRANCH   4  14
ATOM     14  C   UNK     1       4.717   3.968  19.592  0.00  0.00    +0.000 C 
BRANCH  14  15
ATOM     15  O   UNK     1       5.136   2.604  19.649  0.00  0.00    +0.000 OA
ATOM     16  H   UNK     1       4.318   2.088  19.764  0.00  0.00    +0.000 HD
ENDBRANCH  14  15
ENDBRANCH   4  14
TORSDOF 4
ENDMDL
MODEL 7
REMARK VINA RESULT:      -5.1      2.766      4.892
REMARK  Name = 
REMARK  5 active torsions:
REMARK  status: ('A' for Active; 'I' for Inactive)
REMARK    1  A    between atoms: C_1  and  C_2
REMARK    2  A    between atoms: N_4  and  C_5
REMARK    3  A    between atoms: C_8  and  C_9
REMARK    4  A    between atoms: C_9  and  O_10
REMARK    5  A    between atoms: C_11  and  O_12
REMARK                            x       y       z     vdW  Elec       q    Type
REMARK                         _______ _______ _______ _____ _____    ______ ____
ROOT
ATOM      1  C   UNK     1       5.338   4.398  16.851  0.00  0.00    +0.000 C 
ATOM      2  C   UNK     1       6.626   4.124  16.051  0.00  0.00    +0.000 C 
ATOM      3  N   UNK     1       7.763   4.581  16.871  0.00  0.00    +0.000 NA
ATOM      4  C   UNK     1       7.218   5.606  17.780  0.00  0.00    +0.000 C 
ATOM      5  C   UNK     1       5.822   5.093  18.134  0.00  0.00    +0.000 C 
ATOM      6  H   UNK     1       8.475   4.993  16.265  0.00  0.00    +0.000 HD
ENDROOT
BRANCH   1  10
ATOM      7  C   UNK     1       2.617   1.942  17.837  0.00  0.00    +0.000 C 
ATOM      8  C   UNK     1       3.232   3.273  17.504  0.00  0.00    +0.000 C 
ATOM      9  O   UNK     1       2.611   4.329  17.556  0.00  0.00    +0.000 OA
ATOM     10  N   UNK     1       4.553   3.199  17.135  0.00  0.00    +0.000 N 
ATOM     11  H   UNK     1       5.018   2.298  17.143  0.00  0.00    +0.000 HD
ENDBRANCH   1  10
BRANCH   5  12
ATOM     12  O   UNK     1       4.941   6.142  18.531  0.00  0.00    +0.000 OA
ATOM     13  H   UNK     1       5.263   6.978  18.149  0.00  0.00    +0.000 HD
ENDBRANCH   5  12
BRANCH   4  14
ATOM     14  C   UNK     1       8.099   5.771  19.024  0.00  0.00    +0.000 C 
BRANCH  14  15
ATOM     15  O   UNK     1       7.367   5.398  20.191  0.00  0.00    +0.000 OA
ATOM     16  H   UNK     1       6.637   4.839  19.870  0.00  0.00    +0.000 HD
ENDBRANCH  14  15
ENDBRANCH   4  14
TORSDOF 4
ENDMDL
MODEL 8
REMARK VINA RESULT:      -5.1      2.815      3.300
REMARK  Name = 
REMARK  5 active torsions:
REMARK  status: ('A' for Active; 'I' for Inactive)
REMARK    1  A    between atoms: C_1  and  C_2
REMARK    2  A    between atoms: N_4  and  C_5
REMARK    3  A    between atoms: C_8  and  C_9
REMARK    4  A    between atoms: C_9  and  O_10
REMARK    5  A    between atoms: C_11  and  O_12
REMARK                            x       y       z     vdW  Elec       q    Type
REMARK                         _______ _______ _______ _____ _____    ______ ____
ROOT
ATOM      1  C   UNK     1       4.926   4.358  17.035  0.00  0.00    +0.000 C 
ATOM      2  C   UNK     1       5.934   4.418  18.198  0.00  0.00    +0.000 C 
ATOM      3  N   UNK     1       5.430   3.541  19.269  0.00  0.00    +0.000 NA
ATOM      4  C   UNK     1       3.972   3.457  19.069  0.00  0.00    +0.000 C 
ATOM      5  C   UNK     1       3.799   3.447  17.549  0.00  0.00    +0.000 C 
ATOM      6  H   UNK     1       5.636   3.960  20.178  0.00  0.00    +0.000 HD
ENDROOT
BRANCH   1  10
ATOM      7  C   UNK     1       6.405   4.054  13.553  0.00  0.00    +0.000 C 
ATOM      8  C   UNK     1       5.924   4.738  14.802  0.00  0.00    +0.000 C 
ATOM      9  O   UNK     1       5.915   5.957  14.937  0.00  0.00    +0.000 OA
ATOM     10  N   UNK     1       5.497   3.874  15.781  0.00  0.00    +0.000 N 
ATOM     11  H   UNK     1       5.502   2.877  15.595  0.00  0.00    +0.000 HD
ENDBRANCH   1  10
BRANCH   5  12
ATOM     12  O   UNK     1       2.515   3.915  17.144  0.00  0.00    +0.000 OA
ATOM     13  H   UNK     1       1.850   3.248  17.393  0.00  0.00    +0.000 HD
ENDBRANCH   5  12
BRANCH   4  14
ATOM     14  C   UNK     1       3.392   2.195  19.718  0.00  0.00    +0.000 C 
BRANCH  14  15
ATOM     15  O   UNK     1       2.669   1.437  18.749  0.00  0.00    +0.000 OA
ATOM     16  H   UNK     1       2.921   1.815  17.887  0.00  0.00    +0.000 HD
ENDBRANCH  14  15
ENDBRANCH   4  14
TORSDOF 4
ENDMDL
MODEL 9
REMARK VINA RESULT:      -5.1      1.828      2.587
REMARK  Name = 
REMARK  5 active torsions:
REMARK  status: ('A' for Active; 'I' for Inactive)
REMARK    1  A    between atoms: C_1  and  C_2
REMARK    2  A    between atoms: N_4  and  C_5
REMARK    3  A    between atoms: C_8  and  C_9
REMARK    4  A    between atoms: C_9  and  O_10
REMARK    5  A    between atoms: C_11  and  O_12
REMARK                            x       y       z     vdW  Elec       q    Type
REMARK                         _______ _______ _______ _____ _____    ______ ____
ROOT
ATOM      1  C   UNK     1       5.342   5.869  17.420  0.00  0.00    +0.000 C 
ATOM      2  C   UNK     1       3.809   6.026  17.448  0.00  0.00    +0.000 C 
ATOM      3  N   UNK     1       3.280   5.047  18.415  0.00  0.00    +0.000 NA
ATOM      4  C   UNK     1       4.287   3.974  18.493  0.00  0.00    +0.000 C 
ATOM      5  C   UNK     1       5.626   4.702  18.380  0.00  0.00    +0.000 C 
ATOM      6  H   UNK     1       2.394   4.673  18.070  0.00  0.00    +0.000 HD
ENDROOT
BRANCH   1  10
ATOM      7  C   UNK     1       7.915   8.631  17.816  0.00  0.00    +0.000 C 
ATOM      8  C   UNK     1       7.287   7.390  17.246  0.00  0.00    +0.000 C 
ATOM      9  O   UNK     1       7.815   6.715  16.369  0.00  0.00    +0.000 OA
ATOM     10  N   UNK     1       6.066   7.081  17.795  0.00  0.00    +0.000 N 
ATOM     11  H   UNK     1       5.699   7.663  18.540  0.00  0.00    +0.000 HD
ENDBRANCH   1  10
BRANCH   5  12
ATOM     12  O   UNK     1       6.666   3.858  17.891  0.00  0.00    +0.000 OA
ATOM     13  H   UNK     1       7.265   3.646  18.628  0.00  0.00    +0.000 HD
ENDBRANCH   5  12
BRANCH   4  14
ATOM     14  C   UNK     1       4.169   3.196  19.809  0.00  0.00    +0.000 C 
BRANCH  14  15
ATOM     15  O   UNK     1       5.119   2.131  19.831  0.00  0.00    +0.000 OA
ATOM     16  H   UNK     1       4.636   1.347  19.513  0.00  0.00    +0.000 HD
ENDBRANCH  14  15
ENDBRANCH   4  14
TORSDOF 4
ENDMDL
