MODEL 1
REMARK VINA RESULT:      -8.0      0.000      0.000
REMARK  Name = 
REMARK  5 active torsions:
REMARK  status: ('A' for Active; 'I' for Inactive)
REMARK    1  A    between atoms: C_4  and  C_5
REMARK    2  A    between atoms: C_8  and  C_9
REMARK    3  A    between atoms: C_9  and  N_10
REMARK    4  A    between atoms: N_10  and  C_11
REMARK    5  A    between atoms: C_13  and  C_14
REMARK                            x       y       z     vdW  Elec       q    Type
REMARK                         _______ _______ _______ _____ _____    ______ ____
ROOT
ATOM      1  C   UNL     1       4.024   4.894  18.515  0.00  0.00    +0.000 A 
ATOM      2  C   UNL     1       5.147   5.071  19.342  0.00  0.00    +0.000 A 
ATOM      3  C   UNL     1       6.280   5.766  18.903  0.00  0.00    +0.000 A 
ATOM      4  C   UNL     1       6.330   6.308  17.615  0.00  0.00    +0.000 A 
ATOM      5  C   UNL     1       5.238   6.110  16.765  0.00  0.00    +0.000 A 
ATOM      6  C   UNL     1       4.102   5.423  17.214  0.00  0.00    +0.000 A 
ENDROOT
BRANCH   1  10
ATOM      7  C   UNL     1       0.497   2.821  19.899  0.00  0.00    +0.000 A 
ATOM      8  C   UNL     1       0.971   2.610  18.610  0.00  0.00    +0.000 A 
ATOM      9  C   UNL     1       2.120   3.275  18.169  0.00  0.00    +0.000 A 
ATOM     10  C   UNL     1       2.815   4.179  18.997  0.00  0.00    +0.000 A 
ATOM     11  C   UNL     1       2.310   4.371  20.295  0.00  0.00    +0.000 A 
ATOM     12  C   UNL     1       1.169   3.697  20.745  0.00  0.00    +0.000 A 
ENDBRANCH   1  10
BRANCH   4  13
ATOM     13  C   UNL     1       7.548   7.070  17.154  0.00  0.00    +0.000 C 
BRANCH  13  14
ATOM     14  N   UNL     1       8.130   7.836  18.252  0.00  0.00    +0.000 NA
ATOM     15  H   UNL     1       8.882   7.290  18.672  0.00  0.00    +0.000 HD
BRANCH  14  16
ATOM     16  C   UNL     1       8.623   9.156  17.834  0.00  0.00    +0.000 C 
ATOM     17  C   UNL     1       7.746  10.369  17.926  0.00  0.00    +0.000 C 
ATOM     18  C   UNL     1       8.862  10.188  18.921  0.00  0.00    +0.000 C 
BRANCH  18  19
ATOM     19  C   UNL     1      10.082  11.072  18.876  0.00  0.00    +0.000 A 
ATOM     20  C   UNL     1      10.533  11.636  17.669  0.00  0.00    +0.000 A 
ATOM     21  C   UNL     1      11.643  12.484  17.630  0.00  0.00    +0.000 A 
ATOM     22  C   UNL     1      12.326  12.789  18.804  0.00  0.00    +0.000 A 
ATOM     23  C   UNL     1      11.896  12.250  20.014  0.00  0.00    +0.000 A 
ATOM     24  C   UNL     1      10.783  11.406  20.046  0.00  0.00    +0.000 A 
ENDBRANCH  18  19
ENDBRANCH  14  16
ENDBRANCH  13  14
ENDBRANCH   4  13
TORSDOF 5
ENDMDL
MODEL 2
REMARK VINA RESULT:      -8.0      0.265      1.026
REMARK  Name = 
REMARK  5 active torsions:
REMARK  status: ('A' for Active; 'I' for Inactive)
REMARK    1  A    between atoms: C_4  and  C_5
REMARK    2  A    between atoms: C_8  and  C_9
REMARK    3  A    between atoms: C_9  and  N_10
REMARK    4  A    between atoms: N_10  and  C_11
REMARK    5  A    between atoms: C_13  and  C_14
REMARK                            x       y       z     vdW  Elec       q    Type
REMARK                         _______ _______ _______ _____ _____    ______ ____
ROOT
ATOM      1  C   UNL     1       4.003   4.850  18.679  0.00  0.00    +0.000 A 
ATOM      2  C   UNL     1       3.973   5.596  17.487  0.00  0.00    +0.000 A 
ATOM      3  C   UNL     1       5.094   6.299  17.032  0.00  0.00    +0.000 A 
ATOM      4  C   UNL     1       6.289   6.283  17.758  0.00  0.00    +0.000 A 
ATOM      5  C   UNL     1       6.328   5.579  18.965  0.00  0.00    +0.000 A 
ATOM      6  C   UNL     1       5.206   4.867  19.409  0.00  0.00    +0.000 A 
ENDROOT
BRANCH   1  10
ATOM      7  C   UNL     1       0.544   2.636  20.014  0.00  0.00    +0.000 A 
ATOM      8  C   UNL     1       0.799   2.781  18.656  0.00  0.00    +0.000 A 
ATOM      9  C   UNL     1       1.927   3.490  18.228  0.00  0.00    +0.000 A 
ATOM     10  C   UNL     1       2.819   4.085  19.142  0.00  0.00    +0.000 A 
ATOM     11  C   UNL     1       2.532   3.921  20.510  0.00  0.00    +0.000 A 
ATOM     12  C   UNL     1       1.412   3.201  20.943  0.00  0.00    +0.000 A 
ENDBRANCH   1  10
BRANCH   4  13
ATOM     13  C   UNL     1       7.500   7.031  17.253  0.00  0.00    +0.000 C 
BRANCH  13  14
ATOM     14  N   UNL     1       8.139   7.777  18.332  0.00  0.00    +0.000 NA
ATOM     15  H   UNL     1       8.858   7.193  18.756  0.00  0.00    +0.000 HD
BRANCH  14  16
ATOM     16  C   UNL     1       8.710   9.057  17.886  0.00  0.00    +0.000 C 
ATOM     17  C   UNL     1       7.854  10.283  17.771  0.00  0.00    +0.000 C 
ATOM     18  C   UNL     1       8.827  10.166  18.915  0.00  0.00    +0.000 C 
BRANCH  18  19
ATOM     19  C   UNL     1      10.061  11.030  18.966  0.00  0.00    +0.000 A 
ATOM     20  C   UNL     1      10.584  11.628  17.805  0.00  0.00    +0.000 A 
ATOM     21  C   UNL     1      11.708  12.457  17.855  0.00  0.00    +0.000 A 
ATOM     22  C   UNL     1      12.331  12.708  19.074  0.00  0.00    +0.000 A 
ATOM     23  C   UNL     1      11.830  12.135  20.239  0.00  0.00    +0.000 A 
ATOM     24  C   UNL     1      10.704  11.310  20.183  0.00  0.00    +0.000 A 
ENDBRANCH  18  19
ENDBRANCH  14  16
ENDBRANCH  13  14
ENDBRANCH   4  13
TORSDOF 5
ENDMDL
MODEL 3
REMARK VINA RESULT:      -7.9      5.688      8.994
REMARK  Name = 
REMARK  5 active torsions:
REMARK  status: ('A' for Active; 'I' for Inactive)
REMARK    1  A    between atoms: C_4  and  C_5
REMARK    2  A    between atoms: C_8  and  C_9
REMARK    3  A    between atoms: C_9  and  N_10
REMARK    4  A    between atoms: N_10  and  C_11
REMARK    5  A    between atoms: C_13  and  C_14
REMARK                            x       y       z     vdW  Elec       q    Type
REMARK                         _______ _______ _______ _____ _____    ______ ____
ROOT
ATOM      1  C   UNL     1       3.559   6.305  18.017  0.00  0.00    +0.000 A 
ATOM      2  C   UNL     1       3.235   5.672  19.231  0.00  0.00    +0.000 A 
ATOM      3  C   UNL     1       2.389   6.274  20.169  0.00  0.00    +0.000 A 
ATOM      4  C   UNL     1       1.837   7.535  19.927  0.00  0.00    +0.000 A 
ATOM      5  C   UNL     1       2.177   8.197  18.743  0.00  0.00    +0.000 A 
ATOM      6  C   UNL     1       3.015   7.585  17.802  0.00  0.00    +0.000 A 
ENDROOT
BRANCH   1  10
ATOM      7  C   UNL     1       6.098   4.406  15.084  0.00  0.00    +0.000 A 
ATOM      8  C   UNL     1       5.877   5.778  15.034  0.00  0.00    +0.000 A 
ATOM      9  C   UNL     1       5.062   6.390  15.993  0.00  0.00    +0.000 A 
ATOM     10  C   UNL     1       4.435   5.650  17.014  0.00  0.00    +0.000 A 
ATOM     11  C   UNL     1       4.679   4.264  17.037  0.00  0.00    +0.000 A 
ATOM     12  C   UNL     1       5.504   3.649  16.088  0.00  0.00    +0.000 A 
ENDBRANCH   1  10
BRANCH   4  13
ATOM     13  C   UNL     1       0.912   8.171  20.936  0.00  0.00    +0.000 C 
BRANCH  13  14
ATOM     14  N   UNL     1       0.922   9.625  20.810  0.00  0.00    +0.000 NA
ATOM     15  H   UNL     1       1.622   9.891  20.119  0.00  0.00    +0.000 HD
BRANCH  14  16
ATOM     16  C   UNL     1      -0.391  10.181  20.454  0.00  0.00    +0.000 C 
ATOM     17  C   UNL     1      -0.665  11.650  20.580  0.00  0.00    +0.000 C 
ATOM     18  C   UNL     1      -0.469  11.050  19.213  0.00  0.00    +0.000 C 
BRANCH  18  19
ATOM     19  C   UNL     1      -1.629  10.913  18.259  0.00  0.00    +0.000 A 
ATOM     20  C   UNL     1      -1.609   9.973  17.214  0.00  0.00    +0.000 A 
ATOM     21  C   UNL     1      -2.697   9.820  16.350  0.00  0.00    +0.000 A 
ATOM     22  C   UNL     1      -3.833  10.607  16.518  0.00  0.00    +0.000 A 
ATOM     23  C   UNL     1      -3.882  11.541  17.550  0.00  0.00    +0.000 A 
ATOM     24  C   UNL     1      -2.792  11.685  18.413  0.00  0.00    +0.000 A 
ENDBRANCH  18  19
ENDBRANCH  14  16
ENDBRANCH  13  14
ENDBRANCH   4  13
TORSDOF 5
ENDMDL
MODEL 4
REMARK VINA RESULT:      -7.9      2.234      8.202
REMARK  Name = 
REMARK  5 active torsions:
REMARK  status: ('A' for Active; 'I' for Inactive)
REMARK    1  A    between atoms: C_4  and  C_5
REMARK    2  A    between atoms: C_8  and  C_9
REMARK    3  A    between atoms: C_9  and  N_10
REMARK    4  A    between atoms: N_10  and  C_11
REMARK    5  A    between atoms: C_13  and  C_14
REMARK                            x       y       z     vdW  Elec       q    Type
REMARK                         _______ _______ _______ _____ _____    ______ ____
ROOT
ATOM      1  C   UNL     1       8.019   8.209  18.169  0.00  0.00    +0.000 A 
ATOM      2  C   UNL     1       7.179   7.962  17.069  0.00  0.00    +0.000 A 
ATOM      3  C   UNL     1       6.641   6.693  16.826  0.00  0.00    +0.000 A 
ATOM      4  C   UNL     1       6.928   5.622  17.678  0.00  0.00    +0.000 A 
ATOM      5  C   UNL     1       7.791   5.838  18.756  0.00  0.00    +0.000 A 
ATOM      6  C   UNL     1       8.317   7.114  19.001  0.00  0.00    +0.000 A 
ENDROOT
BRANCH   1  10
ATOM      7  C   UNL     1       9.616  12.150  18.926  0.00  0.00    +0.000 A 
ATOM      8  C   UNL     1       8.843  11.915  17.795  0.00  0.00    +0.000 A 
ATOM      9  C   UNL     1       8.318  10.639  17.560  0.00  0.00    +0.000 A 
ATOM     10  C   UNL     1       8.565   9.564  18.436  0.00  0.00    +0.000 A 
ATOM     11  C   UNL     1       9.351   9.835  19.571  0.00  0.00    +0.000 A 
ATOM     12  C   UNL     1       9.866  11.113  19.817  0.00  0.00    +0.000 A 
ENDBRANCH   1  10
BRANCH   4  13
ATOM     13  C   UNL     1       6.331   4.260  17.420  0.00  0.00    +0.000 C 
BRANCH  13  14
ATOM     14  N   UNL     1       5.522   3.821  18.552  0.00  0.00    +0.000 NA
ATOM     15  H   UNL     1       6.015   4.045  19.416  0.00  0.00    +0.000 HD
BRANCH  14  16
ATOM     16  C   UNL     1       4.175   4.411  18.560  0.00  0.00    +0.000 C 
ATOM     17  C   UNL     1       3.211   4.112  19.669  0.00  0.00    +0.000 C 
ATOM     18  C   UNL     1       3.878   5.461  19.614  0.00  0.00    +0.000 C 
BRANCH  18  19
ATOM     19  C   UNL     1       3.089   6.695  19.257  0.00  0.00    +0.000 A 
ATOM     20  C   UNL     1       3.252   7.334  18.015  0.00  0.00    +0.000 A 
ATOM     21  C   UNL     1       2.497   8.457  17.668  0.00  0.00    +0.000 A 
ATOM     22  C   UNL     1       1.557   8.964  18.560  0.00  0.00    +0.000 A 
ATOM     23  C   UNL     1       1.370   8.347  19.794  0.00  0.00    +0.000 A 
ATOM     24  C   UNL     1       2.125   7.222  20.133  0.00  0.00    +0.000 A 
ENDBRANCH  18  19
ENDBRANCH  14  16
ENDBRANCH  13  14
ENDBRANCH   4  13
TORSDOF 5
ENDMDL
MODEL 5
REMARK VINA RESULT:      -7.8      1.353      2.222
REMARK  Name = 
REMARK  5 active torsions:
REMARK  status: ('A' for Active; 'I' for Inactive)
REMARK    1  A    between atoms: C_4  and  C_5
REMARK    2  A    between atoms: C_8  and  C_9
REMARK    3  A    between atoms: C_9  and  N_10
REMARK    4  A    between atoms: N_10  and  C_11
REMARK    5  A    between atoms: C_13  and  C_14
REMARK                            x       y       z     vdW  Elec       q    Type
REMARK                         _______ _______ _______ _____ _____    ______ ____
ROOT
ATOM      1  C   UNL     1       5.353   5.127  18.212  0.00  0.00    +0.000 A 
ATOM      2  C   UNL     1       6.513   5.286  18.991  0.00  0.00    +0.000 A 
ATOM      3  C   UNL     1       7.398   6.351  18.783  0.00  0.00    +0.000 A 
ATOM      4  C   UNL     1       7.153   7.296  17.782  0.00  0.00    +0.000 A 
ATOM      5  C   UNL     1       6.025   7.134  16.972  0.00  0.00    +0.000 A 
ATOM      6  C   UNL     1       5.137   6.073  17.193  0.00  0.00    +0.000 A 
ENDROOT
BRANCH   1  10
ATOM      7  C   UNL     1       2.611   1.869  18.932  0.00  0.00    +0.000 A 
ATOM      8  C   UNL     1       3.269   2.477  19.995  0.00  0.00    +0.000 A 
ATOM      9  C   UNL     1       4.148   3.539  19.758  0.00  0.00    +0.000 A 
ATOM     10  C   UNL     1       4.406   4.011  18.456  0.00  0.00    +0.000 A 
ATOM     11  C   UNL     1       3.725   3.374  17.402  0.00  0.00    +0.000 A 
ATOM     12  C   UNL     1       2.834   2.320  17.636  0.00  0.00    +0.000 A 
ENDBRANCH   1  10
BRANCH   4  13
ATOM     13  C   UNL     1       8.103   8.450  17.574  0.00  0.00    +0.000 C 
BRANCH  13  14
ATOM     14  N   UNL     1       8.829   8.756  18.802  0.00  0.00    +0.000 NA
ATOM     15  H   UNL     1       9.745   8.310  18.763  0.00  0.00    +0.000 HD
BRANCH  14  16
ATOM     16  C   UNL     1       8.969  10.199  19.043  0.00  0.00    +0.000 C 
ATOM     17  C   UNL     1       9.258  10.725  20.418  0.00  0.00    +0.000 C 
ATOM     18  C   UNL     1      10.353  10.720  19.384  0.00  0.00    +0.000 C 
BRANCH  18  19
ATOM     19  C   UNL     1      10.849  12.011  18.784  0.00  0.00    +0.000 A 
ATOM     20  C   UNL     1      11.250  13.088  19.595  0.00  0.00    +0.000 A 
ATOM     21  C   UNL     1      11.743  14.273  19.043  0.00  0.00    +0.000 A 
ATOM     22  C   UNL     1      11.850  14.403  17.661  0.00  0.00    +0.000 A 
ATOM     23  C   UNL     1      11.468  13.349  16.835  0.00  0.00    +0.000 A 
ATOM     24  C   UNL     1      10.979  12.166  17.395  0.00  0.00    +0.000 A 
ENDBRANCH  18  19
ENDBRANCH  14  16
ENDBRANCH  13  14
ENDBRANCH   4  13
TORSDOF 5
ENDMDL
MODEL 6
REMARK VINA RESULT:      -7.8      1.460      9.491
REMARK  Name = 
REMARK  5 active torsions:
REMARK  status: ('A' for Active; 'I' for Inactive)
REMARK    1  A    between atoms: C_4  and  C_5
REMARK    2  A    between atoms: C_8  and  C_9
REMARK    3  A    between atoms: C_9  and  N_10
REMARK    4  A    between atoms: N_10  and  C_11
REMARK    5  A    between atoms: C_13  and  C_14
REMARK                            x       y       z     vdW  Elec       q    Type
REMARK                         _______ _______ _______ _____ _____    ______ ____
ROOT
ATOM      1  C   UNL     1       8.533   9.115  18.511  0.00  0.00    +0.000 A 
ATOM      2  C   UNL     1       7.756   9.039  17.341  0.00  0.00    +0.000 A 
ATOM      3  C   UNL     1       7.186   7.834  16.916  0.00  0.00    +0.000 A 
ATOM      4  C   UNL     1       7.377   6.657  17.647  0.00  0.00    +0.000 A 
ATOM      5  C   UNL     1       8.178   6.705  18.792  0.00  0.00    +0.000 A 
ATOM      6  C   UNL     1       8.736   7.917  19.219  0.00  0.00    +0.000 A 
ENDROOT
BRANCH   1  10
ATOM      7  C   UNL     1      10.233  12.860  19.833  0.00  0.00    +0.000 A 
ATOM      8  C   UNL     1       9.792  12.716  18.522  0.00  0.00    +0.000 A 
ATOM      9  C   UNL     1       9.232  11.505  18.102  0.00  0.00    +0.000 A 
ATOM     10  C   UNL     1       9.113  10.402  18.970  0.00  0.00    +0.000 A 
ATOM     11  C   UNL     1       9.569  10.580  20.290  0.00  0.00    +0.000 A 
ATOM     12  C   UNL     1      10.117  11.794  20.719  0.00  0.00    +0.000 A 
ENDBRANCH   1  10
BRANCH   4  13
ATOM     13  C   UNL     1       6.746   5.364  17.191  0.00  0.00    +0.000 C 
BRANCH  13  14
ATOM     14  N   UNL     1       5.357   5.573  16.794  0.00  0.00    +0.000 NA
ATOM     15  H   UNL     1       5.078   4.824  16.161  0.00  0.00    +0.000 HD
BRANCH  14  16
ATOM     16  C   UNL     1       4.437   5.650  17.939  0.00  0.00    +0.000 C 
ATOM     17  C   UNL     1       3.412   6.741  18.030  0.00  0.00    +0.000 C 
ATOM     18  C   UNL     1       2.973   5.344  17.680  0.00  0.00    +0.000 C 
BRANCH  18  19
ATOM     19  C   UNL     1       2.184   4.517  18.662  0.00  0.00    +0.000 A 
ATOM     20  C   UNL     1       1.507   3.351  18.260  0.00  0.00    +0.000 A 
ATOM     21  C   UNL     1       0.803   2.564  19.175  0.00  0.00    +0.000 A 
ATOM     22  C   UNL     1       0.765   2.928  20.518  0.00  0.00    +0.000 A 
ATOM     23  C   UNL     1       1.432   4.073  20.945  0.00  0.00    +0.000 A 
ATOM     24  C   UNL     1       2.137   4.853  20.025  0.00  0.00    +0.000 A 
ENDBRANCH  18  19
ENDBRANCH  14  16
ENDBRANCH  13  14
ENDBRANCH   4  13
TORSDOF 5
ENDMDL
MODEL 7
REMARK VINA RESULT:      -7.8      1.443      9.489
REMARK  Name = 
REMARK  5 active torsions:
REMARK  status: ('A' for Active; 'I' for Inactive)
REMARK    1  A    between atoms: C_4  and  C_5
REMARK    2  A    between atoms: C_8  and  C_9
REMARK    3  A    between atoms: C_9  and  N_10
REMARK    4  A    between atoms: N_10  and  C_11
REMARK    5  A    between atoms: C_13  and  C_14
REMARK                            x       y       z     vdW  Elec       q    Type
REMARK                         _______ _______ _______ _____ _____    ______ ____
ROOT
ATOM      1  C   UNL     1       8.484   9.106  18.452  0.00  0.00    +0.000 A 
ATOM      2  C   UNL     1       8.702   7.890  19.124  0.00  0.00    +0.000 A 
ATOM      3  C   UNL     1       8.110   6.697  18.694  0.00  0.00    +0.000 A 
ATOM      4  C   UNL     1       7.274   6.679  17.573  0.00  0.00    +0.000 A 
ATOM      5  C   UNL     1       7.015   7.884  16.913  0.00  0.00    +0.000 A 
ATOM      6  C   UNL     1       7.620   9.074  17.342  0.00  0.00    +0.000 A 
ENDROOT
BRANCH   1  10
ATOM      7  C   UNL     1      10.366  12.765  19.765  0.00  0.00    +0.000 A 
ATOM      8  C   UNL     1      10.201  11.707  20.651  0.00  0.00    +0.000 A 
ATOM      9  C   UNL     1       9.601  10.519  20.218  0.00  0.00    +0.000 A 
ATOM     10  C   UNL     1       9.135  10.363  18.898  0.00  0.00    +0.000 A 
ATOM     11  C   UNL     1       9.317  11.453  18.026  0.00  0.00    +0.000 A 
ATOM     12  C   UNL     1       9.929  12.637  18.450  0.00  0.00    +0.000 A 
ENDBRANCH   1  10
BRANCH   4  13
ATOM     13  C   UNL     1       6.653   5.385  17.105  0.00  0.00    +0.000 C 
BRANCH  13  14
ATOM     14  N   UNL     1       5.238   5.568  16.796  0.00  0.00    +0.000 NA
ATOM     15  H   UNL     1       4.931   4.806  16.193  0.00  0.00    +0.000 HD
BRANCH  14  16
ATOM     16  C   UNL     1       4.394   5.649  17.997  0.00  0.00    +0.000 C 
ATOM     17  C   UNL     1       3.263   6.631  18.077  0.00  0.00    +0.000 C 
ATOM     18  C   UNL     1       2.959   5.170  17.875  0.00  0.00    +0.000 C 
BRANCH  18  19
ATOM     19  C   UNL     1       2.332   4.355  18.977  0.00  0.00    +0.000 A 
ATOM     20  C   UNL     1       2.670   4.568  20.326  0.00  0.00    +0.000 A 
ATOM     21  C   UNL     1       2.066   3.838  21.353  0.00  0.00    +0.000 A 
ATOM     22  C   UNL     1       1.103   2.879  21.050  0.00  0.00    +0.000 A 
ATOM     23  C   UNL     1       0.744   2.654  19.724  0.00  0.00    +0.000 A 
ATOM     24  C   UNL     1       1.350   3.391  18.702  0.00  0.00    +0.000 A 
ENDBRANCH  18  19
ENDBRANCH  14  16
ENDBRANCH  13  14
ENDBRANCH   4  13
TORSDOF 5
ENDMDL
MODEL 8
REMARK VINA RESULT:      -7.8      5.622      9.021
REMARK  Name = 
REMARK  5 active torsions:
REMARK  status: ('A' for Active; 'I' for Inactive)
REMARK    1  A    between atoms: C_4  and  C_5
REMARK    2  A    between atoms: C_8  and  C_9
REMARK    3  A    between atoms: C_9  and  N_10
REMARK    4  A    between atoms: N_10  and  C_11
REMARK    5  A    between atoms: C_13  and  C_14
REMARK                            x       y       z     vdW  Elec       q    Type
REMARK                         _______ _______ _______ _____ _____    ______ ____
ROOT
ATOM      1  C   UNL     1       3.893   6.118  18.015  0.00  0.00    +0.000 A 
ATOM      2  C   UNL     1       3.603   5.524  19.257  0.00  0.00    +0.000 A 
ATOM      3  C   UNL     1       2.715   6.115  20.163  0.00  0.00    +0.000 A 
ATOM      4  C   UNL     1       2.086   7.326  19.859  0.00  0.00    +0.000 A 
ATOM      5  C   UNL     1       2.390   7.950  18.646  0.00  0.00    +0.000 A 
ATOM      6  C   UNL     1       3.271   7.348  17.737  0.00  0.00    +0.000 A 
ENDROOT
BRANCH   1  10
ATOM      7  C   UNL     1       6.579   4.224  15.213  0.00  0.00    +0.000 A 
ATOM      8  C   UNL     1       5.458   3.544  15.675  0.00  0.00    +0.000 A 
ATOM      9  C   UNL     1       4.585   4.166  16.574  0.00  0.00    +0.000 A 
ATOM     10  C   UNL     1       4.816   5.472  17.047  0.00  0.00    +0.000 A 
ATOM     11  C   UNL     1       5.959   6.133  16.561  0.00  0.00    +0.000 A 
ATOM     12  C   UNL     1       6.828   5.520  15.651  0.00  0.00    +0.000 A 
ENDBRANCH   1  10
BRANCH   4  13
ATOM     13  C   UNL     1       1.117   7.949  20.834  0.00  0.00    +0.000 C 
BRANCH  13  14
ATOM     14  N   UNL     1       1.009   9.388  20.615  0.00  0.00    +0.000 NA
ATOM     15  H   UNL     1       1.615   9.650  19.838  0.00  0.00    +0.000 HD
BRANCH  14  16
ATOM     16  C   UNL     1      -0.370   9.830  20.366  0.00  0.00    +0.000 C 
ATOM     17  C   UNL     1      -0.824  11.201  20.772  0.00  0.00    +0.000 C 
ATOM     18  C   UNL     1      -0.580  10.905  19.315  0.00  0.00    +0.000 C 
BRANCH  18  19
ATOM     19  C   UNL     1      -1.731  10.809  18.347  0.00  0.00    +0.000 A 
ATOM     20  C   UNL     1      -2.882  11.602  18.498  0.00  0.00    +0.000 A 
ATOM     21  C   UNL     1      -3.936  11.540  17.582  0.00  0.00    +0.000 A 
ATOM     22  C   UNL     1      -3.856  10.682  16.489  0.00  0.00    +0.000 A 
ATOM     23  C   UNL     1      -2.725   9.891  16.311  0.00  0.00    +0.000 A 
ATOM     24  C   UNL     1      -1.673   9.961  17.229  0.00  0.00    +0.000 A 
ENDBRANCH  18  19
ENDBRANCH  14  16
ENDBRANCH  13  14
ENDBRANCH   4  13
TORSDOF 5
ENDMDL
MODEL 9
REMARK VINA RESULT:      -7.8      5.085      7.372
REMARK  Name = 
REMARK  5 active torsions:
REMARK  status: ('A' for Active; 'I' for Inactive)
REMARK    1  A    between atoms: C_4  and  C_5
REMARK    2  A    between atoms: C_8  and  C_9
REMARK    3  A    between atoms: C_9  and  N_10
REMARK    4  A    between atoms: N_10  and  C_11
REMARK    5  A    between atoms: C_13  and  C_14
REMARK                            x       y       z     vdW  Elec       q    Type
REMARK                         _______ _______ _______ _____ _____    ______ ____
ROOT
ATOM      1  C   UNL     1       1.389   8.504  20.063  0.00  0.00    +0.000 A 
ATOM      2  C   UNL     1       1.805   7.232  20.495  0.00  0.00    +0.000 A 
ATOM      3  C   UNL     1       2.537   6.377  19.663  0.00  0.00    +0.000 A 
ATOM      4  C   UNL     1       2.878   6.765  18.364  0.00  0.00    +0.000 A 
ATOM      5  C   UNL     1       2.441   8.011  17.903  0.00  0.00    +0.000 A 
ATOM      6  C   UNL     1       1.719   8.867  18.745  0.00  0.00    +0.000 A 
ENDROOT
BRANCH   1  10
ATOM      7  C   UNL     1      -0.816  11.143  22.676  0.00  0.00    +0.000 A 
ATOM      8  C   UNL     1      -0.426   9.886  23.120  0.00  0.00    +0.000 A 
ATOM      9  C   UNL     1       0.298   9.038  22.275  0.00  0.00    +0.000 A 
ATOM     10  C   UNL     1       0.636   9.416  20.960  0.00  0.00    +0.000 A 
ATOM     11  C   UNL     1       0.226  10.695  20.540  0.00  0.00    +0.000 A 
ATOM     12  C   UNL     1      -0.486  11.552  21.388  0.00  0.00    +0.000 A 
ENDBRANCH   1  10
BRANCH   4  13
ATOM     13  C   UNL     1       3.681   5.845  17.478  0.00  0.00    +0.000 C 
BRANCH  13  14
ATOM     14  N   UNL     1       5.017   5.629  18.025  0.00  0.00    +0.000 NA
ATOM     15  H   UNL     1       5.023   4.753  18.545  0.00  0.00    +0.000 HD
BRANCH  14  16
ATOM     16  C   UNL     1       6.066   5.625  16.995  0.00  0.00    +0.000 C 
ATOM     17  C   UNL     1       7.338   4.855  17.196  0.00  0.00    +0.000 C 
ATOM     18  C   UNL     1       6.300   4.329  16.241  0.00  0.00    +0.000 C 
BRANCH  18  19
ATOM     19  C   UNL     1       6.543   4.347  14.754  0.00  0.00    +0.000 A 
ATOM     20  C   UNL     1       7.574   5.122  14.191  0.00  0.00    +0.000 A 
ATOM     21  C   UNL     1       7.824   5.114  12.816  0.00  0.00    +0.000 A 
ATOM     22  C   UNL     1       7.048   4.324  11.974  0.00  0.00    +0.000 A 
ATOM     23  C   UNL     1       6.026   3.542  12.505  0.00  0.00    +0.000 A 
ATOM     24  C   UNL     1       5.784   3.552  13.881  0.00  0.00    +0.000 A 
ENDBRANCH  18  19
ENDBRANCH  14  16
ENDBRANCH  13  14
ENDBRANCH   4  13
TORSDOF 5
ENDMDL
