MODEL 1
REMARK VINA RESULT:      -7.0      0.000      0.000
REMARK  Name = 
REMARK  11 active torsions:
REMARK  status: ('A' for Active; 'I' for Inactive)
REMARK    1  A    between atoms: C_1  and  C_2
REMARK    2  A    between atoms: C_5  and  C_6
REMARK    3  A    between atoms: C_7  and  C_8
REMARK    4  A    between atoms: C_8  and  N_9
REMARK    5  A    between atoms: C_10  and  C_11
REMARK    6  A    between atoms: C_11  and  C_12
REMARK    7  A    between atoms: C_12  and  C_13
REMARK    8  A    between atoms: C_12  and  C_14
REMARK    9  A    between atoms: C_19  and  C_20
REMARK   10  A    between atoms: C_23  and  C_24
REMARK   11  A    between atoms: C_24  and  O_26
REMARK                            x       y       z     vdW  Elec       q    Type
REMARK                         _______ _______ _______ _____ _____    ______ ____
ROOT
ATOM      1  C   UNL     1       0.353  12.761  21.335  0.00  0.00    +0.000 A 
ATOM      2  C   UNL     1      -0.457  13.506  22.259  0.00  0.00    +0.000 A 
ATOM      3  C   UNL     1      -1.344  12.767  23.073  0.00  0.00    +0.000 A 
ATOM      4  N   UNL     1      -1.382  11.410  23.085  0.00  0.00    +0.000 NA
ATOM      5  C   UNL     1      -0.586  10.717  22.270  0.00  0.00    +0.000 A 
ATOM      6  C   UNL     1      -0.658   9.330  22.362  0.00  0.00    +0.000 A 
ATOM      7  C   UNL     1       0.107   8.482  21.562  0.00  0.00    +0.000 A 
ATOM      8  C   UNL     1       0.947   9.020  20.599  0.00  0.00    +0.000 A 
ATOM      9  C   UNL     1       1.005  10.418  20.490  0.00  0.00    +0.000 A 
ATOM     10  C   UNL     1       0.281  11.311  21.346  0.00  0.00    +0.000 A 
ENDROOT
BRANCH   1  15
ATOM     11  C   UNL     1       3.896  15.540  17.600  0.00  0.00    +0.000 C 
ATOM     12  C   UNL     1       3.011  14.800  18.560  0.00  0.00    +0.000 A 
ATOM     13  C   UNL     1       3.491  14.353  19.786  0.00  0.00    +0.000 A 
ATOM     14  C   UNL     1       2.621  13.746  20.699  0.00  0.00    +0.000 A 
ATOM     15  C   UNL     1       1.284  13.442  20.370  0.00  0.00    +0.000 A 
ATOM     16  C   UNL     1       0.859  13.834  19.088  0.00  0.00    +0.000 A 
ATOM     17  C   UNL     1       1.678  14.565  18.228  0.00  0.00    +0.000 A 
ENDBRANCH   1  15
BRANCH   8  18
ATOM     18  C   UNL     1       1.741   8.156  19.724  0.00  0.00    +0.000 A 
ATOM     19  C   UNL     1       2.183   8.256  18.419  0.00  0.00    +0.000 A 
ATOM     20  C   UNL     1       2.956   7.099  18.155  0.00  0.00    +0.000 A 
ATOM     21  C   UNL     1       2.940   6.351  19.316  0.00  0.00    +0.000 A 
ATOM     22  O   UNL     1       2.194   6.981  20.266  0.00  0.00    +0.000 OA
BRANCH  21  23
ATOM     23  C   UNL     1       3.553   5.073  19.619  0.00  0.00    +0.000 C 
ATOM     24  O   UNL     1       2.986   4.064  20.019  0.00  0.00    +0.000 OA
BRANCH  23  25
ATOM     25  O   UNL     1       4.890   5.104  19.360  0.00  0.00    +0.000 OA
ATOM     26  H   UNL     1       5.336   4.361  19.807  0.00  0.00    +0.000 HD
ENDBRANCH  23  25
ENDBRANCH  21  23
ENDBRANCH   8  18
BRANCH   2  27
ATOM     27  C   UNL     1      -0.510  15.021  22.353  0.00  0.00    +0.000 C 
BRANCH  27  28
ATOM     28  N   UNL     1       0.499  15.666  23.179  0.00  0.00    +0.000 NA
ATOM     29  H   UNL     1       1.208  16.120  22.597  0.00  0.00    +0.000 HD
ATOM     30  H   UNL     1       0.966  14.983  23.769  0.00  0.00    +0.000 HD
ENDBRANCH  27  28
ENDBRANCH   2  27
BRANCH   3  31
ATOM     31  C   UNL     1      -2.291  13.375  24.096  0.00  0.00    +0.000 C 
BRANCH  31  32
ATOM     32  C   UNL     1      -3.804  13.406  23.783  0.00  0.00    +0.000 C 
ATOM     33  C   UNL     1      -4.123  13.116  22.317  0.00  0.00    +0.000 C 
ATOM     34  C   UNL     1      -4.524  12.395  24.683  0.00  0.00    +0.000 C 
ENDBRANCH  31  32
ENDBRANCH   3  31
TORSDOF 8
ENDMDL
MODEL 2
REMARK VINA RESULT:      -7.0      0.327      1.216
REMARK  Name = 
REMARK  11 active torsions:
REMARK  status: ('A' for Active; 'I' for Inactive)
REMARK    1  A    between atoms: C_1  and  C_2
REMARK    2  A    between atoms: C_5  and  C_6
REMARK    3  A    between atoms: C_7  and  C_8
REMARK    4  A    between atoms: C_8  and  N_9
REMARK    5  A    between atoms: C_10  and  C_11
REMARK    6  A    between atoms: C_11  and  C_12
REMARK    7  A    between atoms: C_12  and  C_13
REMARK    8  A    between atoms: C_12  and  C_14
REMARK    9  A    between atoms: C_19  and  C_20
REMARK   10  A    between atoms: C_23  and  C_24
REMARK   11  A    between atoms: C_24  and  O_26
REMARK                            x       y       z     vdW  Elec       q    Type
REMARK                         _______ _______ _______ _____ _____    ______ ____
ROOT
ATOM      1  C   UNL     1       0.349  12.775  21.320  0.00  0.00    +0.000 A 
ATOM      2  C   UNL     1      -0.471  13.509  22.244  0.00  0.00    +0.000 A 
ATOM      3  C   UNL     1      -1.369  12.759  23.036  0.00  0.00    +0.000 A 
ATOM      4  N   UNL     1      -1.409  11.402  23.028  0.00  0.00    +0.000 NA
ATOM      5  C   UNL     1      -0.604  10.719  22.213  0.00  0.00    +0.000 A 
ATOM      6  C   UNL     1      -0.679   9.332  22.284  0.00  0.00    +0.000 A 
ATOM      7  C   UNL     1       0.095   8.494  21.482  0.00  0.00    +0.000 A 
ATOM      8  C   UNL     1       0.948   9.044  20.537  0.00  0.00    +0.000 A 
ATOM      9  C   UNL     1       1.010  10.444  20.449  0.00  0.00    +0.000 A 
ATOM     10  C   UNL     1       0.276  11.325  21.309  0.00  0.00    +0.000 A 
ENDROOT
BRANCH   1  15
ATOM     11  C   UNL     1       4.104  15.339  17.638  0.00  0.00    +0.000 C 
ATOM     12  C   UNL     1       3.118  14.709  18.577  0.00  0.00    +0.000 A 
ATOM     13  C   UNL     1       1.804  14.472  18.191  0.00  0.00    +0.000 A 
ATOM     14  C   UNL     1       0.930  13.801  19.055  0.00  0.00    +0.000 A 
ATOM     15  C   UNL     1       1.294  13.468  20.376  0.00  0.00    +0.000 A 
ATOM     16  C   UNL     1       2.605  13.801  20.758  0.00  0.00    +0.000 A 
ATOM     17  C   UNL     1       3.524  14.340  19.858  0.00  0.00    +0.000 A 
ENDBRANCH   1  15
BRANCH   8  18
ATOM     18  C   UNL     1       1.752   8.191  19.661  0.00  0.00    +0.000 A 
ATOM     19  C   UNL     1       2.209   8.309  18.362  0.00  0.00    +0.000 A 
ATOM     20  C   UNL     1       2.985   7.155  18.092  0.00  0.00    +0.000 A 
ATOM     21  C   UNL     1       2.955   6.392  19.242  0.00  0.00    +0.000 A 
ATOM     22  O   UNL     1       2.199   7.009  20.192  0.00  0.00    +0.000 OA
BRANCH  21  23
ATOM     23  C   UNL     1       3.564   5.110  19.535  0.00  0.00    +0.000 C 
ATOM     24  O   UNL     1       4.597   4.661  19.052  0.00  0.00    +0.000 OA
BRANCH  23  25
ATOM     25  O   UNL     1       2.850   4.440  20.482  0.00  0.00    +0.000 OA
ATOM     26  H   UNL     1       1.927   4.752  20.490  0.00  0.00    +0.000 HD
ENDBRANCH  23  25
ENDBRANCH  21  23
ENDBRANCH   8  18
BRANCH   2  27
ATOM     27  C   UNL     1      -0.523  15.022  22.360  0.00  0.00    +0.000 C 
BRANCH  27  28
ATOM     28  N   UNL     1       0.440  15.649  23.252  0.00  0.00    +0.000 NA
ATOM     29  H   UNL     1       1.295  15.896  22.747  0.00  0.00    +0.000 HD
ATOM     30  H   UNL     1       0.691  15.015  24.006  0.00  0.00    +0.000 HD
ENDBRANCH  27  28
ENDBRANCH   2  27
BRANCH   3  31
ATOM     31  C   UNL     1      -2.329  13.353  24.055  0.00  0.00    +0.000 C 
BRANCH  31  32
ATOM     32  C   UNL     1      -3.848  13.254  23.794  0.00  0.00    +0.000 C 
ATOM     33  C   UNL     1      -4.580  12.379  24.811  0.00  0.00    +0.000 C 
ATOM     34  C   UNL     1      -4.451  14.663  23.789  0.00  0.00    +0.000 C 
ENDBRANCH  31  32
ENDBRANCH   3  31
TORSDOF 8
ENDMDL
MODEL 3
REMARK VINA RESULT:      -6.9      2.731      3.661
REMARK  Name = 
REMARK  11 active torsions:
REMARK  status: ('A' for Active; 'I' for Inactive)
REMARK    1  A    between atoms: C_1  and  C_2
REMARK    2  A    between atoms: C_5  and  C_6
REMARK    3  A    between atoms: C_7  and  C_8
REMARK    4  A    between atoms: C_8  and  N_9
REMARK    5  A    between atoms: C_10  and  C_11
REMARK    6  A    between atoms: C_11  and  C_12
REMARK    7  A    between atoms: C_12  and  C_13
REMARK    8  A    between atoms: C_12  and  C_14
REMARK    9  A    between atoms: C_19  and  C_20
REMARK   10  A    between atoms: C_23  and  C_24
REMARK   11  A    between atoms: C_24  and  O_26
REMARK                            x       y       z     vdW  Elec       q    Type
REMARK                         _______ _______ _______ _____ _____    ______ ____
ROOT
ATOM      1  C   UNL     1      -1.383  11.279  20.285  0.00  0.00    +0.000 A 
ATOM      2  C   UNL     1      -1.856  12.398  21.052  0.00  0.00    +0.000 A 
ATOM      3  C   UNL     1      -1.411  12.490  22.390  0.00  0.00    +0.000 A 
ATOM      4  N   UNL     1      -0.498  11.641  22.927  0.00  0.00    +0.000 NA
ATOM      5  C   UNL     1      -0.013  10.637  22.194  0.00  0.00    +0.000 A 
ATOM      6  C   UNL     1       0.942   9.829  22.802  0.00  0.00    +0.000 A 
ATOM      7  C   UNL     1       1.524   8.737  22.159  0.00  0.00    +0.000 A 
ATOM      8  C   UNL     1       1.117   8.399  20.877  0.00  0.00    +0.000 A 
ATOM      9  C   UNL     1       0.138   9.201  20.270  0.00  0.00    +0.000 A 
ATOM     10  C   UNL     1      -0.424  10.368  20.884  0.00  0.00    +0.000 A 
ENDROOT
BRANCH   1  15
ATOM     11  C   UNL     1      -3.307  10.367  14.836  0.00  0.00    +0.000 C 
ATOM     12  C   UNL     1      -2.779  10.603  16.221  0.00  0.00    +0.000 A 
ATOM     13  C   UNL     1      -1.952  11.683  16.504  0.00  0.00    +0.000 A 
ATOM     14  C   UNL     1      -1.548  11.930  17.821  0.00  0.00    +0.000 A 
ATOM     15  C   UNL     1      -1.840  11.036  18.872  0.00  0.00    +0.000 A 
ATOM     16  C   UNL     1      -2.608   9.909  18.530  0.00  0.00    +0.000 A 
ATOM     17  C   UNL     1      -3.133   9.732  17.250  0.00  0.00    +0.000 A 
ENDBRANCH   1  15
BRANCH   8  18
ATOM     18  C   UNL     1       1.688   7.242  20.186  0.00  0.00    +0.000 A 
ATOM     19  C   UNL     1       2.475   7.087  19.061  0.00  0.00    +0.000 A 
ATOM     20  C   UNL     1       2.737   5.701  18.928  0.00  0.00    +0.000 A 
ATOM     21  C   UNL     1       2.089   5.084  19.980  0.00  0.00    +0.000 A 
ATOM     22  O   UNL     1       1.441   6.011  20.738  0.00  0.00    +0.000 OA
BRANCH  21  23
ATOM     23  C   UNL     1       2.004   3.682  20.338  0.00  0.00    +0.000 C 
ATOM     24  O   UNL     1       2.934   2.889  20.423  0.00  0.00    +0.000 OA
BRANCH  23  25
ATOM     25  O   UNL     1       0.719   3.332  20.622  0.00  0.00    +0.000 OA
ATOM     26  H   UNL     1       0.486   2.506  20.159  0.00  0.00    +0.000 HD
ENDBRANCH  23  25
ENDBRANCH  21  23
ENDBRANCH   8  18
BRANCH   2  27
ATOM     27  C   UNL     1      -2.871  13.421  20.574  0.00  0.00    +0.000 C 
BRANCH  27  28
ATOM     28  N   UNL     1      -2.350  14.685  20.079  0.00  0.00    +0.000 NA
ATOM     29  H   UNL     1      -3.027  15.141  19.462  0.00  0.00    +0.000 HD
ATOM     30  H   UNL     1      -1.494  14.535  19.550  0.00  0.00    +0.000 HD
ENDBRANCH  27  28
ENDBRANCH   2  27
BRANCH   3  31
ATOM     31  C   UNL     1      -1.813  13.588  23.363  0.00  0.00    +0.000 C 
BRANCH  31  32
ATOM     32  C   UNL     1      -3.288  13.680  23.813  0.00  0.00    +0.000 C 
ATOM     33  C   UNL     1      -3.870  12.336  24.252  0.00  0.00    +0.000 C 
ATOM     34  C   UNL     1      -3.402  14.696  24.955  0.00  0.00    +0.000 C 
ENDBRANCH  31  32
ENDBRANCH   3  31
TORSDOF 8
ENDMDL
MODEL 4
REMARK VINA RESULT:      -6.9      2.715      3.745
REMARK  Name = 
REMARK  11 active torsions:
REMARK  status: ('A' for Active; 'I' for Inactive)
REMARK    1  A    between atoms: C_1  and  C_2
REMARK    2  A    between atoms: C_5  and  C_6
REMARK    3  A    between atoms: C_7  and  C_8
REMARK    4  A    between atoms: C_8  and  N_9
REMARK    5  A    between atoms: C_10  and  C_11
REMARK    6  A    between atoms: C_11  and  C_12
REMARK    7  A    between atoms: C_12  and  C_13
REMARK    8  A    between atoms: C_12  and  C_14
REMARK    9  A    between atoms: C_19  and  C_20
REMARK   10  A    between atoms: C_23  and  C_24
REMARK   11  A    between atoms: C_24  and  O_26
REMARK                            x       y       z     vdW  Elec       q    Type
REMARK                         _______ _______ _______ _____ _____    ______ ____
ROOT
ATOM      1  C   UNL     1      -1.547  11.217  20.294  0.00  0.00    +0.000 A 
ATOM      2  C   UNL     1      -2.125  12.257  21.100  0.00  0.00    +0.000 A 
ATOM      3  C   UNL     1      -1.719  12.316  22.453  0.00  0.00    +0.000 A 
ATOM      4  N   UNL     1      -0.756  11.515  22.973  0.00  0.00    +0.000 NA
ATOM      5  C   UNL     1      -0.176  10.590  22.207  0.00  0.00    +0.000 A 
ATOM      6  C   UNL     1       0.825   9.829  22.802  0.00  0.00    +0.000 A 
ATOM      7  C   UNL     1       1.506   8.818  22.123  0.00  0.00    +0.000 A 
ATOM      8  C   UNL     1       1.156   8.513  20.816  0.00  0.00    +0.000 A 
ATOM      9  C   UNL     1       0.132   9.266  20.221  0.00  0.00    +0.000 A 
ATOM     10  C   UNL     1      -0.534  10.354  20.875  0.00  0.00    +0.000 A 
ENDROOT
BRANCH   1  15
ATOM     11  C   UNL     1      -3.266  10.445  14.755  0.00  0.00    +0.000 C 
ATOM     12  C   UNL     1      -2.790  10.645  16.164  0.00  0.00    +0.000 A 
ATOM     13  C   UNL     1      -1.965  11.711  16.504  0.00  0.00    +0.000 A 
ATOM     14  C   UNL     1      -1.611  11.924  17.841  0.00  0.00    +0.000 A 
ATOM     15  C   UNL     1      -1.952  11.010  18.860  0.00  0.00    +0.000 A 
ATOM     16  C   UNL     1      -2.715   9.899  18.462  0.00  0.00    +0.000 A 
ATOM     17  C   UNL     1      -3.191   9.755  17.159  0.00  0.00    +0.000 A 
ENDBRANCH   1  15
BRANCH   8  18
ATOM     18  C   UNL     1       1.832   7.440  20.086  0.00  0.00    +0.000 A 
ATOM     19  C   UNL     1       2.499   7.371  18.878  0.00  0.00    +0.000 A 
ATOM     20  C   UNL     1       2.976   6.044  18.744  0.00  0.00    +0.000 A 
ATOM     21  C   UNL     1       2.567   5.372  19.880  0.00  0.00    +0.000 A 
ATOM     22  O   UNL     1       1.863   6.209  20.690  0.00  0.00    +0.000 OA
BRANCH  21  23
ATOM     23  C   UNL     1       2.764   3.992  20.275  0.00  0.00    +0.000 C 
ATOM     24  O   UNL     1       3.342   3.120  19.636  0.00  0.00    +0.000 OA
BRANCH  23  25
ATOM     25  O   UNL     1       2.245   3.764  21.514  0.00  0.00    +0.000 OA
ATOM     26  H   UNL     1       2.953   3.507  22.133  0.00  0.00    +0.000 HD
ENDBRANCH  23  25
ENDBRANCH  21  23
ENDBRANCH   8  18
BRANCH   2  27
ATOM     27  C   UNL     1      -3.206  13.221  20.645  0.00  0.00    +0.000 C 
BRANCH  27  28
ATOM     28  N   UNL     1      -2.768  14.519  20.156  0.00  0.00    +0.000 NA
ATOM     29  H   UNL     1      -3.418  15.254  20.446  0.00  0.00    +0.000 HD
ATOM     30  H   UNL     1      -2.724  14.521  19.141  0.00  0.00    +0.000 HD
ENDBRANCH  27  28
ENDBRANCH   2  27
BRANCH   3  31
ATOM     31  C   UNL     1      -2.229  13.331  23.466  0.00  0.00    +0.000 C 
BRANCH  31  32
ATOM     32  C   UNL     1      -1.248  14.388  24.018  0.00  0.00    +0.000 C 
ATOM     33  C   UNL     1      -0.579  15.220  22.924  0.00  0.00    +0.000 C 
ATOM     34  C   UNL     1      -1.996  15.309  24.989  0.00  0.00    +0.000 C 
ENDBRANCH  31  32
ENDBRANCH   3  31
TORSDOF 8
ENDMDL
MODEL 5
REMARK VINA RESULT:      -6.7      0.791      1.018
REMARK  Name = 
REMARK  11 active torsions:
REMARK  status: ('A' for Active; 'I' for Inactive)
REMARK    1  A    between atoms: C_1  and  C_2
REMARK    2  A    between atoms: C_5  and  C_6
REMARK    3  A    between atoms: C_7  and  C_8
REMARK    4  A    between atoms: C_8  and  N_9
REMARK    5  A    between atoms: C_10  and  C_11
REMARK    6  A    between atoms: C_11  and  C_12
REMARK    7  A    between atoms: C_12  and  C_13
REMARK    8  A    between atoms: C_12  and  C_14
REMARK    9  A    between atoms: C_19  and  C_20
REMARK   10  A    between atoms: C_23  and  C_24
REMARK   11  A    between atoms: C_24  and  O_26
REMARK                            x       y       z     vdW  Elec       q    Type
REMARK                         _______ _______ _______ _____ _____    ______ ____
ROOT
ATOM      1  C   UNL     1       0.467  12.351  21.036  0.00  0.00    +0.000 A 
ATOM      2  C   UNL     1      -0.387  12.993  21.996  0.00  0.00    +0.000 A 
ATOM      3  C   UNL     1      -1.219  12.156  22.772  0.00  0.00    +0.000 A 
ATOM      4  N   UNL     1      -1.167  10.801  22.716  0.00  0.00    +0.000 NA
ATOM      5  C   UNL     1      -0.330  10.204  21.866  0.00  0.00    +0.000 A 
ATOM      6  C   UNL     1      -0.309   8.813  21.889  0.00  0.00    +0.000 A 
ATOM      7  C   UNL     1       0.508   8.059  21.047  0.00  0.00    +0.000 A 
ATOM      8  C   UNL     1       1.307   8.700  20.111  0.00  0.00    +0.000 A 
ATOM      9  C   UNL     1       1.272  10.102  20.073  0.00  0.00    +0.000 A 
ATOM     10  C   UNL     1       0.493  10.900  20.974  0.00  0.00    +0.000 A 
ENDROOT
BRANCH   1  15
ATOM     11  C   UNL     1       3.791  15.537  17.427  0.00  0.00    +0.000 C 
ATOM     12  C   UNL     1       2.967  14.697  18.358  0.00  0.00    +0.000 A 
ATOM     13  C   UNL     1       3.419  14.375  19.631  0.00  0.00    +0.000 A 
ATOM     14  C   UNL     1       2.592  13.666  20.510  0.00  0.00    +0.000 A 
ATOM     15  C   UNL     1       1.348  13.140  20.106  0.00  0.00    +0.000 A 
ATOM     16  C   UNL     1       0.962  13.415  18.782  0.00  0.00    +0.000 A 
ATOM     17  C   UNL     1       1.716  14.240  17.948  0.00  0.00    +0.000 A 
ENDBRANCH   1  15
BRANCH   8  18
ATOM     18  C   UNL     1       2.153   7.935  19.194  0.00  0.00    +0.000 A 
ATOM     19  C   UNL     1       2.819   8.240  18.022  0.00  0.00    +0.000 A 
ATOM     20  C   UNL     1       3.514   7.070  17.626  0.00  0.00    +0.000 A 
ATOM     21  C   UNL     1       3.228   6.112  18.579  0.00  0.00    +0.000 A 
ATOM     22  O   UNL     1       2.394   6.627  19.524  0.00  0.00    +0.000 OA
BRANCH  21  23
ATOM     23  C   UNL     1       3.657   4.731  18.679  0.00  0.00    +0.000 C 
ATOM     24  O   UNL     1       4.054   4.157  19.686  0.00  0.00    +0.000 OA
BRANCH  23  25
ATOM     25  O   UNL     1       3.529   4.096  17.481  0.00  0.00    +0.000 OA
ATOM     26  H   UNL     1       3.137   3.213  17.609  0.00  0.00    +0.000 HD
ENDBRANCH  23  25
ENDBRANCH  21  23
ENDBRANCH   8  18
BRANCH   2  27
ATOM     27  C   UNL     1      -0.540  14.495  22.167  0.00  0.00    +0.000 C 
BRANCH  27  28
ATOM     28  N   UNL     1       0.380  15.152  23.082  0.00  0.00    +0.000 NA
ATOM     29  H   UNL     1       1.253  15.394  22.607  0.00  0.00    +0.000 HD
ATOM     30  H   UNL     1       0.605  14.539  23.861  0.00  0.00    +0.000 HD
ENDBRANCH  27  28
ENDBRANCH   2  27
BRANCH   3  31
ATOM     31  C   UNL     1      -2.202  12.647  23.825  0.00  0.00    +0.000 C 
BRANCH  31  32
ATOM     32  C   UNL     1      -3.699  12.307  23.662  0.00  0.00    +0.000 C 
ATOM     33  C   UNL     1      -4.516  12.553  24.930  0.00  0.00    +0.000 C 
ATOM     34  C   UNL     1      -4.277  13.126  22.502  0.00  0.00    +0.000 C 
ENDBRANCH  31  32
ENDBRANCH   3  31
TORSDOF 8
ENDMDL
MODEL 6
REMARK VINA RESULT:      -6.7      6.941     10.061
REMARK  Name = 
REMARK  11 active torsions:
REMARK  status: ('A' for Active; 'I' for Inactive)
REMARK    1  A    between atoms: C_1  and  C_2
REMARK    2  A    between atoms: C_5  and  C_6
REMARK    3  A    between atoms: C_7  and  C_8
REMARK    4  A    between atoms: C_8  and  N_9
REMARK    5  A    between atoms: C_10  and  C_11
REMARK    6  A    between atoms: C_11  and  C_12
REMARK    7  A    between atoms: C_12  and  C_13
REMARK    8  A    between atoms: C_12  and  C_14
REMARK    9  A    between atoms: C_19  and  C_20
REMARK   10  A    between atoms: C_23  and  C_24
REMARK   11  A    between atoms: C_24  and  O_26
REMARK                            x       y       z     vdW  Elec       q    Type
REMARK                         _______ _______ _______ _____ _____    ______ ____
ROOT
ATOM      1  C   UNL     1       9.507  13.091  21.132  0.00  0.00    +0.000 A 
ATOM      2  C   UNL     1      10.263  14.307  21.246  0.00  0.00    +0.000 A 
ATOM      3  C   UNL     1      11.202  14.575  20.225  0.00  0.00    +0.000 A 
ATOM      4  N   UNL     1      11.336  13.798  19.120  0.00  0.00    +0.000 NA
ATOM      5  C   UNL     1      10.591  12.701  18.985  0.00  0.00    +0.000 A 
ATOM      6  C   UNL     1      10.761  11.974  17.812  0.00  0.00    +0.000 A 
ATOM      7  C   UNL     1      10.058  10.800  17.544  0.00  0.00    +0.000 A 
ATOM      8  C   UNL     1       9.179  10.296  18.492  0.00  0.00    +0.000 A 
ATOM      9  C   UNL     1       9.021  11.017  19.685  0.00  0.00    +0.000 A 
ATOM     10  C   UNL     1       9.681  12.261  19.953  0.00  0.00    +0.000 A 
ENDROOT
BRANCH   1  15
ATOM     11  C   UNL     1       5.625  11.343  25.145  0.00  0.00    +0.000 C 
ATOM     12  C   UNL     1       6.642  11.803  24.142  0.00  0.00    +0.000 A 
ATOM     13  C   UNL     1       7.971  11.405  24.227  0.00  0.00    +0.000 A 
ATOM     14  C   UNL     1       8.879  11.776  23.229  0.00  0.00    +0.000 A 
ATOM     15  C   UNL     1       8.527  12.664  22.191  0.00  0.00    +0.000 A 
ATOM     16  C   UNL     1       7.195  13.112  22.187  0.00  0.00    +0.000 A 
ATOM     17  C   UNL     1       6.251  12.635  23.095  0.00  0.00    +0.000 A 
ENDBRANCH   1  15
BRANCH   8  18
ATOM     18  C   UNL     1       8.447   9.051  18.253  0.00  0.00    +0.000 A 
ATOM     19  C   UNL     1       7.506   8.654  17.322  0.00  0.00    +0.000 A 
ATOM     20  C   UNL     1       7.208   7.295  17.590  0.00  0.00    +0.000 A 
ATOM     21  C   UNL     1       7.983   6.939  18.677  0.00  0.00    +0.000 A 
ATOM     22  O   UNL     1       8.726   8.002  19.090  0.00  0.00    +0.000 OA
BRANCH  21  23
ATOM     23  C   UNL     1       8.081   5.678  19.386  0.00  0.00    +0.000 C 
ATOM     24  O   UNL     1       8.164   5.523  20.599  0.00  0.00    +0.000 OA
BRANCH  23  25
ATOM     25  O   UNL     1       8.030   4.629  18.519  0.00  0.00    +0.000 OA
ATOM     26  H   UNL     1       7.209   4.120  18.656  0.00  0.00    +0.000 HD
ENDBRANCH  23  25
ENDBRANCH  21  23
ENDBRANCH   8  18
BRANCH   2  27
ATOM     27  C   UNL     1      10.208  15.266  22.423  0.00  0.00    +0.000 C 
BRANCH  27  28
ATOM     28  N   UNL     1       9.171  16.285  22.395  0.00  0.00    +0.000 NA
ATOM     29  H   UNL     1       9.375  16.991  21.684  0.00  0.00    +0.000 HD
ATOM     30  H   UNL     1       9.107  16.753  23.295  0.00  0.00    +0.000 HD
ENDBRANCH  27  28
ENDBRANCH   2  27
BRANCH   3  31
ATOM     31  C   UNL     1      12.106  15.798  20.179  0.00  0.00    +0.000 C 
BRANCH  31  32
ATOM     32  C   UNL     1      11.608  17.063  19.446  0.00  0.00    +0.000 C 
ATOM     33  C   UNL     1      11.801  18.345  20.256  0.00  0.00    +0.000 C 
ATOM     34  C   UNL     1      12.333  17.182  18.101  0.00  0.00    +0.000 C 
ENDBRANCH  31  32
ENDBRANCH   3  31
TORSDOF 8
ENDMDL
MODEL 7
REMARK VINA RESULT:      -6.7      2.694      3.708
REMARK  Name = 
REMARK  11 active torsions:
REMARK  status: ('A' for Active; 'I' for Inactive)
REMARK    1  A    between atoms: C_1  and  C_2
REMARK    2  A    between atoms: C_5  and  C_6
REMARK    3  A    between atoms: C_7  and  C_8
REMARK    4  A    between atoms: C_8  and  N_9
REMARK    5  A    between atoms: C_10  and  C_11
REMARK    6  A    between atoms: C_11  and  C_12
REMARK    7  A    between atoms: C_12  and  C_13
REMARK    8  A    between atoms: C_12  and  C_14
REMARK    9  A    between atoms: C_19  and  C_20
REMARK   10  A    between atoms: C_23  and  C_24
REMARK   11  A    between atoms: C_24  and  O_26
REMARK                            x       y       z     vdW  Elec       q    Type
REMARK                         _______ _______ _______ _____ _____    ______ ____
ROOT
ATOM      1  C   UNL     1      -1.602  11.272  20.269  0.00  0.00    +0.000 A 
ATOM      2  C   UNL     1      -2.172  12.333  21.052  0.00  0.00    +0.000 A 
ATOM      3  C   UNL     1      -1.760  12.424  22.401  0.00  0.00    +0.000 A 
ATOM      4  N   UNL     1      -0.796  11.632  22.936  0.00  0.00    +0.000 NA
ATOM      5  C   UNL     1      -0.224  10.687  22.190  0.00  0.00    +0.000 A 
ATOM      6  C   UNL     1       0.778   9.937  22.797  0.00  0.00    +0.000 A 
ATOM      7  C   UNL     1       1.453   8.909  22.140  0.00  0.00    +0.000 A 
ATOM      8  C   UNL     1       1.096   8.573  20.842  0.00  0.00    +0.000 A 
ATOM      9  C   UNL     1       0.070   9.315  20.235  0.00  0.00    +0.000 A 
ATOM     10  C   UNL     1      -0.589  10.420  20.866  0.00  0.00    +0.000 A 
ENDROOT
BRANCH   1  15
ATOM     11  C   UNL     1      -3.058  10.301  14.686  0.00  0.00    +0.000 C 
ATOM     12  C   UNL     1      -2.720  10.549  16.127  0.00  0.00    +0.000 A 
ATOM     13  C   UNL     1      -3.172   9.700  17.131  0.00  0.00    +0.000 A 
ATOM     14  C   UNL     1      -2.768   9.904  18.455  0.00  0.00    +0.000 A 
ATOM     15  C   UNL     1      -2.014  11.031  18.842  0.00  0.00    +0.000 A 
ATOM     16  C   UNL     1      -1.647  11.912  17.810  0.00  0.00    +0.000 A 
ATOM     17  C   UNL     1      -1.925  11.641  16.471  0.00  0.00    +0.000 A 
ENDBRANCH   1  15
BRANCH   8  18
ATOM     18  C   UNL     1       1.764   7.480  20.136  0.00  0.00    +0.000 A 
ATOM     19  C   UNL     1       2.444   7.385  18.937  0.00  0.00    +0.000 A 
ATOM     20  C   UNL     1       2.903   6.049  18.827  0.00  0.00    +0.000 A 
ATOM     21  C   UNL     1       2.472   5.400  19.967  0.00  0.00    +0.000 A 
ATOM     22  O   UNL     1       1.771   6.258  20.758  0.00  0.00    +0.000 OA
BRANCH  21  23
ATOM     23  C   UNL     1       2.645   4.022  20.384  0.00  0.00    +0.000 C 
ATOM     24  O   UNL     1       1.936   3.397  21.165  0.00  0.00    +0.000 OA
BRANCH  23  25
ATOM     25  O   UNL     1       3.710   3.455  19.753  0.00  0.00    +0.000 OA
ATOM     26  H   UNL     1       3.450   3.147  18.865  0.00  0.00    +0.000 HD
ENDBRANCH  23  25
ENDBRANCH  21  23
ENDBRANCH   8  18
BRANCH   2  27
ATOM     27  C   UNL     1      -3.253  13.289  20.579  0.00  0.00    +0.000 C 
BRANCH  27  28
ATOM     28  N   UNL     1      -4.586  12.738  20.394  0.00  0.00    +0.000 NA
ATOM     29  H   UNL     1      -5.204  13.423  19.951  0.00  0.00    +0.000 HD
ATOM     30  H   UNL     1      -4.992  12.480  21.289  0.00  0.00    +0.000 HD
ENDBRANCH  27  28
ENDBRANCH   2  27
BRANCH   3  31
ATOM     31  C   UNL     1      -2.262  13.464  23.391  0.00  0.00    +0.000 C 
BRANCH  31  32
ATOM     32  C   UNL     1      -3.770  13.512  23.720  0.00  0.00    +0.000 C 
ATOM     33  C   UNL     1      -4.207  12.430  24.707  0.00  0.00    +0.000 C 
ATOM     34  C   UNL     1      -4.119  14.897  24.276  0.00  0.00    +0.000 C 
ENDBRANCH  31  32
ENDBRANCH   3  31
TORSDOF 8
ENDMDL
MODEL 8
REMARK VINA RESULT:      -6.6      2.708      3.852
REMARK  Name = 
REMARK  11 active torsions:
REMARK  status: ('A' for Active; 'I' for Inactive)
REMARK    1  A    between atoms: C_1  and  C_2
REMARK    2  A    between atoms: C_5  and  C_6
REMARK    3  A    between atoms: C_7  and  C_8
REMARK    4  A    between atoms: C_8  and  N_9
REMARK    5  A    between atoms: C_10  and  C_11
REMARK    6  A    between atoms: C_11  and  C_12
REMARK    7  A    between atoms: C_12  and  C_13
REMARK    8  A    between atoms: C_12  and  C_14
REMARK    9  A    between atoms: C_19  and  C_20
REMARK   10  A    between atoms: C_23  and  C_24
REMARK   11  A    between atoms: C_24  and  O_26
REMARK                            x       y       z     vdW  Elec       q    Type
REMARK                         _______ _______ _______ _____ _____    ______ ____
ROOT
ATOM      1  C   UNL     1      -1.549  11.193  20.299  0.00  0.00    +0.000 A 
ATOM      2  C   UNL     1      -2.104  12.227  21.128  0.00  0.00    +0.000 A 
ATOM      3  C   UNL     1      -1.663  12.278  22.469  0.00  0.00    +0.000 A 
ATOM      4  N   UNL     1      -0.685  11.473  22.958  0.00  0.00    +0.000 NA
ATOM      5  C   UNL     1      -0.126  10.553  22.171  0.00  0.00    +0.000 A 
ATOM      6  C   UNL     1       0.891   9.789  22.732  0.00  0.00    +0.000 A 
ATOM      7  C   UNL     1       1.554   8.784  22.029  0.00  0.00    +0.000 A 
ATOM      8  C   UNL     1       1.169   8.488  20.729  0.00  0.00    +0.000 A 
ATOM      9  C   UNL     1       0.129   9.244  20.168  0.00  0.00    +0.000 A 
ATOM     10  C   UNL     1      -0.520  10.327  20.847  0.00  0.00    +0.000 A 
ENDROOT
BRANCH   1  15
ATOM     11  C   UNL     1      -3.124  10.387  14.723  0.00  0.00    +0.000 C 
ATOM     12  C   UNL     1      -2.756  10.593  16.163  0.00  0.00    +0.000 A 
ATOM     13  C   UNL     1      -3.208   9.730  17.154  0.00  0.00    +0.000 A 
ATOM     14  C   UNL     1      -2.776   9.893  18.476  0.00  0.00    +0.000 A 
ATOM     15  C   UNL     1      -1.991  10.995  18.875  0.00  0.00    +0.000 A 
ATOM     16  C   UNL     1      -1.624  11.893  17.857  0.00  0.00    +0.000 A 
ATOM     17  C   UNL     1      -1.932  11.660  16.518  0.00  0.00    +0.000 A 
ENDBRANCH   1  15
BRANCH   8  18
ATOM     18  C   UNL     1       1.826   7.419  19.975  0.00  0.00    +0.000 A 
ATOM     19  C   UNL     1       2.612   7.389  18.839  0.00  0.00    +0.000 A 
ATOM     20  C   UNL     1       2.984   6.038  18.631  0.00  0.00    +0.000 A 
ATOM     21  C   UNL     1       2.399   5.316  19.652  0.00  0.00    +0.000 A 
ATOM     22  O   UNL     1       1.685   6.145  20.462  0.00  0.00    +0.000 OA
BRANCH  21  23
ATOM     23  C   UNL     1       2.432   3.894  19.934  0.00  0.00    +0.000 C 
ATOM     24  O   UNL     1       2.996   3.346  20.873  0.00  0.00    +0.000 OA
BRANCH  23  25
ATOM     25  O   UNL     1       1.698   3.201  19.019  0.00  0.00    +0.000 OA
ATOM     26  H   UNL     1       0.812   3.599  18.929  0.00  0.00    +0.000 HD
ENDBRANCH  23  25
ENDBRANCH  21  23
ENDBRANCH   8  18
BRANCH   2  27
ATOM     27  C   UNL     1      -3.198  13.193  20.709  0.00  0.00    +0.000 C 
BRANCH  27  28
ATOM     28  N   UNL     1      -4.567  12.705  20.766  0.00  0.00    +0.000 NA
ATOM     29  H   UNL     1      -5.215  13.394  20.376  0.00  0.00    +0.000 HD
ATOM     30  H   UNL     1      -4.841  12.525  21.728  0.00  0.00    +0.000 HD
ENDBRANCH  27  28
ENDBRANCH   2  27
BRANCH   3  31
ATOM     31  C   UNL     1      -2.146  13.285  23.502  0.00  0.00    +0.000 C 
BRANCH  31  32
ATOM     32  C   UNL     1      -1.199  14.430  23.923  0.00  0.00    +0.000 C 
ATOM     33  C   UNL     1      -0.482  15.086  22.743  0.00  0.00    +0.000 C 
ATOM     34  C   UNL     1      -1.999  15.484  24.698  0.00  0.00    +0.000 C 
ENDBRANCH  31  32
ENDBRANCH   3  31
TORSDOF 8
ENDMDL
MODEL 9
REMARK VINA RESULT:      -6.6      2.768      3.808
REMARK  Name = 
REMARK  11 active torsions:
REMARK  status: ('A' for Active; 'I' for Inactive)
REMARK    1  A    between atoms: C_1  and  C_2
REMARK    2  A    between atoms: C_5  and  C_6
REMARK    3  A    between atoms: C_7  and  C_8
REMARK    4  A    between atoms: C_8  and  N_9
REMARK    5  A    between atoms: C_10  and  C_11
REMARK    6  A    between atoms: C_11  and  C_12
REMARK    7  A    between atoms: C_12  and  C_13
REMARK    8  A    between atoms: C_12  and  C_14
REMARK    9  A    between atoms: C_19  and  C_20
REMARK   10  A    between atoms: C_23  and  C_24
REMARK   11  A    between atoms: C_24  and  O_26
REMARK                            x       y       z     vdW  Elec       q    Type
REMARK                         _______ _______ _______ _____ _____    ______ ____
ROOT
ATOM      1  C   UNL     1      -1.381  11.269  20.259  0.00  0.00    +0.000 A 
ATOM      2  C   UNL     1      -1.859  12.408  20.993  0.00  0.00    +0.000 A 
ATOM      3  C   UNL     1      -1.430  12.531  22.333  0.00  0.00    +0.000 A 
ATOM      4  N   UNL     1      -0.528  11.691  22.902  0.00  0.00    +0.000 NA
ATOM      5  C   UNL     1      -0.038  10.669  22.200  0.00  0.00    +0.000 A 
ATOM      6  C   UNL     1       0.907   9.872  22.839  0.00  0.00    +0.000 A 
ATOM      7  C   UNL     1       1.493   8.763  22.230  0.00  0.00    +0.000 A 
ATOM      8  C   UNL     1       1.100   8.395  20.951  0.00  0.00    +0.000 A 
ATOM      9  C   UNL     1       0.131   9.186  20.313  0.00  0.00    +0.000 A 
ATOM     10  C   UNL     1      -0.434  10.369  20.892  0.00  0.00    +0.000 A 
ENDROOT
BRANCH   1  15
ATOM     11  C   UNL     1      -3.243  10.227  14.812  0.00  0.00    +0.000 C 
ATOM     12  C   UNL     1      -2.731  10.497  16.196  0.00  0.00    +0.000 A 
ATOM     13  C   UNL     1      -1.942  11.608  16.470  0.00  0.00    +0.000 A 
ATOM     14  C   UNL     1      -1.554  11.884  17.786  0.00  0.00    +0.000 A 
ATOM     15  C   UNL     1      -1.822  10.994  18.847  0.00  0.00    +0.000 A 
ATOM     16  C   UNL     1      -2.551   9.838  18.515  0.00  0.00    +0.000 A 
ATOM     17  C   UNL     1      -3.062   9.628  17.235  0.00  0.00    +0.000 A 
ENDBRANCH   1  15
BRANCH   8  18
ATOM     18  C   UNL     1       1.674   7.220  20.296  0.00  0.00    +0.000 A 
ATOM     19  C   UNL     1       1.567   5.857  20.500  0.00  0.00    +0.000 A 
ATOM     20  C   UNL     1       2.341   5.227  19.495  0.00  0.00    +0.000 A 
ATOM     21  C   UNL     1       2.884   6.243  18.734  0.00  0.00    +0.000 A 
ATOM     22  O   UNL     1       2.495   7.453  19.222  0.00  0.00    +0.000 OA
BRANCH  21  23
ATOM     23  C   UNL     1       3.763   6.185  17.583  0.00  0.00    +0.000 C 
ATOM     24  O   UNL     1       4.354   7.124  17.063  0.00  0.00    +0.000 OA
BRANCH  23  25
ATOM     25  O   UNL     1       3.899   4.904  17.141  0.00  0.00    +0.000 OA
ATOM     26  H   UNL     1       3.037   4.449  17.161  0.00  0.00    +0.000 HD
ENDBRANCH  23  25
ENDBRANCH  21  23
ENDBRANCH   8  18
BRANCH   2  27
ATOM     27  C   UNL     1      -2.865  13.423  20.479  0.00  0.00    +0.000 C 
BRANCH  27  28
ATOM     28  N   UNL     1      -4.249  12.988  20.381  0.00  0.00    +0.000 NA
ATOM     29  H   UNL     1      -4.484  12.738  19.417  0.00  0.00    +0.000 HD
ATOM     30  H   UNL     1      -4.877  13.731  20.676  0.00  0.00    +0.000 HD
ENDBRANCH  27  28
ENDBRANCH   2  27
BRANCH   3  31
ATOM     31  C   UNL     1      -1.840  13.653  23.275  0.00  0.00    +0.000 C 
BRANCH  31  32
ATOM     32  C   UNL     1      -3.299  13.706  23.779  0.00  0.00    +0.000 C 
ATOM     33  C   UNL     1      -3.857  12.334  24.157  0.00  0.00    +0.000 C 
ATOM     34  C   UNL     1      -3.381  14.652  24.983  0.00  0.00    +0.000 C 
ENDBRANCH  31  32
ENDBRANCH   3  31
TORSDOF 8
ENDMDL
