MODEL 1
REMARK VINA RESULT:      -7.1      0.000      0.000
REMARK  Name = 
REMARK  5 active torsions:
REMARK  status: ('A' for Active; 'I' for Inactive)
REMARK    1  A    between atoms: C_1  and  O_2
REMARK    2  A    between atoms: O_2  and  C_3
REMARK    3  A    between atoms: C_3  and  C_4
REMARK    4  A    between atoms: C_6  and  C_7
REMARK    5  A    between atoms: C_18  and  C_19
REMARK                            x       y       z     vdW  Elec       q    Type
REMARK                         _______ _______ _______ _____ _____    ______ ____
ROOT
ATOM      1  C   UNL     1       2.968   6.130  19.333  0.00  0.00    +0.000 C 
ATOM      2  O   UNL     1       2.526   5.513  20.296  0.00  0.00    +0.000 OA
ATOM      3  N   UNL     1       2.607   7.401  18.947  0.00  0.00    +0.000 N 
ATOM      4  C   UNL     1       1.749   8.144  19.713  0.00  0.00    +0.000 A 
ATOM      5  N   UNL     1       1.350   7.925  20.948  0.00  0.00    +0.000 NA
ATOM      6  C   UNL     1       0.511   8.937  21.293  0.00  0.00    +0.000 A 
ATOM      7  C   UNL     1       0.271   9.883  20.340  0.00  0.00    +0.000 A 
ATOM      8  S   UNL     1       1.141   9.574  18.943  0.00  0.00    +0.000 S 
ATOM      9  C   UNL     1      -0.642  10.952  20.792  0.00  0.00    +0.000 C 
ATOM     10  C   UNL     1      -0.621  10.711  22.341  0.00  0.00    +0.000 C 
ATOM     11  C   UNL     1      -0.181   9.225  22.565  0.00  0.00    +0.000 C 
ATOM     12  H   UNL     1       2.869   7.764  18.047  0.00  0.00    +0.000 HD
ENDROOT
BRANCH   1  15
ATOM     13  C   UNL     1       5.764   4.840  17.300  0.00  0.00    +0.000 A 
ATOM     14  C   UNL     1       5.302   5.789  18.191  0.00  0.00    +0.000 A 
ATOM     15  C   UNL     1       3.926   5.494  18.434  0.00  0.00    +0.000 A 
ATOM     16  C   UNL     1       3.644   4.389  17.648  0.00  0.00    +0.000 A 
ATOM     17  C   UNL     1       2.428   3.584  17.395  0.00  0.00    +0.000 C 
ATOM     18  O   UNL     1       4.749   4.000  16.958  0.00  0.00    +0.000 OA
BRANCH  13  19
ATOM     19  C   UNL     1       7.068   4.555  16.646  0.00  0.00    +0.000 C 
BRANCH  19  21
ATOM     20  C   UNL     1       6.897   4.841  14.292  0.00  0.00    +0.000 C 
ATOM     21  O   UNL     1       7.273   5.424  15.533  0.00  0.00    +0.000 OA
ENDBRANCH  19  21
ENDBRANCH  13  19
ENDBRANCH   1  15
TORSDOF 3
ENDMDL
MODEL 2
REMARK VINA RESULT:      -7.1      0.851      1.083
REMARK  Name = 
REMARK  5 active torsions:
REMARK  status: ('A' for Active; 'I' for Inactive)
REMARK    1  A    between atoms: C_1  and  O_2
REMARK    2  A    between atoms: O_2  and  C_3
REMARK    3  A    between atoms: C_3  and  C_4
REMARK    4  A    between atoms: C_6  and  C_7
REMARK    5  A    between atoms: C_18  and  C_19
REMARK                            x       y       z     vdW  Elec       q    Type
REMARK                         _______ _______ _______ _____ _____    ______ ____
ROOT
ATOM      1  C   UNL     1       2.524   6.560  19.307  0.00  0.00    +0.000 C 
ATOM      2  O   UNL     1       2.179   5.888  20.273  0.00  0.00    +0.000 OA
ATOM      3  N   UNL     1       2.130   7.850  19.032  0.00  0.00    +0.000 N 
ATOM      4  C   UNL     1       1.358   8.547  19.922  0.00  0.00    +0.000 A 
ATOM      5  N   UNL     1       1.086   8.257  21.177  0.00  0.00    +0.000 NA
ATOM      6  C   UNL     1       0.290   9.247  21.662  0.00  0.00    +0.000 A 
ATOM      7  C   UNL     1      -0.042  10.246  20.794  0.00  0.00    +0.000 A 
ATOM      8  S   UNL     1       0.680  10.018  19.300  0.00  0.00    +0.000 S 
ATOM      9  C   UNL     1      -0.899  11.285  21.396  0.00  0.00    +0.000 C 
ATOM     10  C   UNL     1      -0.722  10.956  22.919  0.00  0.00    +0.000 C 
ATOM     11  C   UNL     1      -0.267   9.461  23.013  0.00  0.00    +0.000 C 
ATOM     12  H   UNL     1       2.300   8.264  18.131  0.00  0.00    +0.000 HD
ENDROOT
BRANCH   1  15
ATOM     13  C   UNL     1       5.050   5.481  16.842  0.00  0.00    +0.000 A 
ATOM     14  C   UNL     1       4.617   6.444  17.734  0.00  0.00    +0.000 A 
ATOM     15  C   UNL     1       3.382   5.978  18.280  0.00  0.00    +0.000 A 
ATOM     16  C   UNL     1       3.141   4.763  17.657  0.00  0.00    +0.000 A 
ATOM     17  C   UNL     1       2.051   3.765  17.726  0.00  0.00    +0.000 C 
ATOM     18  O   UNL     1       4.142   4.469  16.786  0.00  0.00    +0.000 OA
BRANCH  13  19
ATOM     19  C   UNL     1       6.232   5.322  15.956  0.00  0.00    +0.000 C 
BRANCH  19  21
ATOM     20  C   UNL     1       7.717   4.595  17.667  0.00  0.00    +0.000 C 
ATOM     21  O   UNL     1       7.438   5.577  16.676  0.00  0.00    +0.000 OA
ENDBRANCH  19  21
ENDBRANCH  13  19
ENDBRANCH   1  15
TORSDOF 3
ENDMDL
MODEL 3
REMARK VINA RESULT:      -6.9      1.502      2.418
REMARK  Name = 
REMARK  5 active torsions:
REMARK  status: ('A' for Active; 'I' for Inactive)
REMARK    1  A    between atoms: C_1  and  O_2
REMARK    2  A    between atoms: O_2  and  C_3
REMARK    3  A    between atoms: C_3  and  C_4
REMARK    4  A    between atoms: C_6  and  C_7
REMARK    5  A    between atoms: C_18  and  C_19
REMARK                            x       y       z     vdW  Elec       q    Type
REMARK                         _______ _______ _______ _____ _____    ______ ____
ROOT
ATOM      1  C   UNL     1       4.206   6.151  18.045  0.00  0.00    +0.000 C 
ATOM      2  O   UNL     1       3.926   5.422  18.990  0.00  0.00    +0.000 OA
ATOM      3  N   UNL     1       3.600   7.347  17.732  0.00  0.00    +0.000 N 
ATOM      4  C   UNL     1       2.650   7.883  18.559  0.00  0.00    +0.000 A 
ATOM      5  N   UNL     1       2.348   7.542  19.794  0.00  0.00    +0.000 NA
ATOM      6  C   UNL     1       1.350   8.363  20.213  0.00  0.00    +0.000 A 
ATOM      7  C   UNL     1       0.900   9.286  19.315  0.00  0.00    +0.000 A 
ATOM      8  S   UNL     1       1.756   9.204  17.878  0.00  0.00    +0.000 S 
ATOM      9  C   UNL     1      -0.177  10.145  19.847  0.00  0.00    +0.000 C 
ATOM     10  C   UNL     1      -0.049   9.848  21.381  0.00  0.00    +0.000 C 
ATOM     11  C   UNL     1       0.669   8.463  21.519  0.00  0.00    +0.000 C 
ATOM     12  H   UNL     1       3.753   7.789  16.842  0.00  0.00    +0.000 HD
ENDROOT
BRANCH   1  15
ATOM     13  C   UNL     1       6.383   5.089  15.260  0.00  0.00    +0.000 A 
ATOM     14  C   UNL     1       5.102   5.259  15.749  0.00  0.00    +0.000 A 
ATOM     15  C   UNL     1       5.229   5.744  17.086  0.00  0.00    +0.000 A 
ATOM     16  C   UNL     1       6.593   5.813  17.323  0.00  0.00    +0.000 A 
ATOM     17  C   UNL     1       7.421   6.201  18.485  0.00  0.00    +0.000 C 
ATOM     18  O   UNL     1       7.287   5.411  16.225  0.00  0.00    +0.000 OA
BRANCH  13  19
ATOM     19  C   UNL     1       6.967   4.636  13.971  0.00  0.00    +0.000 C 
BRANCH  19  21
ATOM     20  C   UNL     1       6.527   3.351  12.019  0.00  0.00    +0.000 C 
ATOM     21  O   UNL     1       6.111   3.685  13.338  0.00  0.00    +0.000 OA
ENDBRANCH  19  21
ENDBRANCH  13  19
ENDBRANCH   1  15
TORSDOF 3
ENDMDL
MODEL 4
REMARK VINA RESULT:      -6.7      1.588      1.870
REMARK  Name = 
REMARK  5 active torsions:
REMARK  status: ('A' for Active; 'I' for Inactive)
REMARK    1  A    between atoms: C_1  and  O_2
REMARK    2  A    between atoms: O_2  and  C_3
REMARK    3  A    between atoms: C_3  and  C_4
REMARK    4  A    between atoms: C_6  and  C_7
REMARK    5  A    between atoms: C_18  and  C_19
REMARK                            x       y       z     vdW  Elec       q    Type
REMARK                         _______ _______ _______ _____ _____    ______ ____
ROOT
ATOM      1  C   UNL     1       2.705   7.785  18.125  0.00  0.00    +0.000 C 
ATOM      2  O   UNL     1       2.501   8.667  17.299  0.00  0.00    +0.000 OA
ATOM      3  N   UNL     1       2.257   7.770  19.427  0.00  0.00    +0.000 N 
ATOM      4  C   UNL     1       1.421   8.753  19.887  0.00  0.00    +0.000 A 
ATOM      5  N   UNL     1       0.753   9.653  19.197  0.00  0.00    +0.000 NA
ATOM      6  C   UNL     1       0.049  10.407  20.081  0.00  0.00    +0.000 A 
ATOM      7  C   UNL     1       0.194  10.095  21.402  0.00  0.00    +0.000 A 
ATOM      8  S   UNL     1       1.210   8.780  21.608  0.00  0.00    +0.000 S 
ATOM      9  C   UNL     1      -0.608  10.951  22.298  0.00  0.00    +0.000 C 
ATOM     10  C   UNL     1      -1.590  11.606  21.266  0.00  0.00    +0.000 C 
ATOM     11  C   UNL     1      -0.905  11.512  19.861  0.00  0.00    +0.000 C 
ATOM     12  H   UNL     1       2.621   7.112  20.094  0.00  0.00    +0.000 HD
ENDROOT
BRANCH   1  15
ATOM     13  C   UNL     1       5.251   5.242  17.306  0.00  0.00    +0.000 A 
ATOM     14  C   UNL     1       4.944   6.575  17.499  0.00  0.00    +0.000 A 
ATOM     15  C   UNL     1       3.546   6.643  17.782  0.00  0.00    +0.000 A 
ATOM     16  C   UNL     1       3.096   5.333  17.718  0.00  0.00    +0.000 A 
ATOM     17  C   UNL     1       1.776   4.686  17.878  0.00  0.00    +0.000 C 
ATOM     18  O   UNL     1       4.122   4.491  17.423  0.00  0.00    +0.000 OA
BRANCH  13  19
ATOM     19  C   UNL     1       6.489   4.480  16.996  0.00  0.00    +0.000 C 
BRANCH  19  21
ATOM     20  C   UNL     1       6.848   4.775  14.663  0.00  0.00    +0.000 C 
ATOM     21  O   UNL     1       7.244   5.140  15.980  0.00  0.00    +0.000 OA
ENDBRANCH  19  21
ENDBRANCH  13  19
ENDBRANCH   1  15
TORSDOF 3
ENDMDL
MODEL 5
REMARK VINA RESULT:      -6.6      1.212      1.421
REMARK  Name = 
REMARK  5 active torsions:
REMARK  status: ('A' for Active; 'I' for Inactive)
REMARK    1  A    between atoms: C_1  and  O_2
REMARK    2  A    between atoms: O_2  and  C_3
REMARK    3  A    between atoms: C_3  and  C_4
REMARK    4  A    between atoms: C_6  and  C_7
REMARK    5  A    between atoms: C_18  and  C_19
REMARK                            x       y       z     vdW  Elec       q    Type
REMARK                         _______ _______ _______ _____ _____    ______ ____
ROOT
ATOM      1  C   UNL     1       3.447   5.747  18.231  0.00  0.00    +0.000 C 
ATOM      2  O   UNL     1       3.162   5.176  19.278  0.00  0.00    +0.000 OA
ATOM      3  N   UNL     1       3.030   7.003  17.850  0.00  0.00    +0.000 N 
ATOM      4  C   UNL     1       2.305   7.785  18.708  0.00  0.00    +0.000 A 
ATOM      5  N   UNL     1       2.106   7.624  19.999  0.00  0.00    +0.000 NA
ATOM      6  C   UNL     1       1.333   8.656  20.427  0.00  0.00    +0.000 A 
ATOM      7  C   UNL     1       0.946   9.562  19.483  0.00  0.00    +0.000 A 
ATOM      8  S   UNL     1       1.585   9.185  17.981  0.00  0.00    +0.000 S 
ATOM      9  C   UNL     1       0.118  10.657  20.026  0.00  0.00    +0.000 C 
ATOM     10  C   UNL     1       0.384  10.483  21.561  0.00  0.00    +0.000 C 
ATOM     11  C   UNL     1       0.852   9.006  21.779  0.00  0.00    +0.000 C 
ATOM     12  H   UNL     1       3.147   7.324  16.905  0.00  0.00    +0.000 HD
ENDROOT
BRANCH   1  15
ATOM     13  C   UNL     1       5.699   4.511  15.581  0.00  0.00    +0.000 A 
ATOM     14  C   UNL     1       5.140   5.592  16.236  0.00  0.00    +0.000 A 
ATOM     15  C   UNL     1       4.249   5.065  17.221  0.00  0.00    +0.000 A 
ATOM     16  C   UNL     1       4.317   3.688  17.076  0.00  0.00    +0.000 A 
ATOM     17  C   UNL     1       3.651   2.545  17.739  0.00  0.00    +0.000 C 
ATOM     18  O   UNL     1       5.184   3.356  16.083  0.00  0.00    +0.000 OA
BRANCH  13  19
ATOM     19  C   UNL     1       6.687   4.341  14.484  0.00  0.00    +0.000 C 
BRANCH  19  21
ATOM     20  C   UNL     1       8.157   5.588  13.092  0.00  0.00    +0.000 C 
ATOM     21  O   UNL     1       7.493   5.511  14.347  0.00  0.00    +0.000 OA
ENDBRANCH  19  21
ENDBRANCH  13  19
ENDBRANCH   1  15
TORSDOF 3
ENDMDL
MODEL 6
REMARK VINA RESULT:      -6.5      4.180      5.514
REMARK  Name = 
REMARK  5 active torsions:
REMARK  status: ('A' for Active; 'I' for Inactive)
REMARK    1  A    between atoms: C_1  and  O_2
REMARK    2  A    between atoms: O_2  and  C_3
REMARK    3  A    between atoms: C_3  and  C_4
REMARK    4  A    between atoms: C_6  and  C_7
REMARK    5  A    between atoms: C_18  and  C_19
REMARK                            x       y       z     vdW  Elec       q    Type
REMARK                         _______ _______ _______ _____ _____    ______ ____
ROOT
ATOM      1  C   UNL     1       4.766   4.767  16.715  0.00  0.00    +0.000 C 
ATOM      2  O   UNL     1       4.048   5.745  16.891  0.00  0.00    +0.000 OA
ATOM      3  N   UNL     1       4.840   3.657  17.526  0.00  0.00    +0.000 N 
ATOM      4  C   UNL     1       3.997   3.518  18.596  0.00  0.00    +0.000 A 
ATOM      5  N   UNL     1       2.909   4.204  18.879  0.00  0.00    +0.000 NA
ATOM      6  C   UNL     1       2.398   3.701  20.034  0.00  0.00    +0.000 A 
ATOM      7  C   UNL     1       3.088   2.677  20.613  0.00  0.00    +0.000 A 
ATOM      8  S   UNL     1       4.423   2.248  19.697  0.00  0.00    +0.000 S 
ATOM      9  C   UNL     1       2.466   2.181  21.857  0.00  0.00    +0.000 C 
ATOM     10  C   UNL     1       1.041   2.823  21.740  0.00  0.00    +0.000 C 
ATOM     11  C   UNL     1       1.170   4.050  20.777  0.00  0.00    +0.000 C 
ATOM     12  H   UNL     1       5.583   2.987  17.423  0.00  0.00    +0.000 HD
ENDROOT
BRANCH   1  15
ATOM     13  C   UNL     1       6.738   4.409  13.616  0.00  0.00    +0.000 A 
ATOM     14  C   UNL     1       5.630   4.034  14.352  0.00  0.00    +0.000 A 
ATOM     15  C   UNL     1       5.699   4.737  15.594  0.00  0.00    +0.000 A 
ATOM     16  C   UNL     1       6.868   5.478  15.530  0.00  0.00    +0.000 A 
ATOM     17  C   UNL     1       7.560   6.398  16.460  0.00  0.00    +0.000 C 
ATOM     18  O   UNL     1       7.497   5.274  14.342  0.00  0.00    +0.000 OA
BRANCH  13  19
ATOM     19  C   UNL     1       7.269   4.078  12.269  0.00  0.00    +0.000 C 
BRANCH  19  21
ATOM     20  C   UNL     1       7.391   1.994  11.128  0.00  0.00    +0.000 C 
ATOM     21  O   UNL     1       6.546   2.987  11.698  0.00  0.00    +0.000 OA
ENDBRANCH  19  21
ENDBRANCH  13  19
ENDBRANCH   1  15
TORSDOF 3
ENDMDL
MODEL 7
REMARK VINA RESULT:      -6.5      0.981      1.028
REMARK  Name = 
REMARK  5 active torsions:
REMARK  status: ('A' for Active; 'I' for Inactive)
REMARK    1  A    between atoms: C_1  and  O_2
REMARK    2  A    between atoms: O_2  and  C_3
REMARK    3  A    between atoms: C_3  and  C_4
REMARK    4  A    between atoms: C_6  and  C_7
REMARK    5  A    between atoms: C_18  and  C_19
REMARK                            x       y       z     vdW  Elec       q    Type
REMARK                         _______ _______ _______ _____ _____    ______ ____
ROOT
ATOM      1  C   UNL     1       2.709   6.146  19.717  0.00  0.00    +0.000 C 
ATOM      2  O   UNL     1       2.214   5.546  20.665  0.00  0.00    +0.000 OA
ATOM      3  N   UNL     1       2.416   7.434  19.328  0.00  0.00    +0.000 N 
ATOM      4  C   UNL     1       1.572   8.212  20.074  0.00  0.00    +0.000 A 
ATOM      5  N   UNL     1       1.131   8.006  21.297  0.00  0.00    +0.000 NA
ATOM      6  C   UNL     1       0.329   9.053  21.625  0.00  0.00    +0.000 A 
ATOM      7  C   UNL     1       0.157  10.014  20.671  0.00  0.00    +0.000 A 
ATOM      8  S   UNL     1       1.050   9.671  19.295  0.00  0.00    +0.000 S 
ATOM      9  C   UNL     1      -0.718  11.121  21.104  0.00  0.00    +0.000 C 
ATOM     10  C   UNL     1      -0.750  10.872  22.651  0.00  0.00    +0.000 C 
ATOM     11  C   UNL     1      -0.383   9.368  22.880  0.00  0.00    +0.000 C 
ATOM     12  H   UNL     1       2.717   7.788  18.436  0.00  0.00    +0.000 HD
ENDROOT
BRANCH   1  15
ATOM     13  C   UNL     1       5.233   4.939  17.311  0.00  0.00    +0.000 A 
ATOM     14  C   UNL     1       4.444   5.980  17.760  0.00  0.00    +0.000 A 
ATOM     15  C   UNL     1       3.660   5.472  18.841  0.00  0.00    +0.000 A 
ATOM     16  C   UNL     1       4.019   4.138  18.956  0.00  0.00    +0.000 A 
ATOM     17  C   UNL     1       3.592   3.026  19.833  0.00  0.00    +0.000 C 
ATOM     18  O   UNL     1       4.960   3.816  18.029  0.00  0.00    +0.000 OA
BRANCH  13  19
ATOM     19  C   UNL     1       6.260   4.777  16.250  0.00  0.00    +0.000 C 
BRANCH  19  21
ATOM     20  C   UNL     1       6.234   3.929  14.028  0.00  0.00    +0.000 C 
ATOM     21  O   UNL     1       5.934   3.681  15.396  0.00  0.00    +0.000 OA
ENDBRANCH  19  21
ENDBRANCH  13  19
ENDBRANCH   1  15
TORSDOF 3
ENDMDL
MODEL 8
REMARK VINA RESULT:      -6.5      3.061      8.271
REMARK  Name = 
REMARK  5 active torsions:
REMARK  status: ('A' for Active; 'I' for Inactive)
REMARK    1  A    between atoms: C_1  and  O_2
REMARK    2  A    between atoms: O_2  and  C_3
REMARK    3  A    between atoms: C_3  and  C_4
REMARK    4  A    between atoms: C_6  and  C_7
REMARK    5  A    between atoms: C_18  and  C_19
REMARK                            x       y       z     vdW  Elec       q    Type
REMARK                         _______ _______ _______ _____ _____    ______ ____
ROOT
ATOM      1  C   UNL     1       1.601   9.215  18.619  0.00  0.00    +0.000 C 
ATOM      2  O   UNL     1       1.960   9.672  17.539  0.00  0.00    +0.000 OA
ATOM      3  N   UNL     1       1.916   7.973  19.121  0.00  0.00    +0.000 N 
ATOM      4  C   UNL     1       2.783   7.150  18.453  0.00  0.00    +0.000 A 
ATOM      5  N   UNL     1       3.590   7.444  17.455  0.00  0.00    +0.000 NA
ATOM      6  C   UNL     1       4.265   6.310  17.128  0.00  0.00    +0.000 A 
ATOM      7  C   UNL     1       3.964   5.190  17.847  0.00  0.00    +0.000 A 
ATOM      8  S   UNL     1       2.825   5.516  19.031  0.00  0.00    +0.000 S 
ATOM      9  C   UNL     1       4.744   4.005  17.439  0.00  0.00    +0.000 C 
ATOM     10  C   UNL     1       5.875   4.683  16.592  0.00  0.00    +0.000 C 
ATOM     11  C   UNL     1       5.326   6.074  16.128  0.00  0.00    +0.000 C 
ATOM     12  H   UNL     1       1.433   7.598  19.920  0.00  0.00    +0.000 HD
ENDROOT
BRANCH   1  15
ATOM     13  C   UNL     1      -0.234  11.219  21.115  0.00  0.00    +0.000 A 
ATOM     14  C   UNL     1       0.905  10.509  20.789  0.00  0.00    +0.000 A 
ATOM     15  C   UNL     1       0.705   9.984  19.476  0.00  0.00    +0.000 A 
ATOM     16  C   UNL     1      -0.565  10.399  19.105  0.00  0.00    +0.000 A 
ATOM     17  C   UNL     1      -1.408  10.198  17.907  0.00  0.00    +0.000 C 
ATOM     18  O   UNL     1      -1.133  11.136  20.097  0.00  0.00    +0.000 OA
BRANCH  13  19
ATOM     19  C   UNL     1      -0.683  12.008  22.292  0.00  0.00    +0.000 C 
BRANCH  19  21
ATOM     20  C   UNL     1      -2.832  12.081  23.309  0.00  0.00    +0.000 C 
ATOM     21  O   UNL     1      -1.680  11.296  23.024  0.00  0.00    +0.000 OA
ENDBRANCH  19  21
ENDBRANCH  13  19
ENDBRANCH   1  15
TORSDOF 3
ENDMDL
MODEL 9
REMARK VINA RESULT:      -6.3      2.134      3.228
REMARK  Name = 
REMARK  5 active torsions:
REMARK  status: ('A' for Active; 'I' for Inactive)
REMARK    1  A    between atoms: C_1  and  O_2
REMARK    2  A    between atoms: O_2  and  C_3
REMARK    3  A    between atoms: C_3  and  C_4
REMARK    4  A    between atoms: C_6  and  C_7
REMARK    5  A    between atoms: C_18  and  C_19
REMARK                            x       y       z     vdW  Elec       q    Type
REMARK                         _______ _______ _______ _____ _____    ______ ____
ROOT
ATOM      1  C   UNL     1       2.289   7.460  19.298  0.00  0.00    +0.000 C 
ATOM      2  O   UNL     1       2.162   8.163  18.302  0.00  0.00    +0.000 OA
ATOM      3  N   UNL     1       1.822   7.747  20.561  0.00  0.00    +0.000 N 
ATOM      4  C   UNL     1       1.054   8.859  20.783  0.00  0.00    +0.000 A 
ATOM      5  N   UNL     1       0.464   9.640  19.903  0.00  0.00    +0.000 NA
ATOM      6  C   UNL     1      -0.196  10.608  20.591  0.00  0.00    +0.000 A 
ATOM      7  C   UNL     1      -0.093  10.569  21.951  0.00  0.00    +0.000 A 
ATOM      8  S   UNL     1       0.820   9.258  22.455  0.00  0.00    +0.000 S 
ATOM      9  C   UNL     1      -0.843  11.646  22.627  0.00  0.00    +0.000 C 
ATOM     10  C   UNL     1      -1.759  12.137  21.454  0.00  0.00    +0.000 C 
ATOM     11  C   UNL     1      -1.062  11.707  20.120  0.00  0.00    +0.000 C 
ATOM     12  H   UNL     1       2.127   7.219  21.360  0.00  0.00    +0.000 HD
ENDROOT
BRANCH   1  15
ATOM     13  C   UNL     1       3.842   4.116  19.462  0.00  0.00    +0.000 A 
ATOM     14  C   UNL     1       2.927   5.012  19.982  0.00  0.00    +0.000 A 
ATOM     15  C   UNL     1       3.048   6.216  19.224  0.00  0.00    +0.000 A 
ATOM     16  C   UNL     1       4.053   5.969  18.302  0.00  0.00    +0.000 A 
ATOM     17  C   UNL     1       4.701   6.770  17.240  0.00  0.00    +0.000 C 
ATOM     18  O   UNL     1       4.536   4.707  18.452  0.00  0.00    +0.000 OA
BRANCH  13  19
ATOM     19  C   UNL     1       4.228   2.713  19.761  0.00  0.00    +0.000 C 
BRANCH  19  21
ATOM     20  C   UNL     1       2.407   1.855  18.494  0.00  0.00    +0.000 C 
ATOM     21  O   UNL     1       3.813   1.842  18.709  0.00  0.00    +0.000 OA
ENDBRANCH  19  21
ENDBRANCH  13  19
ENDBRANCH   1  15
TORSDOF 3
ENDMDL
