MODEL 1
REMARK VINA RESULT:      -8.9      0.000      0.000
REMARK  Name = 
REMARK  6 active torsions:
REMARK  status: ('A' for Active; 'I' for Inactive)
REMARK    1  A    between atoms: C_1  and  C_2
REMARK    2  A    between atoms: C_7  and  N_8
REMARK    3  A    between atoms: C_9  and  O_11
REMARK    4  A    between atoms: O_11  and  C_12
REMARK    5  A    between atoms: N_21  and  C_22
REMARK    6  A    between atoms: C_22  and  C_23
REMARK                            x       y       z     vdW  Elec       q    Type
REMARK                         _______ _______ _______ _____ _____    ______ ____
ROOT
ATOM      1  C   UNL     1       1.321   8.553  20.075  0.00  0.00    +0.000 A 
ATOM      2  C   UNL     1       2.104   8.626  18.932  0.00  0.00    +0.000 A 
ATOM      3  C   UNL     1       2.772   7.484  18.468  0.00  0.00    +0.000 A 
ATOM      4  C   UNL     1       2.677   6.229  19.102  0.00  0.00    +0.000 A 
ATOM      5  C   UNL     1       1.837   6.173  20.227  0.00  0.00    +0.000 A 
ATOM      6  C   UNL     1       1.167   7.328  20.709  0.00  0.00    +0.000 A 
ATOM      7  C   UNL     1       1.588   4.896  20.967  0.00  0.00    +0.000 C 
ATOM      8  C   UNL     1       2.340   3.671  20.492  0.00  0.00    +0.000 C 
ATOM      9  C   UNL     1       3.238   3.805  19.277  0.00  0.00    +0.000 C 
ATOM     10  N   UNL     1       3.376   5.121  18.661  0.00  0.00    +0.000 N 
ENDROOT
BRANCH   1  11
ATOM     11  O   UNL     1       0.576   9.653  20.542  0.00  0.00    +0.000 OA
BRANCH  11  13
ATOM     12  N   UNL     1      -1.288  10.278  19.407  0.00  0.00    +0.000 N 
ATOM     13  C   UNL     1       0.065  10.500  19.555  0.00  0.00    +0.000 C 
ATOM     14  O   UNL     1       0.753  11.282  18.911  0.00  0.00    +0.000 OA
ATOM     15  H   UNL     1      -1.713   9.744  20.151  0.00  0.00    +0.000 HD
BRANCH  12  22
ATOM     16  C   UNL     1      -3.526  12.225  19.461  0.00  0.00    +0.000 C 
ATOM     17  C   UNL     1      -3.169  11.378  18.269  0.00  0.00    +0.000 A 
ATOM     18  C   UNL     1      -3.977  11.506  17.119  0.00  0.00    +0.000 A 
ATOM     19  C   UNL     1      -3.704  10.784  15.960  0.00  0.00    +0.000 A 
ATOM     20  C   UNL     1      -2.601   9.947  15.920  0.00  0.00    +0.000 A 
ATOM     21  C   UNL     1      -1.781   9.820  17.043  0.00  0.00    +0.000 A 
ATOM     22  C   UNL     1      -2.052  10.512  18.234  0.00  0.00    +0.000 A 
ENDBRANCH  12  22
ENDBRANCH  11  13
ENDBRANCH   1  11
BRANCH  10  23
ATOM     23  C   UNL     1       4.351   5.158  17.552  0.00  0.00    +0.000 C 
BRANCH  23  24
ATOM     24  C   UNL     1       5.652   5.864  17.895  0.00  0.00    +0.000 A 
ATOM     25  C   UNL     1       6.467   5.368  18.928  0.00  0.00    +0.000 A 
ATOM     26  C   UNL     1       7.724   5.929  19.184  0.00  0.00    +0.000 A 
ATOM     27  C   UNL     1       8.186   6.991  18.410  0.00  0.00    +0.000 A 
ATOM     28  C   UNL     1       7.384   7.505  17.396  0.00  0.00    +0.000 A 
ATOM     29  C   UNL     1       6.128   6.949  17.143  0.00  0.00    +0.000 A 
ENDBRANCH  23  24
ENDBRANCH  10  23
TORSDOF 5
ENDMDL
MODEL 2
REMARK VINA RESULT:      -8.7      0.566      1.071
REMARK  Name = 
REMARK  6 active torsions:
REMARK  status: ('A' for Active; 'I' for Inactive)
REMARK    1  A    between atoms: C_1  and  C_2
REMARK    2  A    between atoms: C_7  and  N_8
REMARK    3  A    between atoms: C_9  and  O_11
REMARK    4  A    between atoms: O_11  and  C_12
REMARK    5  A    between atoms: N_21  and  C_22
REMARK    6  A    between atoms: C_22  and  C_23
REMARK                            x       y       z     vdW  Elec       q    Type
REMARK                         _______ _______ _______ _____ _____    ______ ____
ROOT
ATOM      1  C   UNL     1       1.534   8.307  20.470  0.00  0.00    +0.000 A 
ATOM      2  C   UNL     1       2.215   8.422  19.266  0.00  0.00    +0.000 A 
ATOM      3  C   UNL     1       2.747   7.279  18.652  0.00  0.00    +0.000 A 
ATOM      4  C   UNL     1       2.611   5.984  19.191  0.00  0.00    +0.000 A 
ATOM      5  C   UNL     1       1.874   5.893  20.384  0.00  0.00    +0.000 A 
ATOM      6  C   UNL     1       1.343   7.047  21.018  0.00  0.00    +0.000 A 
ATOM      7  C   UNL     1       1.593   4.578  21.042  0.00  0.00    +0.000 C 
ATOM      8  C   UNL     1       2.201   3.347  20.402  0.00  0.00    +0.000 C 
ATOM      9  C   UNL     1       2.993   3.521  19.121  0.00  0.00    +0.000 C 
ATOM     10  N   UNL     1       3.178   4.871  18.600  0.00  0.00    +0.000 N 
ENDROOT
BRANCH   1  11
ATOM     11  O   UNL     1       0.924   9.414  21.090  0.00  0.00    +0.000 OA
BRANCH  11  13
ATOM     12  N   UNL     1      -0.900  10.030  19.887  0.00  0.00    +0.000 N 
ATOM     13  C   UNL     1       0.392  10.375  20.227  0.00  0.00    +0.000 C 
ATOM     14  O   UNL     1       1.021  11.344  19.823  0.00  0.00    +0.000 OA
ATOM     15  H   UNL     1      -1.312   9.313  20.464  0.00  0.00    +0.000 HD
BRANCH  12  22
ATOM     16  C   UNL     1      -2.788  12.318  19.917  0.00  0.00    +0.000 C 
ATOM     17  C   UNL     1      -2.540  11.440  18.719  0.00  0.00    +0.000 A 
ATOM     18  C   UNL     1      -3.283  11.715  17.551  0.00  0.00    +0.000 A 
ATOM     19  C   UNL     1      -3.098  10.974  16.387  0.00  0.00    +0.000 A 
ATOM     20  C   UNL     1      -2.147   9.967  16.361  0.00  0.00    +0.000 A 
ATOM     21  C   UNL     1      -1.392   9.692  17.502  0.00  0.00    +0.000 A 
ATOM     22  C   UNL     1      -1.580  10.402  18.698  0.00  0.00    +0.000 A 
ENDBRANCH  12  22
ENDBRANCH  11  13
ENDBRANCH   1  11
BRANCH  10  23
ATOM     23  C   UNL     1       4.049   4.934  17.408  0.00  0.00    +0.000 C 
BRANCH  23  24
ATOM     24  C   UNL     1       5.422   5.529  17.675  0.00  0.00    +0.000 A 
ATOM     25  C   UNL     1       5.896   6.584  16.874  0.00  0.00    +0.000 A 
ATOM     26  C   UNL     1       7.102   7.227  17.173  0.00  0.00    +0.000 A 
ATOM     27  C   UNL     1       7.851   6.829  18.278  0.00  0.00    +0.000 A 
ATOM     28  C   UNL     1       7.405   5.775  19.069  0.00  0.00    +0.000 A 
ATOM     29  C   UNL     1       6.204   5.129  18.768  0.00  0.00    +0.000 A 
ENDBRANCH  23  24
ENDBRANCH  10  23
TORSDOF 5
ENDMDL
MODEL 3
REMARK VINA RESULT:      -8.7      2.179      3.810
REMARK  Name = 
REMARK  6 active torsions:
REMARK  status: ('A' for Active; 'I' for Inactive)
REMARK    1  A    between atoms: C_1  and  C_2
REMARK    2  A    between atoms: C_7  and  N_8
REMARK    3  A    between atoms: C_9  and  O_11
REMARK    4  A    between atoms: O_11  and  C_12
REMARK    5  A    between atoms: N_21  and  C_22
REMARK    6  A    between atoms: C_22  and  C_23
REMARK                            x       y       z     vdW  Elec       q    Type
REMARK                         _______ _______ _______ _____ _____    ______ ____
ROOT
ATOM      1  C   UNL     1       0.256  10.391  20.613  0.00  0.00    +0.000 A 
ATOM      2  C   UNL     1       0.300   9.419  21.602  0.00  0.00    +0.000 A 
ATOM      3  C   UNL     1       0.975   8.212  21.367  0.00  0.00    +0.000 A 
ATOM      4  C   UNL     1       1.644   7.931  20.159  0.00  0.00    +0.000 A 
ATOM      5  C   UNL     1       1.627   8.954  19.196  0.00  0.00    +0.000 A 
ATOM      6  C   UNL     1       0.935  10.173  19.423  0.00  0.00    +0.000 A 
ATOM      7  C   UNL     1       2.346   8.824  17.890  0.00  0.00    +0.000 C 
ATOM      8  C   UNL     1       3.041   7.507  17.618  0.00  0.00    +0.000 C 
ATOM      9  C   UNL     1       3.012   6.442  18.698  0.00  0.00    +0.000 C 
ATOM     10  N   UNL     1       2.268   6.720  19.922  0.00  0.00    +0.000 N 
ENDROOT
BRANCH   1  11
ATOM     11  O   UNL     1      -0.349  11.645  20.825  0.00  0.00    +0.000 OA
BRANCH  11  13
ATOM     12  N   UNL     1      -2.089  11.296  19.409  0.00  0.00    +0.000 N 
ATOM     13  C   UNL     1      -1.068  12.161  19.744  0.00  0.00    +0.000 C 
ATOM     14  O   UNL     1      -0.781  13.208  19.178  0.00  0.00    +0.000 OA
ATOM     15  H   UNL     1      -2.290  10.591  20.103  0.00  0.00    +0.000 HD
BRANCH  12  22
ATOM     16  C   UNL     1      -4.873  12.223  18.976  0.00  0.00    +0.000 C 
ATOM     17  C   UNL     1      -4.039  11.529  17.932  0.00  0.00    +0.000 A 
ATOM     18  C   UNL     1      -4.644  11.283  16.680  0.00  0.00    +0.000 A 
ATOM     19  C   UNL     1      -3.938  10.673  15.646  0.00  0.00    +0.000 A 
ATOM     20  C   UNL     1      -2.610  10.327  15.834  0.00  0.00    +0.000 A 
ATOM     21  C   UNL     1      -1.992  10.579  17.060  0.00  0.00    +0.000 A 
ATOM     22  C   UNL     1      -2.688  11.163  18.130  0.00  0.00    +0.000 A 
ENDBRANCH  12  22
ENDBRANCH  11  13
ENDBRANCH   1  11
BRANCH  10  23
ATOM     23  C   UNL     1       2.221   5.579  20.860  0.00  0.00    +0.000 C 
BRANCH  23  24
ATOM     24  C   UNL     1       2.136   4.223  20.180  0.00  0.00    +0.000 A 
ATOM     25  C   UNL     1       0.896   3.749  19.713  0.00  0.00    +0.000 A 
ATOM     26  C   UNL     1       0.811   2.560  18.980  0.00  0.00    +0.000 A 
ATOM     27  C   UNL     1       1.962   1.828  18.699  0.00  0.00    +0.000 A 
ATOM     28  C   UNL     1       3.193   2.273  19.170  0.00  0.00    +0.000 A 
ATOM     29  C   UNL     1       3.279   3.457  19.906  0.00  0.00    +0.000 A 
ENDBRANCH  23  24
ENDBRANCH  10  23
TORSDOF 5
ENDMDL
MODEL 4
REMARK VINA RESULT:      -8.6      2.282      8.375
REMARK  Name = 
REMARK  6 active torsions:
REMARK  status: ('A' for Active; 'I' for Inactive)
REMARK    1  A    between atoms: C_1  and  C_2
REMARK    2  A    between atoms: C_7  and  N_8
REMARK    3  A    between atoms: C_9  and  O_11
REMARK    4  A    between atoms: O_11  and  C_12
REMARK    5  A    between atoms: N_21  and  C_22
REMARK    6  A    between atoms: C_22  and  C_23
REMARK                            x       y       z     vdW  Elec       q    Type
REMARK                         _______ _______ _______ _____ _____    ______ ____
ROOT
ATOM      1  C   UNL     1       2.571   8.084  18.194  0.00  0.00    +0.000 A 
ATOM      2  C   UNL     1       2.082   9.214  17.555  0.00  0.00    +0.000 A 
ATOM      3  C   UNL     1       1.198  10.069  18.226  0.00  0.00    +0.000 A 
ATOM      4  C   UNL     1       0.780   9.852  19.555  0.00  0.00    +0.000 A 
ATOM      5  C   UNL     1       1.331   8.729  20.194  0.00  0.00    +0.000 A 
ATOM      6  C   UNL     1       2.218   7.852  19.516  0.00  0.00    +0.000 A 
ATOM      7  C   UNL     1       1.030   8.405  21.623  0.00  0.00    +0.000 C 
ATOM      8  C   UNL     1       0.044   9.304  22.338  0.00  0.00    +0.000 C 
ATOM      9  C   UNL     1      -0.520  10.494  21.584  0.00  0.00    +0.000 C 
ATOM     10  N   UNL     1      -0.127  10.679  20.191  0.00  0.00    +0.000 N 
ENDROOT
BRANCH   1  11
ATOM     11  O   UNL     1       3.514   7.232  17.587  0.00  0.00    +0.000 OA
BRANCH  11  13
ATOM     12  N   UNL     1       2.759   5.222  18.326  0.00  0.00    +0.000 N 
ATOM     13  C   UNL     1       3.840   6.079  18.307  0.00  0.00    +0.000 C 
ATOM     14  O   UNL     1       4.920   5.908  18.858  0.00  0.00    +0.000 OA
ATOM     15  H   UNL     1       2.033   5.443  17.661  0.00  0.00    +0.000 HD
BRANCH  12  22
ATOM     16  C   UNL     1       2.410   2.379  17.558  0.00  0.00    +0.000 C 
ATOM     17  C   UNL     1       2.234   2.906  18.958  0.00  0.00    +0.000 A 
ATOM     18  C   UNL     1       1.848   1.982  19.953  0.00  0.00    +0.000 A 
ATOM     19  C   UNL     1       1.691   2.375  21.280  0.00  0.00    +0.000 A 
ATOM     20  C   UNL     1       1.946   3.688  21.639  0.00  0.00    +0.000 A 
ATOM     21  C   UNL     1       2.344   4.611  20.671  0.00  0.00    +0.000 A 
ATOM     22  C   UNL     1       2.480   4.250  19.321  0.00  0.00    +0.000 A 
ENDBRANCH  12  22
ENDBRANCH  11  13
ENDBRANCH   1  11
BRANCH  10  23
ATOM     23  C   UNL     1      -0.813  11.806  19.525  0.00  0.00    +0.000 C 
BRANCH  23  24
ATOM     24  C   UNL     1      -2.202  11.467  19.010  0.00  0.00    +0.000 A 
ATOM     25  C   UNL     1      -3.314  12.204  19.456  0.00  0.00    +0.000 A 
ATOM     26  C   UNL     1      -4.584  11.990  18.909  0.00  0.00    +0.000 A 
ATOM     27  C   UNL     1      -4.762  11.041  17.905  0.00  0.00    +0.000 A 
ATOM     28  C   UNL     1      -3.676  10.291  17.465  0.00  0.00    +0.000 A 
ATOM     29  C   UNL     1      -2.409  10.500  18.015  0.00  0.00    +0.000 A 
ENDBRANCH  23  24
ENDBRANCH  10  23
TORSDOF 5
ENDMDL
MODEL 5
REMARK VINA RESULT:      -8.6      2.105      3.251
REMARK  Name = 
REMARK  6 active torsions:
REMARK  status: ('A' for Active; 'I' for Inactive)
REMARK    1  A    between atoms: C_1  and  C_2
REMARK    2  A    between atoms: C_7  and  N_8
REMARK    3  A    between atoms: C_9  and  O_11
REMARK    4  A    between atoms: O_11  and  C_12
REMARK    5  A    between atoms: N_21  and  C_22
REMARK    6  A    between atoms: C_22  and  C_23
REMARK                            x       y       z     vdW  Elec       q    Type
REMARK                         _______ _______ _______ _____ _____    ______ ____
ROOT
ATOM      1  C   UNL     1       1.819   7.300  20.565  0.00  0.00    +0.000 A 
ATOM      2  C   UNL     1       2.278   7.447  19.264  0.00  0.00    +0.000 A 
ATOM      3  C   UNL     1       2.489   6.315  18.465  0.00  0.00    +0.000 A 
ATOM      4  C   UNL     1       2.237   5.002  18.912  0.00  0.00    +0.000 A 
ATOM      5  C   UNL     1       1.724   4.887  20.215  0.00  0.00    +0.000 A 
ATOM      6  C   UNL     1       1.520   6.029  21.034  0.00  0.00    +0.000 A 
ATOM      7  C   UNL     1       1.350   3.563  20.804  0.00  0.00    +0.000 C 
ATOM      8  C   UNL     1       1.614   2.336  19.957  0.00  0.00    +0.000 C 
ATOM      9  C   UNL     1       2.178   2.533  18.563  0.00  0.00    +0.000 C 
ATOM     10  N   UNL     1       2.490   3.891  18.129  0.00  0.00    +0.000 N 
ENDROOT
BRANCH   1  11
ATOM     11  O   UNL     1       1.527   8.408  21.384  0.00  0.00    +0.000 OA
BRANCH  11  13
ATOM     12  N   UNL     1       0.163  10.185  21.017  0.00  0.00    +0.000 N 
ATOM     13  C   UNL     1       0.202   8.848  21.357  0.00  0.00    +0.000 C 
ATOM     14  O   UNL     1      -0.754   8.137  21.638  0.00  0.00    +0.000 OA
ATOM     15  H   UNL     1       1.023  10.548  20.634  0.00  0.00    +0.000 HD
BRANCH  12  22
ATOM     16  C   UNL     1      -1.429  11.515  18.898  0.00  0.00    +0.000 C 
ATOM     17  C   UNL     1      -1.565  11.808  20.369  0.00  0.00    +0.000 A 
ATOM     18  C   UNL     1      -2.492  12.802  20.747  0.00  0.00    +0.000 A 
ATOM     19  C   UNL     1      -2.705  13.118  22.087  0.00  0.00    +0.000 A 
ATOM     20  C   UNL     1      -2.019  12.424  23.070  0.00  0.00    +0.000 A 
ATOM     21  C   UNL     1      -1.111  11.425  22.714  0.00  0.00    +0.000 A 
ATOM     22  C   UNL     1      -0.854  11.109  21.371  0.00  0.00    +0.000 A 
ENDBRANCH  12  22
ENDBRANCH  11  13
ENDBRANCH   1  11
BRANCH  10  23
ATOM     23  C   UNL     1       3.128   3.957  16.798  0.00  0.00    +0.000 C 
BRANCH  23  24
ATOM     24  C   UNL     1       4.638   4.120  16.843  0.00  0.00    +0.000 A 
ATOM     25  C   UNL     1       5.371   4.193  15.644  0.00  0.00    +0.000 A 
ATOM     26  C   UNL     1       6.744   4.460  15.656  0.00  0.00    +0.000 A 
ATOM     27  C   UNL     1       7.405   4.664  16.865  0.00  0.00    +0.000 A 
ATOM     28  C   UNL     1       6.699   4.577  18.061  0.00  0.00    +0.000 A 
ATOM     29  C   UNL     1       5.329   4.305  18.049  0.00  0.00    +0.000 A 
ENDBRANCH  23  24
ENDBRANCH  10  23
TORSDOF 5
ENDMDL
MODEL 6
REMARK VINA RESULT:      -8.6      0.882      1.984
REMARK  Name = 
REMARK  6 active torsions:
REMARK  status: ('A' for Active; 'I' for Inactive)
REMARK    1  A    between atoms: C_1  and  C_2
REMARK    2  A    between atoms: C_7  and  N_8
REMARK    3  A    between atoms: C_9  and  O_11
REMARK    4  A    between atoms: O_11  and  C_12
REMARK    5  A    between atoms: N_21  and  C_22
REMARK    6  A    between atoms: C_22  and  C_23
REMARK                            x       y       z     vdW  Elec       q    Type
REMARK                         _______ _______ _______ _____ _____    ______ ____
ROOT
ATOM      1  C   UNL     1       1.410   9.670  18.986  0.00  0.00    +0.000 A 
ATOM      2  C   UNL     1       2.172   9.354  17.870  0.00  0.00    +0.000 A 
ATOM      3  C   UNL     1       2.768   8.089  17.766  0.00  0.00    +0.000 A 
ATOM      4  C   UNL     1       2.619   7.087  18.746  0.00  0.00    +0.000 A 
ATOM      5  C   UNL     1       1.800   7.418  19.839  0.00  0.00    +0.000 A 
ATOM      6  C   UNL     1       1.203   8.701  19.957  0.00  0.00    +0.000 A 
ATOM      7  C   UNL     1       1.498   6.436  20.927  0.00  0.00    +0.000 C 
ATOM      8  C   UNL     1       2.174   5.083  20.837  0.00  0.00    +0.000 C 
ATOM      9  C   UNL     1       3.052   4.797  19.634  0.00  0.00    +0.000 C 
ATOM     10  N   UNL     1       3.248   5.860  18.653  0.00  0.00    +0.000 N 
ENDROOT
BRANCH   1  11
ATOM     11  O   UNL     1       0.736  10.900  19.105  0.00  0.00    +0.000 OA
BRANCH  11  13
ATOM     12  N   UNL     1      -1.354  10.649  18.253  0.00  0.00    +0.000 N 
ATOM     13  C   UNL     1      -0.625  10.818  19.412  0.00  0.00    +0.000 C 
ATOM     14  O   UNL     1      -1.070  10.924  20.548  0.00  0.00    +0.000 OA
ATOM     15  H   UNL     1      -0.808  10.389  17.445  0.00  0.00    +0.000 HD
BRANCH  12  22
ATOM     16  C   UNL     1      -2.769   9.828  15.780  0.00  0.00    +0.000 C 
ATOM     17  C   UNL     1      -3.365  10.712  16.842  0.00  0.00    +0.000 A 
ATOM     18  C   UNL     1      -4.671  11.199  16.620  0.00  0.00    +0.000 A 
ATOM     19  C   UNL     1      -5.313  11.999  17.563  0.00  0.00    +0.000 A 
ATOM     20  C   UNL     1      -4.673  12.299  18.754  0.00  0.00    +0.000 A 
ATOM     21  C   UNL     1      -3.387  11.812  18.997  0.00  0.00    +0.000 A 
ATOM     22  C   UNL     1      -2.706  11.030  18.051  0.00  0.00    +0.000 A 
ENDBRANCH  12  22
ENDBRANCH  11  13
ENDBRANCH   1  11
BRANCH  10  23
ATOM     23  C   UNL     1       4.201   5.509  17.580  0.00  0.00    +0.000 C 
BRANCH  23  24
ATOM     24  C   UNL     1       5.632   5.938  17.858  0.00  0.00    +0.000 A 
ATOM     25  C   UNL     1       6.168   7.060  17.199  0.00  0.00    +0.000 A 
ATOM     26  C   UNL     1       7.439   7.545  17.525  0.00  0.00    +0.000 A 
ATOM     27  C   UNL     1       8.193   6.920  18.516  0.00  0.00    +0.000 A 
ATOM     28  C   UNL     1       7.685   5.798  19.164  0.00  0.00    +0.000 A 
ATOM     29  C   UNL     1       6.418   5.310  18.836  0.00  0.00    +0.000 A 
ENDBRANCH  23  24
ENDBRANCH  10  23
TORSDOF 5
ENDMDL
MODEL 7
REMARK VINA RESULT:      -8.6      2.594      3.230
REMARK  Name = 
REMARK  6 active torsions:
REMARK  status: ('A' for Active; 'I' for Inactive)
REMARK    1  A    between atoms: C_1  and  C_2
REMARK    2  A    between atoms: C_7  and  N_8
REMARK    3  A    between atoms: C_9  and  O_11
REMARK    4  A    between atoms: O_11  and  C_12
REMARK    5  A    between atoms: N_21  and  C_22
REMARK    6  A    between atoms: C_22  and  C_23
REMARK                            x       y       z     vdW  Elec       q    Type
REMARK                         _______ _______ _______ _____ _____    ______ ____
ROOT
ATOM      1  C   UNL     1       1.508   6.806  20.603  0.00  0.00    +0.000 A 
ATOM      2  C   UNL     1       2.255   7.365  19.576  0.00  0.00    +0.000 A 
ATOM      3  C   UNL     1       3.003   6.539  18.726  0.00  0.00    +0.000 A 
ATOM      4  C   UNL     1       3.026   5.134  18.846  0.00  0.00    +0.000 A 
ATOM      5  C   UNL     1       2.220   4.594  19.862  0.00  0.00    +0.000 A 
ATOM      6  C   UNL     1       1.470   5.426  20.734  0.00  0.00    +0.000 A 
ATOM      7  C   UNL     1       2.095   3.117  20.071  0.00  0.00    +0.000 C 
ATOM      8  C   UNL     1       2.933   2.225  19.180  0.00  0.00    +0.000 C 
ATOM      9  C   UNL     1       3.787   2.876  18.110  0.00  0.00    +0.000 C 
ATOM     10  N   UNL     1       3.802   4.333  18.030  0.00  0.00    +0.000 N 
ENDROOT
BRANCH   1  11
ATOM     11  O   UNL     1       0.687   7.587  21.439  0.00  0.00    +0.000 OA
BRANCH  11  13
ATOM     12  N   UNL     1       0.416   9.708  20.677  0.00  0.00    +0.000 N 
ATOM     13  C   UNL     1       1.076   8.920  21.596  0.00  0.00    +0.000 C 
ATOM     14  O   UNL     1       1.911   9.290  22.412  0.00  0.00    +0.000 OA
ATOM     15  H   UNL     1      -0.369   9.264  20.226  0.00  0.00    +0.000 HD
BRANCH  12  22
ATOM     16  C   UNL     1       1.406   9.862  17.885  0.00  0.00    +0.000 C 
ATOM     17  C   UNL     1       1.419  11.015  18.853  0.00  0.00    +0.000 A 
ATOM     18  C   UNL     1       1.968  12.234  18.399  0.00  0.00    +0.000 A 
ATOM     19  C   UNL     1       1.995  13.361  19.216  0.00  0.00    +0.000 A 
ATOM     20  C   UNL     1       1.446  13.299  20.487  0.00  0.00    +0.000 A 
ATOM     21  C   UNL     1       0.884  12.106  20.945  0.00  0.00    +0.000 A 
ATOM     22  C   UNL     1       0.873  10.947  20.155  0.00  0.00    +0.000 A 
ENDBRANCH  12  22
ENDBRANCH  11  13
ENDBRANCH   1  11
BRANCH  10  23
ATOM     23  C   UNL     1       4.745   4.863  17.022  0.00  0.00    +0.000 C 
BRANCH  23  24
ATOM     24  C   UNL     1       5.890   5.669  17.610  0.00  0.00    +0.000 A 
ATOM     25  C   UNL     1       6.616   5.162  18.704  0.00  0.00    +0.000 A 
ATOM     26  C   UNL     1       7.747   5.829  19.187  0.00  0.00    +0.000 A 
ATOM     27  C   UNL     1       8.174   7.009  18.582  0.00  0.00    +0.000 A 
ATOM     28  C   UNL     1       7.457   7.534  17.512  0.00  0.00    +0.000 A 
ATOM     29  C   UNL     1       6.324   6.872  17.032  0.00  0.00    +0.000 A 
ENDBRANCH  23  24
ENDBRANCH  10  23
TORSDOF 5
ENDMDL
MODEL 8
REMARK VINA RESULT:      -8.6      2.538      4.829
REMARK  Name = 
REMARK  6 active torsions:
REMARK  status: ('A' for Active; 'I' for Inactive)
REMARK    1  A    between atoms: C_1  and  C_2
REMARK    2  A    between atoms: C_7  and  N_8
REMARK    3  A    between atoms: C_9  and  O_11
REMARK    4  A    between atoms: O_11  and  C_12
REMARK    5  A    between atoms: N_21  and  C_22
REMARK    6  A    between atoms: C_22  and  C_23
REMARK                            x       y       z     vdW  Elec       q    Type
REMARK                         _______ _______ _______ _____ _____    ______ ____
ROOT
ATOM      1  C   UNL     1       2.683   8.338  17.793  0.00  0.00    +0.000 A 
ATOM      2  C   UNL     1       2.517   7.612  18.964  0.00  0.00    +0.000 A 
ATOM      3  C   UNL     1       3.244   6.429  19.160  0.00  0.00    +0.000 A 
ATOM      4  C   UNL     1       4.170   5.932  18.221  0.00  0.00    +0.000 A 
ATOM      5  C   UNL     1       4.354   6.715  17.070  0.00  0.00    +0.000 A 
ATOM      6  C   UNL     1       3.613   7.908  16.858  0.00  0.00    +0.000 A 
ATOM      7  C   UNL     1       5.349   6.348  16.014  0.00  0.00    +0.000 C 
ATOM      8  C   UNL     1       6.105   5.050  16.205  0.00  0.00    +0.000 C 
ATOM      9  C   UNL     1       5.850   4.249  17.468  0.00  0.00    +0.000 C 
ATOM     10  N   UNL     1       4.848   4.741  18.407  0.00  0.00    +0.000 N 
ENDROOT
BRANCH   1  11
ATOM     11  O   UNL     1       2.028   9.566  17.578  0.00  0.00    +0.000 OA
BRANCH  11  13
ATOM     12  N   UNL     1       1.128  10.441  19.470  0.00  0.00    +0.000 N 
ATOM     13  C   UNL     1       0.850   9.759  18.303  0.00  0.00    +0.000 C 
ATOM     14  O   UNL     1      -0.242   9.338  17.945  0.00  0.00    +0.000 OA
ATOM     15  H   UNL     1       2.039  10.873  19.500  0.00  0.00    +0.000 HD
BRANCH  12  22
ATOM     16  C   UNL     1      -0.795  12.604  20.120  0.00  0.00    +0.000 C 
ATOM     17  C   UNL     1      -0.483  11.446  21.031  0.00  0.00    +0.000 A 
ATOM     18  C   UNL     1      -1.132  11.416  22.284  0.00  0.00    +0.000 A 
ATOM     19  C   UNL     1      -0.927  10.368  23.177  0.00  0.00    +0.000 A 
ATOM     20  C   UNL     1      -0.096   9.318  22.821  0.00  0.00    +0.000 A 
ATOM     21  C   UNL     1       0.541   9.323  21.579  0.00  0.00    +0.000 A 
ATOM     22  C   UNL     1       0.377  10.383  20.673  0.00  0.00    +0.000 A 
ENDBRANCH  12  22
ENDBRANCH  11  13
ENDBRANCH   1  11
BRANCH  10  23
ATOM     23  C   UNL     1       4.607   3.833  19.548  0.00  0.00    +0.000 C 
BRANCH  23  24
ATOM     24  C   UNL     1       3.189   3.291  19.618  0.00  0.00    +0.000 A 
ATOM     25  C   UNL     1       2.465   3.377  20.822  0.00  0.00    +0.000 A 
ATOM     26  C   UNL     1       1.121   2.994  20.880  0.00  0.00    +0.000 A 
ATOM     27  C   UNL     1       0.478   2.522  19.737  0.00  0.00    +0.000 A 
ATOM     28  C   UNL     1       1.185   2.412  18.544  0.00  0.00    +0.000 A 
ATOM     29  C   UNL     1       2.529   2.790  18.487  0.00  0.00    +0.000 A 
ENDBRANCH  23  24
ENDBRANCH  10  23
TORSDOF 5
ENDMDL
MODEL 9
REMARK VINA RESULT:      -8.5      1.263      1.550
REMARK  Name = 
REMARK  6 active torsions:
REMARK  status: ('A' for Active; 'I' for Inactive)
REMARK    1  A    between atoms: C_1  and  C_2
REMARK    2  A    between atoms: C_7  and  N_8
REMARK    3  A    between atoms: C_9  and  O_11
REMARK    4  A    between atoms: O_11  and  C_12
REMARK    5  A    between atoms: N_21  and  C_22
REMARK    6  A    between atoms: C_22  and  C_23
REMARK                            x       y       z     vdW  Elec       q    Type
REMARK                         _______ _______ _______ _____ _____    ______ ____
ROOT
ATOM      1  C   UNL     1       0.865   9.797  19.950  0.00  0.00    +0.000 A 
ATOM      2  C   UNL     1       1.437   9.971  18.698  0.00  0.00    +0.000 A 
ATOM      3  C   UNL     1       2.190   8.937  18.124  0.00  0.00    +0.000 A 
ATOM      4  C   UNL     1       2.389   7.692  18.753  0.00  0.00    +0.000 A 
ATOM      5  C   UNL     1       1.755   7.526  19.996  0.00  0.00    +0.000 A 
ATOM      6  C   UNL     1       1.001   8.573  20.589  0.00  0.00    +0.000 A 
ATOM      7  C   UNL     1       1.824   6.238  20.754  0.00  0.00    +0.000 C 
ATOM      8  C   UNL     1       2.670   5.134  20.155  0.00  0.00    +0.000 C 
ATOM      9  C   UNL     1       3.334   5.385  18.814  0.00  0.00    +0.000 C 
ATOM     10  N   UNL     1       3.170   6.697  18.197  0.00  0.00    +0.000 N 
ENDROOT
BRANCH   1  11
ATOM     11  O   UNL     1       0.044  10.779  20.538  0.00  0.00    +0.000 OA
BRANCH  11  13
ATOM     12  N   UNL     1      -1.766  10.563  19.185  0.00  0.00    +0.000 N 
ATOM     13  C   UNL     1      -0.822  11.445  19.668  0.00  0.00    +0.000 C 
ATOM     14  O   UNL     1      -0.705  12.627  19.370  0.00  0.00    +0.000 OA
ATOM     15  H   UNL     1      -1.825   9.690  19.688  0.00  0.00    +0.000 HD
BRANCH  12  22
ATOM     16  C   UNL     1      -4.325  12.058  19.051  0.00  0.00    +0.000 C 
ATOM     17  C   UNL     1      -3.718  11.313  17.892  0.00  0.00    +0.000 A 
ATOM     18  C   UNL     1      -4.437  11.308  16.678  0.00  0.00    +0.000 A 
ATOM     19  C   UNL     1      -3.937  10.669  15.546  0.00  0.00    +0.000 A 
ATOM     20  C   UNL     1      -2.698  10.053  15.599  0.00  0.00    +0.000 A 
ATOM     21  C   UNL     1      -1.965  10.062  16.787  0.00  0.00    +0.000 A 
ATOM     22  C   UNL     1      -2.460  10.671  17.952  0.00  0.00    +0.000 A 
ENDBRANCH  12  22
ENDBRANCH  11  13
ENDBRANCH   1  11
BRANCH  10  23
ATOM     23  C   UNL     1       3.941   6.865  16.947  0.00  0.00    +0.000 C 
BRANCH  23  24
ATOM     24  C   UNL     1       5.255   6.103  16.924  0.00  0.00    +0.000 A 
ATOM     25  C   UNL     1       6.269   6.425  17.845  0.00  0.00    +0.000 A 
ATOM     26  C   UNL     1       7.440   5.662  17.921  0.00  0.00    +0.000 A 
ATOM     27  C   UNL     1       7.613   4.564  17.082  0.00  0.00    +0.000 A 
ATOM     28  C   UNL     1       6.629   4.243  16.153  0.00  0.00    +0.000 A 
ATOM     29  C   UNL     1       5.463   5.007  16.073  0.00  0.00    +0.000 A 
ENDBRANCH  23  24
ENDBRANCH  10  23
TORSDOF 5
ENDMDL
