MODEL 1
REMARK VINA RESULT:      -8.4      0.000      0.000
REMARK  Name = 
REMARK  9 active torsions:
REMARK  status: ('A' for Active; 'I' for Inactive)
REMARK    1  A    between atoms: C_1  and  N_2
REMARK    2  A    between atoms: C_3  and  C_5
REMARK    3  A    between atoms: C_6  and  C_7
REMARK    4  A    between atoms: C_17  and  C_18
REMARK    5  A    between atoms: C_18  and  N_19
REMARK    6  A    between atoms: C_20  and  C_22
REMARK    7  A    between atoms: C_22  and  O_23
REMARK    8  A    between atoms: O_23  and  C_24
REMARK    9  A    between atoms: C_25  and  C_26
REMARK                            x       y       z     vdW  Elec       q    Type
REMARK                         _______ _______ _______ _____ _____    ______ ____
ROOT
ATOM      1  C   UNL     1       2.888   6.332  19.186  0.00  0.00    +0.000 A 
ATOM      2  C   UNL     1       3.453   6.556  17.939  0.00  0.00    +0.000 A 
ATOM      3  O   UNL     1       3.065   7.780  17.460  0.00  0.00    +0.000 OA
ATOM      4  C   UNL     1       2.237   8.343  18.384  0.00  0.00    +0.000 A 
ATOM      5  N   UNL     1       1.679   9.561  18.247  0.00  0.00    +0.000 NA
ATOM      6  C   UNL     1       0.868   9.932  19.284  0.00  0.00    +0.000 A 
ATOM      7  C   UNL     1       0.621   9.154  20.438  0.00  0.00    +0.000 A 
ATOM      8  C   UNL     1       1.256   7.900  20.500  0.00  0.00    +0.000 A 
ATOM      9  C   UNL     1       2.079   7.476  19.451  0.00  0.00    +0.000 A 
ENDROOT
BRANCH   2  10
ATOM     10  C   UNL     1       4.323   5.770  17.066  0.00  0.00    +0.000 A 
ATOM     11  C   UNL     1       5.245   6.408  16.216  0.00  0.00    +0.000 A 
ATOM     12  C   UNL     1       6.023   5.677  15.317  0.00  0.00    +0.000 A 
ATOM     13  C   UNL     1       5.899   4.297  15.277  0.00  0.00    +0.000 A 
ATOM     14  F   UNL     1       6.635   3.595  14.405  0.00  0.00    +0.000 F 
ATOM     15  C   UNL     1       5.021   3.636  16.128  0.00  0.00    +0.000 A 
ATOM     16  C   UNL     1       4.236   4.371  17.024  0.00  0.00    +0.000 A 
ENDBRANCH   2  10
BRANCH   1  19
ATOM     17  C   UNL     1       2.163   3.423  21.410  0.00  0.00    +0.000 C 
ATOM     18  N   UNL     1       2.032   4.589  20.576  0.00  0.00    +0.000 N 
ATOM     19  C   UNL     1       3.151   5.190  20.042  0.00  0.00    +0.000 C 
ATOM     20  O   UNL     1       4.286   4.780  20.270  0.00  0.00    +0.000 OA
ATOM     21  H   UNL     1       1.118   4.846  20.231  0.00  0.00    +0.000 HD
ENDBRANCH   1  19
BRANCH   7  22
ATOM     22  C   UNL     1      -0.284   9.508  21.599  0.00  0.00    +0.000 C 
ATOM     23  C   UNL     1       0.338   9.494  22.987  0.00  0.00    +0.000 C 
ATOM     24  C   UNL     1      -0.158  10.775  22.399  0.00  0.00    +0.000 C 
ENDBRANCH   7  22
BRANCH   6  25
ATOM     25  C   UNL     1       0.234  11.304  19.115  0.00  0.00    +0.000 C 
BRANCH  25  26
ATOM     26  N   UNL     1      -0.717  11.357  18.022  0.00  0.00    +0.000 N 
ATOM     27  C   UNL     1      -2.067  11.506  18.278  0.00  0.00    +0.000 C 
ATOM     28  O   UNL     1      -2.519  11.790  19.385  0.00  0.00    +0.000 OA
ATOM     29  H   UNL     1      -0.476  10.892  17.152  0.00  0.00    +0.000 HD
BRANCH  27  30
ATOM     30  C   UNL     1      -2.960  11.328  17.043  0.00  0.00    +0.000 C 
BRANCH  30  31
ATOM     31  O   UNL     1      -2.503  10.356  16.107  0.00  0.00    +0.000 OA
ATOM     32  C   UNL     1      -3.199  10.428  14.866  0.00  0.00    +0.000 C 
ENDBRANCH  30  31
ENDBRANCH  27  30
ENDBRANCH  25  26
ENDBRANCH   6  25
TORSDOF 7
ENDMDL
MODEL 2
REMARK VINA RESULT:      -8.4      3.493      7.922
REMARK  Name = 
REMARK  9 active torsions:
REMARK  status: ('A' for Active; 'I' for Inactive)
REMARK    1  A    between atoms: C_1  and  N_2
REMARK    2  A    between atoms: C_3  and  C_5
REMARK    3  A    between atoms: C_6  and  C_7
REMARK    4  A    between atoms: C_17  and  C_18
REMARK    5  A    between atoms: C_18  and  N_19
REMARK    6  A    between atoms: C_20  and  C_22
REMARK    7  A    between atoms: C_22  and  O_23
REMARK    8  A    between atoms: O_23  and  C_24
REMARK    9  A    between atoms: C_25  and  C_26
REMARK                            x       y       z     vdW  Elec       q    Type
REMARK                         _______ _______ _______ _____ _____    ______ ____
ROOT
ATOM      1  C   UNL     1       0.876   8.724  20.362  0.00  0.00    +0.000 A 
ATOM      2  C   UNL     1       1.137   9.642  19.354  0.00  0.00    +0.000 A 
ATOM      3  O   UNL     1       1.963   9.086  18.413  0.00  0.00    +0.000 OA
ATOM      4  C   UNL     1       2.253   7.816  18.815  0.00  0.00    +0.000 A 
ATOM      5  N   UNL     1       3.032   6.969  18.116  0.00  0.00    +0.000 NA
ATOM      6  C   UNL     1       3.208   5.746  18.704  0.00  0.00    +0.000 A 
ATOM      7  C   UNL     1       2.626   5.344  19.928  0.00  0.00    +0.000 A 
ATOM      8  C   UNL     1       1.818   6.292  20.582  0.00  0.00    +0.000 A 
ATOM      9  C   UNL     1       1.627   7.560  20.023  0.00  0.00    +0.000 A 
ENDROOT
BRANCH   2  10
ATOM     10  C   UNL     1       0.738  11.029  19.121  0.00  0.00    +0.000 A 
ATOM     11  C   UNL     1      -0.552  11.330  18.645  0.00  0.00    +0.000 A 
ATOM     12  C   UNL     1      -0.920  12.641  18.338  0.00  0.00    +0.000 A 
ATOM     13  C   UNL     1      -0.005  13.665  18.525  0.00  0.00    +0.000 A 
ATOM     14  F   UNL     1      -0.350  14.922  18.218  0.00  0.00    +0.000 F 
ATOM     15  C   UNL     1       1.265  13.402  19.026  0.00  0.00    +0.000 A 
ATOM     16  C   UNL     1       1.636  12.087  19.326  0.00  0.00    +0.000 A 
ENDBRANCH   2  10
BRANCH   1  19
ATOM     17  C   UNL     1      -0.774  10.452  23.229  0.00  0.00    +0.000 C 
ATOM     18  N   UNL     1       0.100  10.124  22.134  0.00  0.00    +0.000 N 
ATOM     19  C   UNL     1      -0.035   8.922  21.473  0.00  0.00    +0.000 C 
ATOM     20  O   UNL     1      -0.873   8.087  21.800  0.00  0.00    +0.000 OA
ATOM     21  H   UNL     1       0.678  10.849  21.732  0.00  0.00    +0.000 HD
ENDBRANCH   1  19
BRANCH   7  22
ATOM     22  C   UNL     1       2.809   4.016  20.631  0.00  0.00    +0.000 C 
ATOM     23  C   UNL     1       1.554   3.338  21.160  0.00  0.00    +0.000 C 
ATOM     24  C   UNL     1       2.347   2.702  20.064  0.00  0.00    +0.000 C 
ENDBRANCH   7  22
BRANCH   6  25
ATOM     25  C   UNL     1       4.097   4.800  17.913  0.00  0.00    +0.000 C 
BRANCH  25  26
ATOM     26  N   UNL     1       5.343   5.413  17.493  0.00  0.00    +0.000 N 
ATOM     27  C   UNL     1       6.422   5.463  18.354  0.00  0.00    +0.000 C 
ATOM     28  O   UNL     1       6.470   4.847  19.417  0.00  0.00    +0.000 OA
ATOM     29  H   UNL     1       5.306   6.135  16.780  0.00  0.00    +0.000 HD
BRANCH  27  30
ATOM     30  C   UNL     1       7.585   6.326  17.849  0.00  0.00    +0.000 C 
BRANCH  30  31
ATOM     31  O   UNL     1       7.199   7.541  17.214  0.00  0.00    +0.000 OA
ATOM     32  C   UNL     1       7.895   8.671  17.733  0.00  0.00    +0.000 C 
ENDBRANCH  30  31
ENDBRANCH  27  30
ENDBRANCH  25  26
ENDBRANCH   6  25
TORSDOF 7
ENDMDL
MODEL 3
REMARK VINA RESULT:      -8.3      3.493      8.029
REMARK  Name = 
REMARK  9 active torsions:
REMARK  status: ('A' for Active; 'I' for Inactive)
REMARK    1  A    between atoms: C_1  and  N_2
REMARK    2  A    between atoms: C_3  and  C_5
REMARK    3  A    between atoms: C_6  and  C_7
REMARK    4  A    between atoms: C_17  and  C_18
REMARK    5  A    between atoms: C_18  and  N_19
REMARK    6  A    between atoms: C_20  and  C_22
REMARK    7  A    between atoms: C_22  and  O_23
REMARK    8  A    between atoms: O_23  and  C_24
REMARK    9  A    between atoms: C_25  and  C_26
REMARK                            x       y       z     vdW  Elec       q    Type
REMARK                         _______ _______ _______ _____ _____    ______ ____
ROOT
ATOM      1  C   UNL     1       1.254   9.068  20.497  0.00  0.00    +0.000 A 
ATOM      2  C   UNL     1       1.258   9.828  19.337  0.00  0.00    +0.000 A 
ATOM      3  O   UNL     1       1.645   9.059  18.271  0.00  0.00    +0.000 OA
ATOM      4  C   UNL     1       1.909   7.806  18.739  0.00  0.00    +0.000 A 
ATOM      5  N   UNL     1       2.302   6.783  17.957  0.00  0.00    +0.000 NA
ATOM      6  C   UNL     1       2.528   5.612  18.629  0.00  0.00    +0.000 A 
ATOM      7  C   UNL     1       2.356   5.430  20.020  0.00  0.00    +0.000 A 
ATOM      8  C   UNL     1       1.933   6.553  20.754  0.00  0.00    +0.000 A 
ATOM      9  C   UNL     1       1.708   7.773  20.108  0.00  0.00    +0.000 A 
ENDROOT
BRANCH   2  10
ATOM     10  C   UNL     1       0.963  11.231  19.045  0.00  0.00    +0.000 A 
ATOM     11  C   UNL     1       1.972  12.206  19.143  0.00  0.00    +0.000 A 
ATOM     12  C   UNL     1       1.688  13.559  18.950  0.00  0.00    +0.000 A 
ATOM     13  C   UNL     1       0.394  13.944  18.636  0.00  0.00    +0.000 A 
ATOM     14  F   UNL     1       0.116  15.243  18.464  0.00  0.00    +0.000 F 
ATOM     15  C   UNL     1      -0.616  12.999  18.499  0.00  0.00    +0.000 A 
ATOM     16  C   UNL     1      -0.332  11.644  18.701  0.00  0.00    +0.000 A 
ENDBRANCH   2  10
BRANCH   1  19
ATOM     17  C   UNL     1      -1.065  10.410  23.096  0.00  0.00    +0.000 C 
ATOM     18  N   UNL     1      -0.492   9.976  21.848  0.00  0.00    +0.000 N 
ATOM     19  C   UNL     1       0.805   9.515  21.802  0.00  0.00    +0.000 C 
ATOM     20  O   UNL     1       1.522   9.480  22.799  0.00  0.00    +0.000 OA
ATOM     21  H   UNL     1      -1.099   9.830  21.054  0.00  0.00    +0.000 HD
ENDBRANCH   1  19
BRANCH   7  22
ATOM     22  C   UNL     1       2.616   4.167  20.813  0.00  0.00    +0.000 C 
ATOM     23  C   UNL     1       1.399   3.412  21.325  0.00  0.00    +0.000 C 
ATOM     24  C   UNL     1       2.298   2.787  20.309  0.00  0.00    +0.000 C 
ENDBRANCH   7  22
BRANCH   6  25
ATOM     25  C   UNL     1       2.981   4.465  17.740  0.00  0.00    +0.000 C 
BRANCH  25  26
ATOM     26  N   UNL     1       4.327   4.642  17.229  0.00  0.00    +0.000 N 
ATOM     27  C   UNL     1       5.417   4.244  17.980  0.00  0.00    +0.000 C 
ATOM     28  O   UNL     1       5.325   3.563  18.999  0.00  0.00    +0.000 OA
ATOM     29  H   UNL     1       4.493   5.390  16.562  0.00  0.00    +0.000 HD
BRANCH  27  30
ATOM     30  C   UNL     1       6.767   4.690  17.406  0.00  0.00    +0.000 C 
BRANCH  30  31
ATOM     31  O   UNL     1       7.851   4.659  18.330  0.00  0.00    +0.000 OA
ATOM     32  C   UNL     1       7.893   5.818  19.158  0.00  0.00    +0.000 C 
ENDBRANCH  30  31
ENDBRANCH  27  30
ENDBRANCH  25  26
ENDBRANCH   6  25
TORSDOF 7
ENDMDL
MODEL 4
REMARK VINA RESULT:      -8.2      3.464      7.973
REMARK  Name = 
REMARK  9 active torsions:
REMARK  status: ('A' for Active; 'I' for Inactive)
REMARK    1  A    between atoms: C_1  and  N_2
REMARK    2  A    between atoms: C_3  and  C_5
REMARK    3  A    between atoms: C_6  and  C_7
REMARK    4  A    between atoms: C_17  and  C_18
REMARK    5  A    between atoms: C_18  and  N_19
REMARK    6  A    between atoms: C_20  and  C_22
REMARK    7  A    between atoms: C_22  and  O_23
REMARK    8  A    between atoms: O_23  and  C_24
REMARK    9  A    between atoms: C_25  and  C_26
REMARK                            x       y       z     vdW  Elec       q    Type
REMARK                         _______ _______ _______ _____ _____    ______ ____
ROOT
ATOM      1  C   UNL     1       0.786   8.755  20.438  0.00  0.00    +0.000 A 
ATOM      2  C   UNL     1       1.065   9.581  19.360  0.00  0.00    +0.000 A 
ATOM      3  O   UNL     1       1.861   8.926  18.457  0.00  0.00    +0.000 OA
ATOM      4  C   UNL     1       2.113   7.682  18.954  0.00  0.00    +0.000 A 
ATOM      5  N   UNL     1       2.853   6.757  18.316  0.00  0.00    +0.000 NA
ATOM      6  C   UNL     1       2.995   5.577  18.995  0.00  0.00    +0.000 A 
ATOM      7  C   UNL     1       2.414   5.292  20.252  0.00  0.00    +0.000 A 
ATOM      8  C   UNL     1       1.647   6.315  20.838  0.00  0.00    +0.000 A 
ATOM      9  C   UNL     1       1.493   7.542  20.184  0.00  0.00    +0.000 A 
ENDROOT
BRANCH   2  10
ATOM     10  C   UNL     1       0.711  10.960  19.023  0.00  0.00    +0.000 A 
ATOM     11  C   UNL     1       1.659  11.992  19.154  0.00  0.00    +0.000 A 
ATOM     12  C   UNL     1       1.313  13.323  18.917  0.00  0.00    +0.000 A 
ATOM     13  C   UNL     1       0.019  13.630  18.528  0.00  0.00    +0.000 A 
ATOM     14  F   UNL     1      -0.319  14.908  18.314  0.00  0.00    +0.000 F 
ATOM     15  C   UNL     1      -0.930  12.628  18.359  0.00  0.00    +0.000 A 
ATOM     16  C   UNL     1      -0.584  11.294  18.603  0.00  0.00    +0.000 A 
ENDBRANCH   2  10
BRANCH   1  19
ATOM     17  C   UNL     1      -0.864  10.799  23.089  0.00  0.00    +0.000 C 
ATOM     18  N   UNL     1      -0.004  10.355  22.023  0.00  0.00    +0.000 N 
ATOM     19  C   UNL     1      -0.104   9.070  21.540  0.00  0.00    +0.000 C 
ATOM     20  O   UNL     1      -0.897   8.255  22.004  0.00  0.00    +0.000 OA
ATOM     21  H   UNL     1       0.531  11.040  21.508  0.00  0.00    +0.000 HD
ENDBRANCH   1  19
BRANCH   7  22
ATOM     22  C   UNL     1       2.560   4.017  21.054  0.00  0.00    +0.000 C 
ATOM     23  C   UNL     1       1.317   3.153  21.208  0.00  0.00    +0.000 C 
ATOM     24  C   UNL     1       2.499   2.641  20.451  0.00  0.00    +0.000 C 
ENDBRANCH   7  22
BRANCH   6  25
ATOM     25  C   UNL     1       3.842   4.543  18.271  0.00  0.00    +0.000 C 
BRANCH  25  26
ATOM     26  N   UNL     1       5.184   5.010  17.984  0.00  0.00    +0.000 N 
ATOM     27  C   UNL     1       5.822   4.630  16.819  0.00  0.00    +0.000 C 
ATOM     28  O   UNL     1       5.253   4.057  15.892  0.00  0.00    +0.000 OA
ATOM     29  H   UNL     1       5.787   5.249  18.766  0.00  0.00    +0.000 HD
BRANCH  27  30
ATOM     30  C   UNL     1       7.303   5.024  16.760  0.00  0.00    +0.000 C 
BRANCH  30  31
ATOM     31  O   UNL     1       7.551   6.367  16.354  0.00  0.00    +0.000 OA
ATOM     32  C   UNL     1       7.615   7.266  17.457  0.00  0.00    +0.000 C 
ENDBRANCH  30  31
ENDBRANCH  27  30
ENDBRANCH  25  26
ENDBRANCH   6  25
TORSDOF 7
ENDMDL
MODEL 5
REMARK VINA RESULT:      -8.1      3.518      8.003
REMARK  Name = 
REMARK  9 active torsions:
REMARK  status: ('A' for Active; 'I' for Inactive)
REMARK    1  A    between atoms: C_1  and  N_2
REMARK    2  A    between atoms: C_3  and  C_5
REMARK    3  A    between atoms: C_6  and  C_7
REMARK    4  A    between atoms: C_17  and  C_18
REMARK    5  A    between atoms: C_18  and  N_19
REMARK    6  A    between atoms: C_20  and  C_22
REMARK    7  A    between atoms: C_22  and  O_23
REMARK    8  A    between atoms: O_23  and  C_24
REMARK    9  A    between atoms: C_25  and  C_26
REMARK                            x       y       z     vdW  Elec       q    Type
REMARK                         _______ _______ _______ _____ _____    ______ ____
ROOT
ATOM      1  C   UNL     1       1.106   8.260  20.321  0.00  0.00    +0.000 A 
ATOM      2  C   UNL     1       1.365   9.159  19.298  0.00  0.00    +0.000 A 
ATOM      3  O   UNL     1       2.079   8.547  18.302  0.00  0.00    +0.000 OA
ATOM      4  C   UNL     1       2.300   7.257  18.683  0.00  0.00    +0.000 A 
ATOM      5  N   UNL     1       2.962   6.357  17.933  0.00  0.00    +0.000 NA
ATOM      6  C   UNL     1       3.086   5.122  18.508  0.00  0.00    +0.000 A 
ATOM      7  C   UNL     1       2.560   4.759  19.769  0.00  0.00    +0.000 A 
ATOM      8  C   UNL     1       1.874   5.762  20.477  0.00  0.00    +0.000 A 
ATOM      9  C   UNL     1       1.741   7.044  19.932  0.00  0.00    +0.000 A 
ENDROOT
BRANCH   2  10
ATOM     10  C   UNL     1       1.057  10.574  19.092  0.00  0.00    +0.000 A 
ATOM     11  C   UNL     1      -0.245  11.060  19.312  0.00  0.00    +0.000 A 
ATOM     12  C   UNL     1      -0.574  12.388  19.040  0.00  0.00    +0.000 A 
ATOM     13  C   UNL     1       0.404  13.248  18.565  0.00  0.00    +0.000 A 
ATOM     14  F   UNL     1       0.087  14.520  18.290  0.00  0.00    +0.000 F 
ATOM     15  C   UNL     1       1.707  12.805  18.370  0.00  0.00    +0.000 A 
ATOM     16  C   UNL     1       2.035  11.470  18.635  0.00  0.00    +0.000 A 
ENDBRANCH   2  10
BRANCH   1  19
ATOM     17  C   UNL     1       0.174   9.642  23.661  0.00  0.00    +0.000 C 
ATOM     18  N   UNL     1       0.896   9.283  22.468  0.00  0.00    +0.000 N 
ATOM     19  C   UNL     1       0.291   8.521  21.493  0.00  0.00    +0.000 C 
ATOM     20  O   UNL     1      -0.858   8.102  21.608  0.00  0.00    +0.000 OA
ATOM     21  H   UNL     1       1.769   9.748  22.264  0.00  0.00    +0.000 HD
ENDBRANCH   1  19
BRANCH   7  22
ATOM     22  C   UNL     1       2.690   3.418  20.459  0.00  0.00    +0.000 C 
ATOM     23  C   UNL     1       1.482   2.926  21.242  0.00  0.00    +0.000 C 
ATOM     24  C   UNL     1       1.945   2.184  20.030  0.00  0.00    +0.000 C 
ENDBRANCH   7  22
BRANCH   6  25
ATOM     25  C   UNL     1       3.844   4.115  17.657  0.00  0.00    +0.000 C 
BRANCH  25  26
ATOM     26  N   UNL     1       5.271   4.119  17.912  0.00  0.00    +0.000 N 
ATOM     27  C   UNL     1       6.133   4.770  17.051  0.00  0.00    +0.000 C 
ATOM     28  O   UNL     1       5.755   5.525  16.157  0.00  0.00    +0.000 OA
ATOM     29  H   UNL     1       5.667   3.347  18.441  0.00  0.00    +0.000 HD
BRANCH  27  30
ATOM     30  C   UNL     1       7.617   4.505  17.332  0.00  0.00    +0.000 C 
BRANCH  30  31
ATOM     31  O   UNL     1       8.020   4.720  18.681  0.00  0.00    +0.000 OA
ATOM     32  C   UNL     1       7.914   6.087  19.069  0.00  0.00    +0.000 C 
ENDBRANCH  30  31
ENDBRANCH  27  30
ENDBRANCH  25  26
ENDBRANCH   6  25
TORSDOF 7
ENDMDL
MODEL 6
REMARK VINA RESULT:      -8.1      3.630      8.007
REMARK  Name = 
REMARK  9 active torsions:
REMARK  status: ('A' for Active; 'I' for Inactive)
REMARK    1  A    between atoms: C_1  and  N_2
REMARK    2  A    between atoms: C_3  and  C_5
REMARK    3  A    between atoms: C_6  and  C_7
REMARK    4  A    between atoms: C_17  and  C_18
REMARK    5  A    between atoms: C_18  and  N_19
REMARK    6  A    between atoms: C_20  and  C_22
REMARK    7  A    between atoms: C_22  and  O_23
REMARK    8  A    between atoms: O_23  and  C_24
REMARK    9  A    between atoms: C_25  and  C_26
REMARK                            x       y       z     vdW  Elec       q    Type
REMARK                         _______ _______ _______ _____ _____    ______ ____
ROOT
ATOM      1  C   UNL     1       1.017   9.675  20.669  0.00  0.00    +0.000 A 
ATOM      2  C   UNL     1       1.148  10.548  19.599  0.00  0.00    +0.000 A 
ATOM      3  O   UNL     1       1.672   9.891  18.516  0.00  0.00    +0.000 OA
ATOM      4  C   UNL     1       1.897   8.598  18.886  0.00  0.00    +0.000 A 
ATOM      5  N   UNL     1       2.396   7.660  18.060  0.00  0.00    +0.000 NA
ATOM      6  C   UNL     1       2.558   6.428  18.635  0.00  0.00    +0.000 A 
ATOM      7  C   UNL     1       2.223   6.107  19.970  0.00  0.00    +0.000 A 
ATOM      8  C   UNL     1       1.697   7.149  20.755  0.00  0.00    +0.000 A 
ATOM      9  C   UNL     1       1.533   8.427  20.211  0.00  0.00    +0.000 A 
ENDROOT
BRANCH   2  10
ATOM     10  C   UNL     1       0.869  11.972  19.414  0.00  0.00    +0.000 A 
ATOM     11  C   UNL     1      -0.263  12.389  18.691  0.00  0.00    +0.000 A 
ATOM     12  C   UNL     1      -0.498  13.740  18.434  0.00  0.00    +0.000 A 
ATOM     13  C   UNL     1       0.390  14.688  18.918  0.00  0.00    +0.000 A 
ATOM     14  F   UNL     1       0.175  15.984  18.661  0.00  0.00    +0.000 F 
ATOM     15  C   UNL     1       1.500  14.308  19.664  0.00  0.00    +0.000 A 
ATOM     16  C   UNL     1       1.738  12.952  19.915  0.00  0.00    +0.000 A 
ENDBRANCH   2  10
BRANCH   1  19
ATOM     17  C   UNL     1      -1.467  11.073  23.079  0.00  0.00    +0.000 C 
ATOM     18  N   UNL     1      -0.749  10.733  21.879  0.00  0.00    +0.000 N 
ATOM     19  C   UNL     1       0.408   9.988  21.948  0.00  0.00    +0.000 C 
ATOM     20  O   UNL     1       0.880   9.611  23.017  0.00  0.00    +0.000 OA
ATOM     21  H   UNL     1      -1.195  10.875  20.983  0.00  0.00    +0.000 HD
ENDBRANCH   1  19
BRANCH   7  22
ATOM     22  C   UNL     1       2.405   4.771  20.659  0.00  0.00    +0.000 C 
ATOM     23  C   UNL     1       1.187   3.863  20.734  0.00  0.00    +0.000 C 
ATOM     24  C   UNL     1       2.383   3.452  19.938  0.00  0.00    +0.000 C 
ENDBRANCH   7  22
BRANCH   6  25
ATOM     25  C   UNL     1       3.131   5.378  17.697  0.00  0.00    +0.000 C 
BRANCH  25  26
ATOM     26  N   UNL     1       4.580   5.330  17.719  0.00  0.00    +0.000 N 
ATOM     27  C   UNL     1       5.314   5.910  16.703  0.00  0.00    +0.000 C 
ATOM     28  O   UNL     1       4.824   6.646  15.849  0.00  0.00    +0.000 OA
ATOM     29  H   UNL     1       5.028   4.562  18.211  0.00  0.00    +0.000 HD
BRANCH  27  30
ATOM     30  C   UNL     1       6.814   5.591  16.753  0.00  0.00    +0.000 C 
BRANCH  30  31
ATOM     31  O   UNL     1       7.672   6.705  16.520  0.00  0.00    +0.000 OA
ATOM     32  C   UNL     1       7.677   7.624  17.608  0.00  0.00    +0.000 C 
ENDBRANCH  30  31
ENDBRANCH  27  30
ENDBRANCH  25  26
ENDBRANCH   6  25
TORSDOF 7
ENDMDL
MODEL 7
REMARK VINA RESULT:      -8.1      0.750      1.297
REMARK  Name = 
REMARK  9 active torsions:
REMARK  status: ('A' for Active; 'I' for Inactive)
REMARK    1  A    between atoms: C_1  and  N_2
REMARK    2  A    between atoms: C_3  and  C_5
REMARK    3  A    between atoms: C_6  and  C_7
REMARK    4  A    between atoms: C_17  and  C_18
REMARK    5  A    between atoms: C_18  and  N_19
REMARK    6  A    between atoms: C_20  and  C_22
REMARK    7  A    between atoms: C_22  and  O_23
REMARK    8  A    between atoms: O_23  and  C_24
REMARK    9  A    between atoms: C_25  and  C_26
REMARK                            x       y       z     vdW  Elec       q    Type
REMARK                         _______ _______ _______ _____ _____    ______ ____
ROOT
ATOM      1  C   UNL     1       2.945   6.502  19.091  0.00  0.00    +0.000 A 
ATOM      2  C   UNL     1       3.427   6.666  17.801  0.00  0.00    +0.000 A 
ATOM      3  O   UNL     1       3.035   7.880  17.302  0.00  0.00    +0.000 OA
ATOM      4  C   UNL     1       2.287   8.499  18.259  0.00  0.00    +0.000 A 
ATOM      5  N   UNL     1       1.749   9.724  18.113  0.00  0.00    +0.000 NA
ATOM      6  C   UNL     1       1.020  10.154  19.189  0.00  0.00    +0.000 A 
ATOM      7  C   UNL     1       0.837   9.426  20.386  0.00  0.00    +0.000 A 
ATOM      8  C   UNL     1       1.445   8.159  20.452  0.00  0.00    +0.000 A 
ATOM      9  C   UNL     1       2.183   7.675  19.367  0.00  0.00    +0.000 A 
ENDROOT
BRANCH   2  10
ATOM     10  C   UNL     1       4.216   5.825  16.901  0.00  0.00    +0.000 A 
ATOM     11  C   UNL     1       4.125   4.423  16.972  0.00  0.00    +0.000 A 
ATOM     12  C   UNL     1       4.933   3.607  16.178  0.00  0.00    +0.000 A 
ATOM     13  C   UNL     1       5.826   4.189  15.292  0.00  0.00    +0.000 A 
ATOM     14  F   UNL     1       6.612   3.408  14.540  0.00  0.00    +0.000 F 
ATOM     15  C   UNL     1       5.914   5.572  15.177  0.00  0.00    +0.000 A 
ATOM     16  C   UNL     1       5.109   6.389  15.978  0.00  0.00    +0.000 A 
ENDBRANCH   2  10
BRANCH   1  19
ATOM     17  C   UNL     1       2.303   3.632  21.390  0.00  0.00    +0.000 C 
ATOM     18  N   UNL     1       2.140   4.776  20.531  0.00  0.00    +0.000 N 
ATOM     19  C   UNL     1       3.240   5.386  19.971  0.00  0.00    +0.000 C 
ATOM     20  O   UNL     1       4.386   5.005  20.195  0.00  0.00    +0.000 OA
ATOM     21  H   UNL     1       1.217   5.006  20.190  0.00  0.00    +0.000 HD
ENDBRANCH   1  19
BRANCH   7  22
ATOM     22  C   UNL     1       0.023   9.846  21.592  0.00  0.00    +0.000 C 
ATOM     23  C   UNL     1      -0.718   8.747  22.339  0.00  0.00    +0.000 C 
ATOM     24  C   UNL     1       0.389   9.495  23.007  0.00  0.00    +0.000 C 
ENDBRANCH   7  22
BRANCH   6  25
ATOM     25  C   UNL     1       0.409  11.535  19.010  0.00  0.00    +0.000 C 
BRANCH  25  26
ATOM     26  N   UNL     1      -0.714  11.542  18.093  0.00  0.00    +0.000 N 
ATOM     27  C   UNL     1      -2.001  11.709  18.566  0.00  0.00    +0.000 C 
ATOM     28  O   UNL     1      -2.261  12.046  19.719  0.00  0.00    +0.000 OA
ATOM     29  H   UNL     1      -0.622  11.036  17.217  0.00  0.00    +0.000 HD
BRANCH  27  30
ATOM     30  C   UNL     1      -3.090  11.479  17.510  0.00  0.00    +0.000 C 
BRANCH  30  31
ATOM     31  O   UNL     1      -4.010  10.435  17.814  0.00  0.00    +0.000 OA
ATOM     32  C   UNL     1      -5.295  10.930  18.177  0.00  0.00    +0.000 C 
ENDBRANCH  30  31
ENDBRANCH  27  30
ENDBRANCH  25  26
ENDBRANCH   6  25
TORSDOF 7
ENDMDL
MODEL 8
REMARK VINA RESULT:      -8.0      3.544      8.092
REMARK  Name = 
REMARK  9 active torsions:
REMARK  status: ('A' for Active; 'I' for Inactive)
REMARK    1  A    between atoms: C_1  and  N_2
REMARK    2  A    between atoms: C_3  and  C_5
REMARK    3  A    between atoms: C_6  and  C_7
REMARK    4  A    between atoms: C_17  and  C_18
REMARK    5  A    between atoms: C_18  and  N_19
REMARK    6  A    between atoms: C_20  and  C_22
REMARK    7  A    between atoms: C_22  and  O_23
REMARK    8  A    between atoms: O_23  and  C_24
REMARK    9  A    between atoms: C_25  and  C_26
REMARK                            x       y       z     vdW  Elec       q    Type
REMARK                         _______ _______ _______ _____ _____    ______ ____
ROOT
ATOM      1  C   UNL     1       1.007   9.664  20.736  0.00  0.00    +0.000 A 
ATOM      2  C   UNL     1       1.139  10.516  19.649  0.00  0.00    +0.000 A 
ATOM      3  O   UNL     1       1.639   9.832  18.572  0.00  0.00    +0.000 OA
ATOM      4  C   UNL     1       1.848   8.542  18.962  0.00  0.00    +0.000 A 
ATOM      5  N   UNL     1       2.321   7.581  18.147  0.00  0.00    +0.000 NA
ATOM      6  C   UNL     1       2.470   6.357  18.741  0.00  0.00    +0.000 A 
ATOM      7  C   UNL     1       2.146   6.065  20.085  0.00  0.00    +0.000 A 
ATOM      8  C   UNL     1       1.647   7.129  20.859  0.00  0.00    +0.000 A 
ATOM      9  C   UNL     1       1.497   8.400  20.294  0.00  0.00    +0.000 A 
ENDROOT
BRANCH   2  10
ATOM     10  C   UNL     1       0.882  11.941  19.443  0.00  0.00    +0.000 A 
ATOM     11  C   UNL     1      -0.240  12.363  18.707  0.00  0.00    +0.000 A 
ATOM     12  C   UNL     1      -0.454  13.714  18.430  0.00  0.00    +0.000 A 
ATOM     13  C   UNL     1       0.444  14.656  18.906  0.00  0.00    +0.000 A 
ATOM     14  F   UNL     1       0.249  15.952  18.630  0.00  0.00    +0.000 F 
ATOM     15  C   UNL     1       1.544  14.271  19.664  0.00  0.00    +0.000 A 
ATOM     16  C   UNL     1       1.762  12.916  19.935  0.00  0.00    +0.000 A 
ENDBRANCH   2  10
BRANCH   1  19
ATOM     17  C   UNL     1      -1.485  11.038  23.151  0.00  0.00    +0.000 C 
ATOM     18  N   UNL     1      -0.784  10.677  21.947  0.00  0.00    +0.000 N 
ATOM     19  C   UNL     1       0.419  10.009  22.017  0.00  0.00    +0.000 C 
ATOM     20  O   UNL     1       0.946   9.722  23.088  0.00  0.00    +0.000 OA
ATOM     21  H   UNL     1      -1.265  10.741  21.061  0.00  0.00    +0.000 HD
ENDBRANCH   1  19
BRANCH   7  22
ATOM     22  C   UNL     1       2.314   4.739  20.796  0.00  0.00    +0.000 C 
ATOM     23  C   UNL     1       1.140   3.773  20.740  0.00  0.00    +0.000 C 
ATOM     24  C   UNL     1       2.434   3.420  20.082  0.00  0.00    +0.000 C 
ENDBRANCH   7  22
BRANCH   6  25
ATOM     25  C   UNL     1       3.015   5.281  17.816  0.00  0.00    +0.000 C 
BRANCH  25  26
ATOM     26  N   UNL     1       4.265   5.657  17.184  0.00  0.00    +0.000 N 
ATOM     27  C   UNL     1       5.459   5.119  17.623  0.00  0.00    +0.000 C 
ATOM     28  O   UNL     1       5.529   4.177  18.410  0.00  0.00    +0.000 OA
ATOM     29  H   UNL     1       4.322   6.568  16.738  0.00  0.00    +0.000 HD
BRANCH  27  30
ATOM     30  C   UNL     1       6.703   5.772  17.007  0.00  0.00    +0.000 C 
BRANCH  30  31
ATOM     31  O   UNL     1       7.512   4.900  16.223  0.00  0.00    +0.000 OA
ATOM     32  C   UNL     1       6.901   4.560  14.981  0.00  0.00    +0.000 C 
ENDBRANCH  30  31
ENDBRANCH  27  30
ENDBRANCH  25  26
ENDBRANCH   6  25
TORSDOF 7
ENDMDL
MODEL 9
REMARK VINA RESULT:      -8.0      1.037      1.097
REMARK  Name = 
REMARK  9 active torsions:
REMARK  status: ('A' for Active; 'I' for Inactive)
REMARK    1  A    between atoms: C_1  and  N_2
REMARK    2  A    between atoms: C_3  and  C_5
REMARK    3  A    between atoms: C_6  and  C_7
REMARK    4  A    between atoms: C_17  and  C_18
REMARK    5  A    between atoms: C_18  and  N_19
REMARK    6  A    between atoms: C_20  and  C_22
REMARK    7  A    between atoms: C_22  and  O_23
REMARK    8  A    between atoms: O_23  and  C_24
REMARK    9  A    between atoms: C_25  and  C_26
REMARK                            x       y       z     vdW  Elec       q    Type
REMARK                         _______ _______ _______ _____ _____    ______ ____
ROOT
ATOM      1  C   UNL     1       2.788   6.214  19.427  0.00  0.00    +0.000 A 
ATOM      2  C   UNL     1       3.341   6.512  18.190  0.00  0.00    +0.000 A 
ATOM      3  O   UNL     1       2.935   7.754  17.779  0.00  0.00    +0.000 OA
ATOM      4  C   UNL     1       2.107   8.258  18.738  0.00  0.00    +0.000 A 
ATOM      5  N   UNL     1       1.533   9.473  18.669  0.00  0.00    +0.000 NA
ATOM      6  C   UNL     1       0.726   9.779  19.731  0.00  0.00    +0.000 A 
ATOM      7  C   UNL     1       0.498   8.938  20.844  0.00  0.00    +0.000 A 
ATOM      8  C   UNL     1       1.148   7.691  20.834  0.00  0.00    +0.000 A 
ATOM      9  C   UNL     1       1.967   7.333  19.758  0.00  0.00    +0.000 A 
ENDROOT
BRANCH   2  10
ATOM     10  C   UNL     1       4.214   5.784  17.270  0.00  0.00    +0.000 A 
ATOM     11  C   UNL     1       5.182   6.469  16.513  0.00  0.00    +0.000 A 
ATOM     12  C   UNL     1       5.965   5.802  15.570  0.00  0.00    +0.000 A 
ATOM     13  C   UNL     1       5.800   4.437  15.392  0.00  0.00    +0.000 A 
ATOM     14  F   UNL     1       6.540   3.797  14.478  0.00  0.00    +0.000 F 
ATOM     15  C   UNL     1       4.875   3.728  16.150  0.00  0.00    +0.000 A 
ATOM     16  C   UNL     1       4.085   4.399  17.089  0.00  0.00    +0.000 A 
ENDBRANCH   2  10
BRANCH   1  19
ATOM     17  C   UNL     1       2.116   3.196  21.518  0.00  0.00    +0.000 C 
ATOM     18  N   UNL     1       1.966   4.403  20.746  0.00  0.00    +0.000 N 
ATOM     19  C   UNL     1       3.072   5.032  20.219  0.00  0.00    +0.000 C 
ATOM     20  O   UNL     1       4.212   4.615  20.402  0.00  0.00    +0.000 OA
ATOM     21  H   UNL     1       1.044   4.674  20.434  0.00  0.00    +0.000 HD
ENDBRANCH   1  19
BRANCH   7  22
ATOM     22  C   UNL     1      -0.403   9.218  22.028  0.00  0.00    +0.000 C 
ATOM     23  C   UNL     1       0.276   9.473  23.365  0.00  0.00    +0.000 C 
ATOM     24  C   UNL     1      -0.504  10.560  22.699  0.00  0.00    +0.000 C 
ENDBRANCH   7  22
BRANCH   6  25
ATOM     25  C   UNL     1       0.074  11.150  19.639  0.00  0.00    +0.000 C 
BRANCH  25  26
ATOM     26  N   UNL     1      -1.056  11.181  18.731  0.00  0.00    +0.000 N 
ATOM     27  C   UNL     1      -2.246  11.764  19.118  0.00  0.00    +0.000 C 
ATOM     28  O   UNL     1      -2.369  12.444  20.135  0.00  0.00    +0.000 OA
ATOM     29  H   UNL     1      -1.123  10.454  18.024  0.00  0.00    +0.000 HD
BRANCH  27  30
ATOM     30  C   UNL     1      -3.405  11.528  18.140  0.00  0.00    +0.000 C 
BRANCH  30  31
ATOM     31  O   UNL     1      -4.705  11.688  18.701  0.00  0.00    +0.000 OA
ATOM     32  C   UNL     1      -5.740  11.448  17.751  0.00  0.00    +0.000 C 
ENDBRANCH  30  31
ENDBRANCH  27  30
ENDBRANCH  25  26
ENDBRANCH   6  25
TORSDOF 7
ENDMDL
