MODEL 1
REMARK VINA RESULT:      -7.1      0.000      0.000
REMARK  Name = 
REMARK  5 active torsions:
REMARK  status: ('A' for Active; 'I' for Inactive)
REMARK    1  A    between atoms: C_1  and  C_2
REMARK    2  A    between atoms: C_2  and  C_3
REMARK    3  A    between atoms: C_10  and  C_11
REMARK    4  A    between atoms: C_16  and  O_17
REMARK    5  A    between atoms: C_16  and  C_18
REMARK                            x       y       z     vdW  Elec       q    Type
REMARK                         _______ _______ _______ _____ _____    ______ ____
ROOT
ATOM      1  C   UNL     1       1.207  11.505  19.087  0.00  0.00    +0.000 A 
ATOM      2  N   UNL     1       2.243  11.695  18.259  0.00  0.00    +0.000 NA
ATOM      3  N   UNL     1       2.688  12.926  18.532  0.00  0.00    +0.000 N 
ATOM      4  C   UNL     1       1.972  13.524  19.519  0.00  0.00    +0.000 A 
ATOM      5  C   UNL     1       1.005  12.647  19.916  0.00  0.00    +0.000 A 
ATOM      6  C   UNL     1       0.013  12.976  20.988  0.00  0.00    +0.000 C 
ATOM      7  C   UNL     1       0.296  14.371  21.616  0.00  0.00    +0.000 C 
ATOM      8  C   UNL     1       1.394  15.244  21.022  0.00  0.00    +0.000 C 
ATOM      9  O   UNL     1       1.592  16.382  21.451  0.00  0.00    +0.000 OA
ATOM     10  N   UNL     1       2.180  14.773  20.012  0.00  0.00    +0.000 N 
ATOM     11  H   UNL     1       3.471  13.289  18.000  0.00  0.00    +0.000 HD
ATOM     12  H   UNL     1       2.909  15.387  19.671  0.00  0.00    +0.000 HD
ENDROOT
BRANCH   1  20
ATOM     13  C   UNL     1       2.556   3.823  19.783  0.00  0.00    +0.000 A 
ATOM     14  C   UNL     1       3.382   4.539  18.922  0.00  0.00    +0.000 A 
ATOM     15  C   UNL     1       3.243   5.918  18.835  0.00  0.00    +0.000 A 
ATOM     16  C   UNL     1       2.285   6.579  19.602  0.00  0.00    +0.000 A 
ATOM     17  N   UNL     1       2.109   7.939  19.489  0.00  0.00    +0.000 N 
ATOM     18  C   UNL     1       1.669   8.709  20.648  0.00  0.00    +0.000 C 
ATOM     19  C   UNL     1       0.367   9.447  20.347  0.00  0.00    +0.000 C 
ATOM     20  C   UNL     1       0.408  10.220  19.020  0.00  0.00    +0.000 C 
ATOM     21  C   UNL     1       0.876   9.303  17.884  0.00  0.00    +0.000 C 
ATOM     22  C   UNL     1       2.195   8.604  18.199  0.00  0.00    +0.000 C 
ATOM     23  N   UNL     1       1.504   5.896  20.467  0.00  0.00    +0.000 NA
ATOM     24  C   UNL     1       1.642   4.553  20.529  0.00  0.00    +0.000 A 
BRANCH  13  26
ATOM     25  C   UNL     1       3.224   1.751  18.582  0.00  0.00    +0.000 C 
ATOM     26  C   UNL     1       2.613   2.329  19.850  0.00  0.00    +0.000 C 
ENDBRANCH  13  26
ENDBRANCH   1  20
BRANCH   6  27
ATOM     27  C   UNL     1      -1.467  12.903  20.455  0.00  0.00    +0.000 C 
ATOM     28  F   UNL     1      -2.066  11.723  20.746  0.00  0.00    +0.000 F 
ATOM     29  F   UNL     1      -2.233  13.863  21.037  0.00  0.00    +0.000 F 
ATOM     30  F   UNL     1      -1.581  13.064  19.119  0.00  0.00    +0.000 F 
ENDBRANCH   6  27
BRANCH   6  31
ATOM     31  O   UNL     1       0.222  12.044  22.089  0.00  0.00    +0.000 OA
ATOM     32  H   UNL     1       0.691  12.512  22.803  0.00  0.00    +0.000 HD
ENDBRANCH   6  31
TORSDOF 4
ENDMDL
MODEL 2
REMARK VINA RESULT:      -6.9      2.107      2.663
REMARK  Name = 
REMARK  5 active torsions:
REMARK  status: ('A' for Active; 'I' for Inactive)
REMARK    1  A    between atoms: C_1  and  C_2
REMARK    2  A    between atoms: C_2  and  C_3
REMARK    3  A    between atoms: C_10  and  C_11
REMARK    4  A    between atoms: C_16  and  O_17
REMARK    5  A    between atoms: C_16  and  C_18
REMARK                            x       y       z     vdW  Elec       q    Type
REMARK                         _______ _______ _______ _____ _____    ______ ____
ROOT
ATOM      1  C   UNL     1      -1.118  12.480  19.949  0.00  0.00    +0.000 A 
ATOM      2  N   UNL     1      -0.851  13.052  18.767  0.00  0.00    +0.000 NA
ATOM      3  N   UNL     1      -0.809  14.366  19.014  0.00  0.00    +0.000 N 
ATOM      4  C   UNL     1      -1.031  14.648  20.325  0.00  0.00    +0.000 A 
ATOM      5  C   UNL     1      -1.231  13.465  20.973  0.00  0.00    +0.000 A 
ATOM      6  C   UNL     1      -1.520  13.391  22.441  0.00  0.00    +0.000 C 
ATOM      7  C   UNL     1      -1.466  14.799  23.101  0.00  0.00    +0.000 C 
ATOM      8  C   UNL     1      -1.271  16.026  22.219  0.00  0.00    +0.000 C 
ATOM      9  O   UNL     1      -1.298  17.159  22.705  0.00  0.00    +0.000 OA
ATOM     10  N   UNL     1      -1.055  15.887  20.880  0.00  0.00    +0.000 N 
ATOM     11  H   UNL     1      -0.635  15.000  18.244  0.00  0.00    +0.000 HD
ATOM     12  H   UNL     1      -0.909  16.735  20.347  0.00  0.00    +0.000 HD
ENDROOT
BRANCH   1  20
ATOM     13  C   UNL     1       3.198   6.062  18.725  0.00  0.00    +0.000 A 
ATOM     14  C   UNL     1       3.175   7.016  17.713  0.00  0.00    +0.000 A 
ATOM     15  C   UNL     1       2.500   8.213  17.919  0.00  0.00    +0.000 A 
ATOM     16  C   UNL     1       1.852   8.455  19.129  0.00  0.00    +0.000 A 
ATOM     17  N   UNL     1       1.142   9.617  19.327  0.00  0.00    +0.000 N 
ATOM     18  C   UNL     1       1.050  10.188  20.666  0.00  0.00    +0.000 C 
ATOM     19  C   UNL     1      -0.407  10.314  21.103  0.00  0.00    +0.000 C 
ATOM     20  C   UNL     1      -1.296  10.979  20.042  0.00  0.00    +0.000 C 
ATOM     21  C   UNL     1      -1.116  10.286  18.686  0.00  0.00    +0.000 C 
ATOM     22  C   UNL     1       0.347  10.203  18.259  0.00  0.00    +0.000 C 
ATOM     23  N   UNL     1       1.901   7.550  20.130  0.00  0.00    +0.000 NA
ATOM     24  C   UNL     1       2.549   6.385  19.908  0.00  0.00    +0.000 A 
BRANCH  13  26
ATOM     25  C   UNL     1       4.156   4.496  17.048  0.00  0.00    +0.000 C 
ATOM     26  C   UNL     1       3.843   4.727  18.519  0.00  0.00    +0.000 C 
ENDBRANCH  13  26
ENDBRANCH   1  20
BRANCH   6  27
ATOM     27  C   UNL     1      -2.905  12.701  22.730  0.00  0.00    +0.000 C 
ATOM     28  F   UNL     1      -2.767  11.475  23.291  0.00  0.00    +0.000 F 
ATOM     29  F   UNL     1      -3.631  13.436  23.612  0.00  0.00    +0.000 F 
ATOM     30  F   UNL     1      -3.675  12.528  21.634  0.00  0.00    +0.000 F 
ENDBRANCH   6  27
BRANCH   6  31
ATOM     31  O   UNL     1      -0.427  12.663  23.073  0.00  0.00    +0.000 OA
ATOM     32  H   UNL     1       0.246  12.470  22.396  0.00  0.00    +0.000 HD
ENDBRANCH   6  31
TORSDOF 4
ENDMDL
MODEL 3
REMARK VINA RESULT:      -6.9      0.818      1.092
REMARK  Name = 
REMARK  5 active torsions:
REMARK  status: ('A' for Active; 'I' for Inactive)
REMARK    1  A    between atoms: C_1  and  C_2
REMARK    2  A    between atoms: C_2  and  C_3
REMARK    3  A    between atoms: C_10  and  C_11
REMARK    4  A    between atoms: C_16  and  O_17
REMARK    5  A    between atoms: C_16  and  C_18
REMARK                            x       y       z     vdW  Elec       q    Type
REMARK                         _______ _______ _______ _____ _____    ______ ____
ROOT
ATOM      1  C   UNL     1       0.809  11.655  19.901  0.00  0.00    +0.000 A 
ATOM      2  N   UNL     1       1.881  11.933  19.146  0.00  0.00    +0.000 NA
ATOM      3  N   UNL     1       2.270  13.155  19.524  0.00  0.00    +0.000 N 
ATOM      4  C   UNL     1       1.483  13.662  20.508  0.00  0.00    +0.000 A 
ATOM      5  C   UNL     1       0.527  12.732  20.792  0.00  0.00    +0.000 A 
ATOM      6  C   UNL     1      -0.532  12.957  21.827  0.00  0.00    +0.000 C 
ATOM      7  C   UNL     1      -0.329  14.313  22.562  0.00  0.00    +0.000 C 
ATOM      8  C   UNL     1       0.771  15.257  22.088  0.00  0.00    +0.000 C 
ATOM      9  O   UNL     1       0.908  16.369  22.603  0.00  0.00    +0.000 OA
ATOM     10  N   UNL     1       1.623  14.880  21.094  0.00  0.00    +0.000 N 
ATOM     11  H   UNL     1       3.068  13.576  19.062  0.00  0.00    +0.000 HD
ATOM     12  H   UNL     1       2.349  15.537  20.836  0.00  0.00    +0.000 HD
ENDROOT
BRANCH   1  20
ATOM     13  C   UNL     1       2.474   4.010  19.624  0.00  0.00    +0.000 A 
ATOM     14  C   UNL     1       3.240   4.857  18.830  0.00  0.00    +0.000 A 
ATOM     15  C   UNL     1       3.047   6.230  18.914  0.00  0.00    +0.000 A 
ATOM     16  C   UNL     1       2.092   6.754  19.785  0.00  0.00    +0.000 A 
ATOM     17  N   UNL     1       1.860   8.108  19.842  0.00  0.00    +0.000 N 
ATOM     18  C   UNL     1       1.433   8.716  21.098  0.00  0.00    +0.000 C 
ATOM     19  C   UNL     1       0.094   9.429  20.929  0.00  0.00    +0.000 C 
ATOM     20  C   UNL     1       0.058  10.355  19.704  0.00  0.00    +0.000 C 
ATOM     21  C   UNL     1       0.519   9.601  18.452  0.00  0.00    +0.000 C 
ATOM     22  C   UNL     1       1.875   8.925  18.639  0.00  0.00    +0.000 C 
ATOM     23  N   UNL     1       1.369   5.940  20.585  0.00  0.00    +0.000 NA
ATOM     24  C   UNL     1       1.561   4.606  20.481  0.00  0.00    +0.000 A 
BRANCH  13  26
ATOM     25  C   UNL     1       2.760   2.101  18.056  0.00  0.00    +0.000 C 
ATOM     26  C   UNL     1       2.591   2.522  19.508  0.00  0.00    +0.000 C 
ENDBRANCH  13  26
ENDBRANCH   1  20
BRANCH   6  27
ATOM     27  C   UNL     1      -1.978  12.878  21.210  0.00  0.00    +0.000 C 
ATOM     28  F   UNL     1      -1.984  13.091  19.872  0.00  0.00    +0.000 F 
ATOM     29  F   UNL     1      -2.509  11.641  21.393  0.00  0.00    +0.000 F 
ATOM     30  F   UNL     1      -2.851  13.763  21.736  0.00  0.00    +0.000 F 
ENDBRANCH   6  27
BRANCH   6  31
ATOM     31  O   UNL     1      -0.350  11.959  22.874  0.00  0.00    +0.000 OA
ATOM     32  H   UNL     1      -0.039  12.410  23.678  0.00  0.00    +0.000 HD
ENDBRANCH   6  31
TORSDOF 4
ENDMDL
MODEL 4
REMARK VINA RESULT:      -6.8      2.563      3.724
REMARK  Name = 
REMARK  5 active torsions:
REMARK  status: ('A' for Active; 'I' for Inactive)
REMARK    1  A    between atoms: C_1  and  C_2
REMARK    2  A    between atoms: C_2  and  C_3
REMARK    3  A    between atoms: C_10  and  C_11
REMARK    4  A    between atoms: C_16  and  O_17
REMARK    5  A    between atoms: C_16  and  C_18
REMARK                            x       y       z     vdW  Elec       q    Type
REMARK                         _______ _______ _______ _____ _____    ______ ____
ROOT
ATOM      1  C   UNL     1      -1.623  13.409  20.665  0.00  0.00    +0.000 A 
ATOM      2  N   UNL     1      -1.356  14.050  19.519  0.00  0.00    +0.000 NA
ATOM      3  N   UNL     1      -1.350  15.349  19.837  0.00  0.00    +0.000 N 
ATOM      4  C   UNL     1      -1.595  15.556  21.157  0.00  0.00    +0.000 A 
ATOM      5  C   UNL     1      -1.774  14.335  21.739  0.00  0.00    +0.000 A 
ATOM      6  C   UNL     1      -2.079  14.177  23.196  0.00  0.00    +0.000 C 
ATOM      7  C   UNL     1      -2.070  15.548  23.931  0.00  0.00    +0.000 C 
ATOM      8  C   UNL     1      -1.894  16.825  23.118  0.00  0.00    +0.000 C 
ATOM      9  O   UNL     1      -1.955  17.929  23.663  0.00  0.00    +0.000 OA
ATOM     10  N   UNL     1      -1.658  16.763  21.777  0.00  0.00    +0.000 N 
ATOM     11  H   UNL     1      -1.182  16.028  19.103  0.00  0.00    +0.000 HD
ATOM     12  H   UNL     1      -1.525  17.641  21.291  0.00  0.00    +0.000 HD
ENDROOT
BRANCH   1  20
ATOM     13  C   UNL     1       2.613   7.192  18.497  0.00  0.00    +0.000 A 
ATOM     14  C   UNL     1       2.452   8.210  17.563  0.00  0.00    +0.000 A 
ATOM     15  C   UNL     1       1.789   9.373  17.930  0.00  0.00    +0.000 A 
ATOM     16  C   UNL     1       1.288   9.520  19.223  0.00  0.00    +0.000 A 
ATOM     17  N   UNL     1       0.590  10.649  19.583  0.00  0.00    +0.000 N 
ATOM     18  C   UNL     1       0.651  11.128  20.959  0.00  0.00    +0.000 C 
ATOM     19  C   UNL     1      -0.744  11.190  21.576  0.00  0.00    +0.000 C 
ATOM     20  C   UNL     1      -1.766  11.902  20.676  0.00  0.00    +0.000 C 
ATOM     21  C   UNL     1      -1.740  11.305  19.264  0.00  0.00    +0.000 C 
ATOM     22  C   UNL     1      -0.339  11.285  18.661  0.00  0.00    +0.000 C 
ATOM     23  N   UNL     1       1.472   8.552  20.146  0.00  0.00    +0.000 NA
ATOM     24  C   UNL     1       2.107   7.420  19.769  0.00  0.00    +0.000 A 
BRANCH  13  26
ATOM     25  C   UNL     1       2.244   4.750  18.208  0.00  0.00    +0.000 C 
ATOM     26  C   UNL     1       3.249   5.889  18.124  0.00  0.00    +0.000 C 
ENDBRANCH  13  26
ENDBRANCH   1  20
BRANCH   6  27
ATOM     27  C   UNL     1      -3.451  13.439  23.429  0.00  0.00    +0.000 C 
ATOM     28  F   UNL     1      -4.112  13.904  24.516  0.00  0.00    +0.000 F 
ATOM     29  F   UNL     1      -4.284  13.634  22.374  0.00  0.00    +0.000 F 
ATOM     30  F   UNL     1      -3.337  12.104  23.601  0.00  0.00    +0.000 F 
ENDBRANCH   6  27
BRANCH   6  31
ATOM     31  O   UNL     1      -0.977  13.443  23.804  0.00  0.00    +0.000 OA
ATOM     32  H   UNL     1      -0.141  13.860  23.529  0.00  0.00    +0.000 HD
ENDBRANCH   6  31
TORSDOF 4
ENDMDL
MODEL 5
REMARK VINA RESULT:      -6.6      1.455      1.754
REMARK  Name = 
REMARK  5 active torsions:
REMARK  status: ('A' for Active; 'I' for Inactive)
REMARK    1  A    between atoms: C_1  and  C_2
REMARK    2  A    between atoms: C_2  and  C_3
REMARK    3  A    between atoms: C_10  and  C_11
REMARK    4  A    between atoms: C_16  and  O_17
REMARK    5  A    between atoms: C_16  and  C_18
REMARK                            x       y       z     vdW  Elec       q    Type
REMARK                         _______ _______ _______ _____ _____    ______ ____
ROOT
ATOM      1  C   UNL     1       0.453  11.630  20.448  0.00  0.00    +0.000 A 
ATOM      2  N   UNL     1       1.626  12.053  19.958  0.00  0.00    +0.000 NA
ATOM      3  N   UNL     1       1.832  13.248  20.524  0.00  0.00    +0.000 N 
ATOM      4  C   UNL     1       0.827  13.594  21.370  0.00  0.00    +0.000 A 
ATOM      5  C   UNL     1      -0.088  12.582  21.361  0.00  0.00    +0.000 A 
ATOM      6  C   UNL     1      -1.345  12.627  22.173  0.00  0.00    +0.000 C 
ATOM      7  C   UNL     1      -1.402  13.904  23.061  0.00  0.00    +0.000 C 
ATOM      8  C   UNL     1      -0.312  14.959  22.915  0.00  0.00    +0.000 C 
ATOM      9  O   UNL     1      -0.370  16.014  23.551  0.00  0.00    +0.000 OA
ATOM     10  N   UNL     1       0.749  14.746  22.085  0.00  0.00    +0.000 N 
ATOM     11  H   UNL     1       2.668  13.764  20.278  0.00  0.00    +0.000 HD
ATOM     12  H   UNL     1       1.455  15.471  22.046  0.00  0.00    +0.000 HD
ENDROOT
BRANCH   1  20
ATOM     13  C   UNL     1       3.077   4.628  18.127  0.00  0.00    +0.000 A 
ATOM     14  C   UNL     1       3.639   5.749  17.526  0.00  0.00    +0.000 A 
ATOM     15  C   UNL     1       3.275   7.014  17.969  0.00  0.00    +0.000 A 
ATOM     16  C   UNL     1       2.354   7.159  19.005  0.00  0.00    +0.000 A 
ATOM     17  N   UNL     1       1.952   8.407  19.420  0.00  0.00    +0.000 N 
ATOM     18  C   UNL     1       1.580   8.620  20.814  0.00  0.00    +0.000 C 
ATOM     19  C   UNL     1       0.147   9.138  20.921  0.00  0.00    +0.000 C 
ATOM     20  C   UNL     1      -0.136  10.316  19.977  0.00  0.00    +0.000 C 
ATOM     21  C   UNL     1       0.290   9.967  18.546  0.00  0.00    +0.000 C 
ATOM     22  C   UNL     1       1.735   9.483  18.466  0.00  0.00    +0.000 C 
ATOM     23  N   UNL     1       1.831   6.075  19.619  0.00  0.00    +0.000 NA
ATOM     24  C   UNL     1       2.185   4.851  19.166  0.00  0.00    +0.000 A 
BRANCH  13  26
ATOM     25  C   UNL     1       2.306   2.263  18.077  0.00  0.00    +0.000 C 
ATOM     26  C   UNL     1       3.377   3.248  17.630  0.00  0.00    +0.000 C 
ENDBRANCH  13  26
ENDBRANCH   1  20
BRANCH   6  27
ATOM     27  C   UNL     1      -2.629  12.529  21.268  0.00  0.00    +0.000 C 
ATOM     28  F   UNL     1      -3.755  12.301  21.987  0.00  0.00    +0.000 F 
ATOM     29  F   UNL     1      -2.839  13.697  20.607  0.00  0.00    +0.000 F 
ATOM     30  F   UNL     1      -2.574  11.553  20.337  0.00  0.00    +0.000 F 
ENDBRANCH   6  27
BRANCH   6  31
ATOM     31  O   UNL     1      -1.293  11.533  23.134  0.00  0.00    +0.000 OA
ATOM     32  H   UNL     1      -1.850  10.806  22.803  0.00  0.00    +0.000 HD
ENDBRANCH   6  31
TORSDOF 4
ENDMDL
MODEL 6
REMARK VINA RESULT:      -6.6      3.979      5.541
REMARK  Name = 
REMARK  5 active torsions:
REMARK  status: ('A' for Active; 'I' for Inactive)
REMARK    1  A    between atoms: C_1  and  C_2
REMARK    2  A    between atoms: C_2  and  C_3
REMARK    3  A    between atoms: C_10  and  C_11
REMARK    4  A    between atoms: C_16  and  O_17
REMARK    5  A    between atoms: C_16  and  C_18
REMARK                            x       y       z     vdW  Elec       q    Type
REMARK                         _______ _______ _______ _____ _____    ______ ____
ROOT
ATOM      1  C   UNL     1      -2.506  12.887  22.355  0.00  0.00    +0.000 A 
ATOM      2  N   UNL     1      -2.577  11.865  23.218  0.00  0.00    +0.000 NA
ATOM      3  N   UNL     1      -3.715  12.054  23.894  0.00  0.00    +0.000 N 
ATOM      4  C   UNL     1      -4.378  13.165  23.479  0.00  0.00    +0.000 A 
ATOM      5  C   UNL     1      -3.643  13.737  22.483  0.00  0.00    +0.000 A 
ATOM      6  C   UNL     1      -4.067  14.997  21.793  0.00  0.00    +0.000 C 
ATOM      7  C   UNL     1      -5.456  15.482  22.298  0.00  0.00    +0.000 C 
ATOM      8  C   UNL     1      -6.125  14.745  23.453  0.00  0.00    +0.000 C 
ATOM      9  O   UNL     1      -7.191  15.150  23.922  0.00  0.00    +0.000 OA
ATOM     10  N   UNL     1      -5.557  13.622  23.977  0.00  0.00    +0.000 N 
ATOM     11  H   UNL     1      -3.963  11.395  24.623  0.00  0.00    +0.000 HD
ATOM     12  H   UNL     1      -6.057  13.160  24.727  0.00  0.00    +0.000 HD
ENDROOT
BRANCH   1  20
ATOM     13  C   UNL     1       2.310   8.187  18.352  0.00  0.00    +0.000 A 
ATOM     14  C   UNL     1       2.092   7.882  19.692  0.00  0.00    +0.000 A 
ATOM     15  C   UNL     1       1.175   8.629  20.420  0.00  0.00    +0.000 A 
ATOM     16  C   UNL     1       0.480   9.675  19.814  0.00  0.00    +0.000 A 
ATOM     17  N   UNL     1      -0.396  10.450  20.537  0.00  0.00    +0.000 N 
ATOM     18  C   UNL     1      -1.558  11.035  19.877  0.00  0.00    +0.000 C 
ATOM     19  C   UNL     1      -1.550  12.556  20.009  0.00  0.00    +0.000 C 
ATOM     20  C   UNL     1      -1.302  13.032  21.448  0.00  0.00    +0.000 C 
ATOM     21  C   UNL     1      -0.053  12.355  22.026  0.00  0.00    +0.000 C 
ATOM     22  C   UNL     1      -0.104  10.834  21.910  0.00  0.00    +0.000 C 
ATOM     23  N   UNL     1       0.659   9.953  18.504  0.00  0.00    +0.000 NA
ATOM     24  C   UNL     1       1.565   9.226  17.814  0.00  0.00    +0.000 A 
BRANCH  13  26
ATOM     25  C   UNL     1       3.574   6.060  18.096  0.00  0.00    +0.000 C 
ATOM     26  C   UNL     1       3.346   7.462  17.551  0.00  0.00    +0.000 C 
ENDBRANCH  13  26
ENDBRANCH   1  20
BRANCH   6  27
ATOM     27  C   UNL     1      -2.995  16.139  21.954  0.00  0.00    +0.000 C 
ATOM     28  F   UNL     1      -2.120  16.179  20.920  0.00  0.00    +0.000 F 
ATOM     29  F   UNL     1      -3.595  17.358  21.981  0.00  0.00    +0.000 F 
ATOM     30  F   UNL     1      -2.249  16.042  23.075  0.00  0.00    +0.000 F 
ENDBRANCH   6  27
BRANCH   6  31
ATOM     31  O   UNL     1      -4.292  14.680  20.389  0.00  0.00    +0.000 OA
ATOM     32  H   UNL     1      -4.913  13.932  20.338  0.00  0.00    +0.000 HD
ENDBRANCH   6  31
TORSDOF 4
ENDMDL
MODEL 7
REMARK VINA RESULT:      -6.5      3.607      8.967
REMARK  Name = 
REMARK  5 active torsions:
REMARK  status: ('A' for Active; 'I' for Inactive)
REMARK    1  A    between atoms: C_1  and  C_2
REMARK    2  A    between atoms: C_2  and  C_3
REMARK    3  A    between atoms: C_10  and  C_11
REMARK    4  A    between atoms: C_16  and  O_17
REMARK    5  A    between atoms: C_16  and  C_18
REMARK                            x       y       z     vdW  Elec       q    Type
REMARK                         _______ _______ _______ _____ _____    ______ ____
ROOT
ATOM      1  C   UNL     1      -0.348  10.847  21.016  0.00  0.00    +0.000 A 
ATOM      2  N   UNL     1      -0.073  10.343  22.226  0.00  0.00    +0.000 NA
ATOM      3  N   UNL     1       0.745   9.310  21.999  0.00  0.00    +0.000 N 
ATOM      4  C   UNL     1       1.008   9.146  20.677  0.00  0.00    +0.000 A 
ATOM      5  C   UNL     1       0.330  10.115  19.998  0.00  0.00    +0.000 A 
ATOM      6  C   UNL     1       0.377  10.233  18.505  0.00  0.00    +0.000 C 
ATOM      7  C   UNL     1       1.346   9.187  17.883  0.00  0.00    +0.000 C 
ATOM      8  C   UNL     1       1.994   8.144  18.786  0.00  0.00    +0.000 C 
ATOM      9  O   UNL     1       2.707   7.259  18.311  0.00  0.00    +0.000 OA
ATOM     10  N   UNL     1       1.798   8.183  20.135  0.00  0.00    +0.000 N 
ATOM     11  H   UNL     1       1.070   8.765  22.789  0.00  0.00    +0.000 HD
ATOM     12  H   UNL     1       2.272   7.480  20.689  0.00  0.00    +0.000 HD
ENDROOT
BRANCH   1  20
ATOM     13  C   UNL     1      -2.121  17.365  24.974  0.00  0.00    +0.000 A 
ATOM     14  C   UNL     1      -2.084  16.174  25.693  0.00  0.00    +0.000 A 
ATOM     15  C   UNL     1      -1.684  15.007  25.056  0.00  0.00    +0.000 A 
ATOM     16  C   UNL     1      -1.324  15.027  23.710  0.00  0.00    +0.000 A 
ATOM     17  N   UNL     1      -0.971  13.868  23.058  0.00  0.00    +0.000 N 
ATOM     18  C   UNL     1      -0.004  13.919  21.966  0.00  0.00    +0.000 C 
ATOM     19  C   UNL     1      -0.609  13.366  20.679  0.00  0.00    +0.000 C 
ATOM     20  C   UNL     1      -1.306  12.011  20.878  0.00  0.00    +0.000 C 
ATOM     21  C   UNL     1      -2.299  12.089  22.044  0.00  0.00    +0.000 C 
ATOM     22  C   UNL     1      -1.659  12.615  23.325  0.00  0.00    +0.000 C 
ATOM     23  N   UNL     1      -1.322  16.186  23.015  0.00  0.00    +0.000 NA
ATOM     24  C   UNL     1      -1.728  17.310  23.645  0.00  0.00    +0.000 A 
BRANCH  13  26
ATOM     25  C   UNL     1      -4.142  18.630  25.682  0.00  0.00    +0.000 C 
ATOM     26  C   UNL     1      -2.623  18.631  25.596  0.00  0.00    +0.000 C 
ENDBRANCH  13  26
ENDBRANCH   1  20
BRANCH   6  27
ATOM     27  C   UNL     1      -1.055  10.104  17.865  0.00  0.00    +0.000 C 
ATOM     28  F   UNL     1      -1.954   9.544  18.710  0.00  0.00    +0.000 F 
ATOM     29  F   UNL     1      -1.551  11.330  17.552  0.00  0.00    +0.000 F 
ATOM     30  F   UNL     1      -1.090   9.365  16.735  0.00  0.00    +0.000 F 
ENDBRANCH   6  27
BRANCH   6  31
ATOM     31  O   UNL     1       0.987  11.516  18.180  0.00  0.00    +0.000 OA
ATOM     32  H   UNL     1       1.731  11.666  18.789  0.00  0.00    +0.000 HD
ENDBRANCH   6  31
TORSDOF 4
ENDMDL
MODEL 8
REMARK VINA RESULT:      -6.5      4.116      9.181
REMARK  Name = 
REMARK  5 active torsions:
REMARK  status: ('A' for Active; 'I' for Inactive)
REMARK    1  A    between atoms: C_1  and  C_2
REMARK    2  A    between atoms: C_2  and  C_3
REMARK    3  A    between atoms: C_10  and  C_11
REMARK    4  A    between atoms: C_16  and  O_17
REMARK    5  A    between atoms: C_16  and  C_18
REMARK                            x       y       z     vdW  Elec       q    Type
REMARK                         _______ _______ _______ _____ _____    ______ ____
ROOT
ATOM      1  C   UNL     1      -0.096  11.364  21.518  0.00  0.00    +0.000 A 
ATOM      2  N   UNL     1      -0.186  11.032  22.813  0.00  0.00    +0.000 NA
ATOM      3  N   UNL     1       0.337   9.803  22.897  0.00  0.00    +0.000 N 
ATOM      4  C   UNL     1       0.767   9.346  21.692  0.00  0.00    +0.000 A 
ATOM      5  C   UNL     1       0.516  10.317  20.768  0.00  0.00    +0.000 A 
ATOM      6  C   UNL     1       0.850  10.153  19.318  0.00  0.00    +0.000 C 
ATOM      7  C   UNL     1       1.579   8.805  19.052  0.00  0.00    +0.000 C 
ATOM      8  C   UNL     1       1.743   7.811  20.195  0.00  0.00    +0.000 C 
ATOM      9  O   UNL     1       2.251   6.705  19.998  0.00  0.00    +0.000 OA
ATOM     10  N   UNL     1       1.337   8.136  21.456  0.00  0.00    +0.000 N 
ATOM     11  H   UNL     1       0.355   9.343  23.800  0.00  0.00    +0.000 HD
ATOM     12  H   UNL     1       1.491   7.446  22.181  0.00  0.00    +0.000 HD
ENDROOT
BRANCH   1  20
ATOM     13  C   UNL     1      -5.323  16.666  23.941  0.00  0.00    +0.000 A 
ATOM     14  C   UNL     1      -5.731  15.337  23.915  0.00  0.00    +0.000 A 
ATOM     15  C   UNL     1      -4.813  14.349  23.582  0.00  0.00    +0.000 A 
ATOM     16  C   UNL     1      -3.495  14.687  23.277  0.00  0.00    +0.000 A 
ATOM     17  N   UNL     1      -2.590  13.721  22.901  0.00  0.00    +0.000 N 
ATOM     18  C   UNL     1      -1.178  13.890  23.225  0.00  0.00    +0.000 C 
ATOM     19  C   UNL     1      -0.324  13.870  21.960  0.00  0.00    +0.000 C 
ATOM     20  C   UNL     1      -0.650  12.688  21.035  0.00  0.00    +0.000 C 
ATOM     21  C   UNL     1      -2.158  12.623  20.764  0.00  0.00    +0.000 C 
ATOM     22  C   UNL     1      -2.985  12.612  22.047  0.00  0.00    +0.000 C 
ATOM     23  N   UNL     1      -3.082  15.972  23.336  0.00  0.00    +0.000 NA
ATOM     24  C   UNL     1      -3.992  16.922  23.647  0.00  0.00    +0.000 A 
BRANCH  13  26
ATOM     25  C   UNL     1      -6.951  18.250  22.927  0.00  0.00    +0.000 C 
ATOM     26  C   UNL     1      -6.296  17.771  24.214  0.00  0.00    +0.000 C 
ENDBRANCH  13  26
ENDBRANCH   1  20
BRANCH   6  27
ATOM     27  C   UNL     1      -0.428  10.276  18.407  0.00  0.00    +0.000 C 
ATOM     28  F   UNL     1      -0.346   9.511  17.291  0.00  0.00    +0.000 F 
ATOM     29  F   UNL     1      -1.533   9.847  19.072  0.00  0.00    +0.000 F 
ATOM     30  F   UNL     1      -0.686  11.532  17.983  0.00  0.00    +0.000 F 
ENDBRANCH   6  27
BRANCH   6  31
ATOM     31  O   UNL     1       1.841  11.164  18.973  0.00  0.00    +0.000 OA
ATOM     32  H   UNL     1       2.687  10.921  19.390  0.00  0.00    +0.000 HD
ENDBRANCH   6  31
TORSDOF 4
ENDMDL
MODEL 9
REMARK VINA RESULT:      -6.5      2.722      3.787
REMARK  Name = 
REMARK  5 active torsions:
REMARK  status: ('A' for Active; 'I' for Inactive)
REMARK    1  A    between atoms: C_1  and  C_2
REMARK    2  A    between atoms: C_2  and  C_3
REMARK    3  A    between atoms: C_10  and  C_11
REMARK    4  A    between atoms: C_16  and  O_17
REMARK    5  A    between atoms: C_16  and  C_18
REMARK                            x       y       z     vdW  Elec       q    Type
REMARK                         _______ _______ _______ _____ _____    ______ ____
ROOT
ATOM      1  C   UNL     1      -1.646  13.428  20.307  0.00  0.00    +0.000 A 
ATOM      2  N   UNL     1      -0.792  13.955  19.420  0.00  0.00    +0.000 NA
ATOM      3  N   UNL     1      -0.928  15.280  19.547  0.00  0.00    +0.000 N 
ATOM      4  C   UNL     1      -1.839  15.613  20.499  0.00  0.00    +0.000 A 
ATOM      5  C   UNL     1      -2.329  14.454  21.024  0.00  0.00    +0.000 A 
ATOM      6  C   UNL     1      -3.372  14.436  22.099  0.00  0.00    +0.000 C 
ATOM      7  C   UNL     1      -3.727  15.876  22.569  0.00  0.00    +0.000 C 
ATOM      8  C   UNL     1      -3.115  17.067  21.842  0.00  0.00    +0.000 C 
ATOM      9  O   UNL     1      -3.434  18.219  22.145  0.00  0.00    +0.000 OA
ATOM     10  N   UNL     1      -2.197  16.874  20.853  0.00  0.00    +0.000 N 
ATOM     11  H   UNL     1      -0.378  15.885  18.948  0.00  0.00    +0.000 HD
ATOM     12  H   UNL     1      -1.806  17.702  20.420  0.00  0.00    +0.000 HD
ENDROOT
BRANCH   1  20
ATOM     13  C   UNL     1       2.597   7.051  18.684  0.00  0.00    +0.000 A 
ATOM     14  C   UNL     1       2.482   8.011  17.683  0.00  0.00    +0.000 A 
ATOM     15  C   UNL     1       1.819   9.201  17.953  0.00  0.00    +0.000 A 
ATOM     16  C   UNL     1       1.273   9.431  19.215  0.00  0.00    +0.000 A 
ATOM     17  N   UNL     1       0.574  10.586  19.479  0.00  0.00    +0.000 N 
ATOM     18  C   UNL     1       0.591  11.149  20.825  0.00  0.00    +0.000 C 
ATOM     19  C   UNL     1      -0.826  11.261  21.384  0.00  0.00    +0.000 C 
ATOM     20  C   UNL     1      -1.806  11.925  20.405  0.00  0.00    +0.000 C 
ATOM     21  C   UNL     1      -1.735  11.242  19.034  0.00  0.00    +0.000 C 
ATOM     22  C   UNL     1      -0.313  11.172  18.486  0.00  0.00    +0.000 C 
ATOM     23  N   UNL     1       1.412   8.520  20.203  0.00  0.00    +0.000 NA
ATOM     24  C   UNL     1       2.048   7.362  19.919  0.00  0.00    +0.000 A 
BRANCH  13  26
ATOM     25  C   UNL     1       2.190   4.697  17.995  0.00  0.00    +0.000 C 
ATOM     26  C   UNL     1       3.232   5.722  18.415  0.00  0.00    +0.000 C 
ENDBRANCH  13  26
ENDBRANCH   1  20
BRANCH   6  27
ATOM     27  C   UNL     1      -4.669  13.672  21.640  0.00  0.00    +0.000 C 
ATOM     28  F   UNL     1      -4.829  13.681  20.295  0.00  0.00    +0.000 F 
ATOM     29  F   UNL     1      -4.606  12.363  22.000  0.00  0.00    +0.000 F 
ATOM     30  F   UNL     1      -5.814  14.168  22.158  0.00  0.00    +0.000 F 
ENDBRANCH   6  27
BRANCH   6  31
ATOM     31  O   UNL     1      -2.784  13.814  23.279  0.00  0.00    +0.000 OA
ATOM     32  H   UNL     1      -1.976  13.342  23.007  0.00  0.00    +0.000 HD
ENDBRANCH   6  31
TORSDOF 4
ENDMDL
