MODEL 1
REMARK VINA RESULT:      -8.9      0.000      0.000
REMARK  Name = 
REMARK  5 active torsions:
REMARK  status: ('A' for Active; 'I' for Inactive)
REMARK    1  A    between atoms: C_1  and  C_2
REMARK    2  A    between atoms: N_5  and  C_6
REMARK    3  A    between atoms: C_8  and  C_9
REMARK    4  A    between atoms: C_17  and  C_18
REMARK    5  A    between atoms: N_21  and  C_22
REMARK                            x       y       z     vdW  Elec       q    Type
REMARK                         _______ _______ _______ _____ _____    ______ ____
ROOT
ATOM      1  C   UNL     1       5.519   4.319  16.351  0.00  0.00    +0.000 A 
ATOM      2  C   UNL     1       5.031   3.272  17.028  0.00  0.00    +0.000 A 
ATOM      3  C   UNL     1       3.978   3.518  18.055  0.00  0.00    +0.000 A 
ATOM      4  N   UNL     1       3.506   4.702  18.331  0.00  0.00    +0.000 NA
ATOM      5  C   UNL     1       4.014   5.760  17.621  0.00  0.00    +0.000 A 
ATOM      6  C   UNL     1       3.688   7.101  17.588  0.00  0.00    +0.000 A 
ATOM      7  C   UNL     1       4.554   7.670  16.638  0.00  0.00    +0.000 A 
ATOM      8  N   UNL     1       5.390   6.784  16.097  0.00  0.00    +0.000 NA
ATOM      9  N   UNL     1       5.030   5.601  16.671  0.00  0.00    +0.000 N 
ENDROOT
BRANCH   1  14
ATOM     10  C   UNL     1       4.090   3.254  11.059  0.00  0.00    +0.000 C 
ATOM     11  C   UNL     1       5.020   3.483  12.176  0.00  0.00    +0.000 A 
ATOM     12  C   UNL     1       4.849   3.688  13.518  0.00  0.00    +0.000 A 
ATOM     13  C   UNL     1       6.157   3.895  14.025  0.00  0.00    +0.000 A 
ATOM     14  N   UNL     1       6.445   4.204  15.319  0.00  0.00    +0.000 N 
ATOM     15  N   UNL     1       7.058   3.812  13.041  0.00  0.00    +0.000 NA
ATOM     16  O   UNL     1       6.345   3.539  11.886  0.00  0.00    +0.000 OA
ATOM     17  H   UNL     1       7.246   4.825  15.438  0.00  0.00    +0.000 HD
ENDBRANCH   1  14
BRANCH   3  18
ATOM     18  C   UNL     1       3.383   2.312  18.800  0.00  0.00    +0.000 C 
ATOM     19  C   UNL     1       1.923   2.012  18.441  0.00  0.00    +0.000 C 
ATOM     20  C   UNL     1       0.907   2.853  19.215  0.00  0.00    +0.000 C 
ATOM     21  C   UNL     1       1.250   2.985  20.701  0.00  0.00    +0.000 C 
ATOM     22  N   UNL     1       2.642   3.372  20.938  0.00  0.00    +0.000 NA
ATOM     23  C   UNL     1       3.578   2.431  20.315  0.00  0.00    +0.000 C 
ATOM     24  H   UNL     1       2.811   3.390  21.945  0.00  0.00    +0.000 HD
ENDBRANCH   3  18
BRANCH   6  25
ATOM     25  C   UNL     1       2.673   7.814  18.342  0.00  0.00    +0.000 A 
ATOM     26  C   UNL     1       2.270   7.544  19.666  0.00  0.00    +0.000 A 
ATOM     27  N   UNL     1       1.326   8.391  20.092  0.00  0.00    +0.000 NA
ATOM     28  N   UNL     1       1.135   9.204  19.039  0.00  0.00    +0.000 N 
ATOM     29  C   UNL     1       0.214  10.310  19.137  0.00  0.00    +0.000 C 
ATOM     30  C   UNL     1       1.902   8.887  17.955  0.00  0.00    +0.000 A 
ENDBRANCH   6  25
TORSDOF 3
ENDMDL
MODEL 2
REMARK VINA RESULT:      -7.8      2.604      4.228
REMARK  Name = 
REMARK  5 active torsions:
REMARK  status: ('A' for Active; 'I' for Inactive)
REMARK    1  A    between atoms: C_1  and  C_2
REMARK    2  A    between atoms: N_5  and  C_6
REMARK    3  A    between atoms: C_8  and  C_9
REMARK    4  A    between atoms: C_17  and  C_18
REMARK    5  A    between atoms: N_21  and  C_22
REMARK                            x       y       z     vdW  Elec       q    Type
REMARK                         _______ _______ _______ _____ _____    ______ ____
ROOT
ATOM      1  C   UNL     1       2.827   7.026  18.243  0.00  0.00    +0.000 A 
ATOM      2  C   UNL     1       2.685   5.865  18.893  0.00  0.00    +0.000 A 
ATOM      3  C   UNL     1       1.945   5.861  20.188  0.00  0.00    +0.000 A 
ATOM      4  N   UNL     1       1.428   6.933  20.724  0.00  0.00    +0.000 NA
ATOM      5  C   UNL     1       1.579   8.111  20.037  0.00  0.00    +0.000 A 
ATOM      6  C   UNL     1       1.094   9.384  20.258  0.00  0.00    +0.000 A 
ATOM      7  C   UNL     1       1.577  10.156  19.186  0.00  0.00    +0.000 A 
ATOM      8  N   UNL     1       2.328   9.456  18.336  0.00  0.00    +0.000 NA
ATOM      9  N   UNL     1       2.294   8.188  18.837  0.00  0.00    +0.000 N 
ENDROOT
BRANCH   1  14
ATOM     10  C   UNL     1       7.657   4.548  16.936  0.00  0.00    +0.000 C 
ATOM     11  C   UNL     1       6.489   5.413  16.706  0.00  0.00    +0.000 A 
ATOM     12  C   UNL     1       5.431   5.794  17.484  0.00  0.00    +0.000 A 
ATOM     13  C   UNL     1       4.628   6.601  16.638  0.00  0.00    +0.000 A 
ATOM     14  N   UNL     1       3.429   7.140  16.994  0.00  0.00    +0.000 N 
ATOM     15  N   UNL     1       5.180   6.700  15.425  0.00  0.00    +0.000 NA
ATOM     16  O   UNL     1       6.354   5.968  15.474  0.00  0.00    +0.000 OA
ATOM     17  H   UNL     1       2.750   7.201  16.234  0.00  0.00    +0.000 HD
ENDBRANCH   1  14
BRANCH   3  18
ATOM     18  C   UNL     1       1.739   4.522  20.913  0.00  0.00    +0.000 C 
ATOM     19  C   UNL     1       3.022   3.703  21.094  0.00  0.00    +0.000 C 
ATOM     20  C   UNL     1       3.399   2.860  19.874  0.00  0.00    +0.000 C 
ATOM     21  C   UNL     1       2.197   2.151  19.245  0.00  0.00    +0.000 C 
ATOM     22  N   UNL     1       1.056   3.039  19.021  0.00  0.00    +0.000 NA
ATOM     23  C   UNL     1       0.627   3.692  20.262  0.00  0.00    +0.000 C 
ATOM     24  H   UNL     1       0.279   2.490  18.651  0.00  0.00    +0.000 HD
ENDBRANCH   3  18
BRANCH   6  25
ATOM     25  C   UNL     1       0.255   9.870  21.339  0.00  0.00    +0.000 A 
ATOM     26  C   UNL     1       0.286   9.436  22.680  0.00  0.00    +0.000 A 
ATOM     27  N   UNL     1      -0.597  10.090  23.445  0.00  0.00    +0.000 NA
ATOM     28  N   UNL     1      -1.183  10.944  22.588  0.00  0.00    +0.000 N 
ATOM     29  C   UNL     1      -2.170  11.883  23.064  0.00  0.00    +0.000 C 
ATOM     30  C   UNL     1      -0.724  10.837  21.307  0.00  0.00    +0.000 A 
ENDBRANCH   6  25
TORSDOF 3
ENDMDL
MODEL 3
REMARK VINA RESULT:      -7.6      1.367      1.760
REMARK  Name = 
REMARK  5 active torsions:
REMARK  status: ('A' for Active; 'I' for Inactive)
REMARK    1  A    between atoms: C_1  and  C_2
REMARK    2  A    between atoms: N_5  and  C_6
REMARK    3  A    between atoms: C_8  and  C_9
REMARK    4  A    between atoms: C_17  and  C_18
REMARK    5  A    between atoms: N_21  and  C_22
REMARK                            x       y       z     vdW  Elec       q    Type
REMARK                         _______ _______ _______ _____ _____    ______ ____
ROOT
ATOM      1  C   UNL     1       4.812   5.562  17.280  0.00  0.00    +0.000 A 
ATOM      2  C   UNL     1       4.161   4.460  17.673  0.00  0.00    +0.000 A 
ATOM      3  C   UNL     1       2.835   4.617  18.338  0.00  0.00    +0.000 A 
ATOM      4  N   UNL     1       2.274   5.774  18.559  0.00  0.00    +0.000 NA
ATOM      5  C   UNL     1       2.955   6.890  18.142  0.00  0.00    +0.000 A 
ATOM      6  C   UNL     1       2.625   8.229  18.131  0.00  0.00    +0.000 A 
ATOM      7  C   UNL     1       3.731   8.879  17.554  0.00  0.00    +0.000 A 
ATOM      8  N   UNL     1       4.713   8.041  17.222  0.00  0.00    +0.000 NA
ATOM      9  N   UNL     1       4.218   6.812  17.546  0.00  0.00    +0.000 N 
ENDROOT
BRANCH   1  14
ATOM     10  C   UNL     1       5.353   3.338  12.186  0.00  0.00    +0.000 C 
ATOM     11  C   UNL     1       5.820   3.979  13.426  0.00  0.00    +0.000 A 
ATOM     12  C   UNL     1       5.203   4.339  14.592  0.00  0.00    +0.000 A 
ATOM     13  C   UNL     1       6.215   4.963  15.364  0.00  0.00    +0.000 A 
ATOM     14  N   UNL     1       6.015   5.536  16.583  0.00  0.00    +0.000 N 
ATOM     15  N   UNL     1       7.374   4.969  14.698  0.00  0.00    +0.000 NA
ATOM     16  O   UNL     1       7.129   4.338  13.490  0.00  0.00    +0.000 OA
ATOM     17  H   UNL     1       6.592   6.359  16.764  0.00  0.00    +0.000 HD
ENDBRANCH   1  14
BRANCH   3  18
ATOM     18  C   UNL     1       2.064   3.352  18.748  0.00  0.00    +0.000 C 
ATOM     19  C   UNL     1       0.975   3.593  19.799  0.00  0.00    +0.000 C 
ATOM     20  C   UNL     1       1.493   3.611  21.238  0.00  0.00    +0.000 C 
ATOM     21  C   UNL     1       2.506   2.499  21.521  0.00  0.00    +0.000 C 
ATOM     22  N   UNL     1       3.563   2.412  20.512  0.00  0.00    +0.000 NA
ATOM     23  C   UNL     1       3.012   2.223  19.167  0.00  0.00    +0.000 C 
ATOM     24  H   UNL     1       4.168   1.621  20.737  0.00  0.00    +0.000 HD
ENDBRANCH   3  18
BRANCH   6  25
ATOM     25  C   UNL     1       1.410   8.877  18.592  0.00  0.00    +0.000 A 
ATOM     26  C   UNL     1       1.009   9.045  19.933  0.00  0.00    +0.000 A 
ATOM     27  N   UNL     1      -0.152   9.701  20.037  0.00  0.00    +0.000 NA
ATOM     28  N   UNL     1      -0.485   9.956  18.760  0.00  0.00    +0.000 N 
ATOM     29  C   UNL     1      -1.671  10.720  18.460  0.00  0.00    +0.000 C 
ATOM     30  C   UNL     1       0.408   9.462  17.852  0.00  0.00    +0.000 A 
ENDBRANCH   6  25
TORSDOF 3
ENDMDL
MODEL 4
REMARK VINA RESULT:      -7.6      1.343      1.673
REMARK  Name = 
REMARK  5 active torsions:
REMARK  status: ('A' for Active; 'I' for Inactive)
REMARK    1  A    between atoms: C_1  and  C_2
REMARK    2  A    between atoms: N_5  and  C_6
REMARK    3  A    between atoms: C_8  and  C_9
REMARK    4  A    between atoms: C_17  and  C_18
REMARK    5  A    between atoms: N_21  and  C_22
REMARK                            x       y       z     vdW  Elec       q    Type
REMARK                         _______ _______ _______ _____ _____    ______ ____
ROOT
ATOM      1  C   UNL     1       5.363   5.291  17.852  0.00  0.00    +0.000 A 
ATOM      2  C   UNL     1       4.903   4.322  18.652  0.00  0.00    +0.000 A 
ATOM      3  C   UNL     1       3.665   4.581  19.443  0.00  0.00    +0.000 A 
ATOM      4  N   UNL     1       3.004   5.705  19.396  0.00  0.00    +0.000 NA
ATOM      5  C   UNL     1       3.489   6.682  18.564  0.00  0.00    +0.000 A 
ATOM      6  C   UNL     1       3.005   7.924  18.208  0.00  0.00    +0.000 A 
ATOM      7  C   UNL     1       3.943   8.441  17.296  0.00  0.00    +0.000 A 
ATOM      8  N   UNL     1       4.966   7.615  17.077  0.00  0.00    +0.000 NA
ATOM      9  N   UNL     1       4.666   6.515  17.825  0.00  0.00    +0.000 N 
ENDROOT
BRANCH   1  14
ATOM     10  C   UNL     1       4.944   3.634  12.536  0.00  0.00    +0.000 C 
ATOM     11  C   UNL     1       5.649   4.029  13.765  0.00  0.00    +0.000 A 
ATOM     12  C   UNL     1       5.235   4.350  15.028  0.00  0.00    +0.000 A 
ATOM     13  C   UNL     1       6.422   4.689  15.727  0.00  0.00    +0.000 A 
ATOM     14  N   UNL     1       6.462   5.138  17.012  0.00  0.00    +0.000 N 
ATOM     15  N   UNL     1       7.485   4.571  14.926  0.00  0.00    +0.000 NA
ATOM     16  O   UNL     1       7.001   4.142  13.701  0.00  0.00    +0.000 OA
ATOM     17  H   UNL     1       7.199   5.818  17.200  0.00  0.00    +0.000 HD
ENDBRANCH   1  14
BRANCH   3  18
ATOM     18  C   UNL     1       3.108   3.453  20.326  0.00  0.00    +0.000 C 
ATOM     19  C   UNL     1       2.939   2.113  19.601  0.00  0.00    +0.000 C 
ATOM     20  C   UNL     1       1.634   1.993  18.814  0.00  0.00    +0.000 C 
ATOM     21  C   UNL     1       0.423   2.532  19.579  0.00  0.00    +0.000 C 
ATOM     22  N   UNL     1       0.649   3.860  20.151  0.00  0.00    +0.000 NA
ATOM     23  C   UNL     1       1.818   3.876  21.036  0.00  0.00    +0.000 C 
ATOM     24  H   UNL     1      -0.177   4.132  20.688  0.00  0.00    +0.000 HD
ENDBRANCH   3  18
BRANCH   6  25
ATOM     25  C   UNL     1       1.791   8.593  18.643  0.00  0.00    +0.000 A 
ATOM     26  C   UNL     1       1.321   8.692  19.968  0.00  0.00    +0.000 A 
ATOM     27  N   UNL     1       0.182   9.390  20.051  0.00  0.00    +0.000 NA
ATOM     28  N   UNL     1      -0.066   9.740  18.777  0.00  0.00    +0.000 N 
ATOM     29  C   UNL     1      -1.202  10.572  18.462  0.00  0.00    +0.000 C 
ATOM     30  C   UNL     1       0.858   9.267  17.889  0.00  0.00    +0.000 A 
ENDBRANCH   6  25
TORSDOF 3
ENDMDL
MODEL 5
REMARK VINA RESULT:      -7.3      2.885      6.650
REMARK  Name = 
REMARK  5 active torsions:
REMARK  status: ('A' for Active; 'I' for Inactive)
REMARK    1  A    between atoms: C_1  and  C_2
REMARK    2  A    between atoms: N_5  and  C_6
REMARK    3  A    between atoms: C_8  and  C_9
REMARK    4  A    between atoms: C_17  and  C_18
REMARK    5  A    between atoms: N_21  and  C_22
REMARK                            x       y       z     vdW  Elec       q    Type
REMARK                         _______ _______ _______ _____ _____    ______ ____
ROOT
ATOM      1  C   UNL     1       2.234   7.140  19.594  0.00  0.00    +0.000 A 
ATOM      2  C   UNL     1       1.881   5.925  20.032  0.00  0.00    +0.000 A 
ATOM      3  C   UNL     1       2.452   4.729  19.348  0.00  0.00    +0.000 A 
ATOM      4  N   UNL     1       3.280   4.803  18.342  0.00  0.00    +0.000 NA
ATOM      5  C   UNL     1       3.634   6.058  17.914  0.00  0.00    +0.000 A 
ATOM      6  C   UNL     1       4.533   6.496  16.963  0.00  0.00    +0.000 A 
ATOM      7  C   UNL     1       4.464   7.900  17.006  0.00  0.00    +0.000 A 
ATOM      8  N   UNL     1       3.585   8.351  17.901  0.00  0.00    +0.000 NA
ATOM      9  N   UNL     1       3.104   7.218  18.488  0.00  0.00    +0.000 N 
ENDROOT
BRANCH   1  14
ATOM     10  C   UNL     1      -1.631  10.526  17.408  0.00  0.00    +0.000 C 
ATOM     11  C   UNL     1      -0.609  10.110  18.382  0.00  0.00    +0.000 A 
ATOM     12  C   UNL     1       0.231   9.034  18.466  0.00  0.00    +0.000 A 
ATOM     13  C   UNL     1       0.929   9.211  19.687  0.00  0.00    +0.000 A 
ATOM     14  N   UNL     1       1.827   8.325  20.200  0.00  0.00    +0.000 N 
ATOM     15  N   UNL     1       0.532  10.333  20.295  0.00  0.00    +0.000 NA
ATOM     16  O   UNL     1      -0.421  10.904  19.468  0.00  0.00    +0.000 OA
ATOM     17  H   UNL     1       1.831   8.267  21.219  0.00  0.00    +0.000 HD
ENDBRANCH   1  14
BRANCH   3  18
ATOM     18  C   UNL     1       2.085   3.334  19.879  0.00  0.00    +0.000 C 
ATOM     19  C   UNL     1       3.194   2.664  20.699  0.00  0.00    +0.000 C 
ATOM     20  C   UNL     1       4.245   1.945  19.852  0.00  0.00    +0.000 C 
ATOM     21  C   UNL     1       3.635   1.136  18.705  0.00  0.00    +0.000 C 
ATOM     22  N   UNL     1       2.661   1.895  17.920  0.00  0.00    +0.000 NA
ATOM     23  C   UNL     1       1.579   2.418  18.760  0.00  0.00    +0.000 C 
ATOM     24  H   UNL     1       2.260   1.280  17.209  0.00  0.00    +0.000 HD
ENDBRANCH   3  18
BRANCH   6  25
ATOM     25  C   UNL     1       5.396   5.718  16.091  0.00  0.00    +0.000 A 
ATOM     26  C   UNL     1       6.740   5.372  16.337  0.00  0.00    +0.000 A 
ATOM     27  N   UNL     1       7.261   4.629  15.353  0.00  0.00    +0.000 NA
ATOM     28  N   UNL     1       6.242   4.498  14.486  0.00  0.00    +0.000 N 
ATOM     29  C   UNL     1       6.401   3.693  13.299  0.00  0.00    +0.000 C 
ATOM     30  C   UNL     1       5.106   5.152  14.871  0.00  0.00    +0.000 A 
ENDBRANCH   6  25
TORSDOF 3
ENDMDL
MODEL 6
REMARK VINA RESULT:      -7.2      2.938      6.816
REMARK  Name = 
REMARK  5 active torsions:
REMARK  status: ('A' for Active; 'I' for Inactive)
REMARK    1  A    between atoms: C_1  and  C_2
REMARK    2  A    between atoms: N_5  and  C_6
REMARK    3  A    between atoms: C_8  and  C_9
REMARK    4  A    between atoms: C_17  and  C_18
REMARK    5  A    between atoms: N_21  and  C_22
REMARK                            x       y       z     vdW  Elec       q    Type
REMARK                         _______ _______ _______ _____ _____    ______ ____
ROOT
ATOM      1  C   UNL     1       1.808   7.604  19.919  0.00  0.00    +0.000 A 
ATOM      2  C   UNL     1       1.353   6.480  20.488  0.00  0.00    +0.000 A 
ATOM      3  C   UNL     1       1.790   5.170  19.924  0.00  0.00    +0.000 A 
ATOM      4  N   UNL     1       2.595   5.060  18.903  0.00  0.00    +0.000 NA
ATOM      5  C   UNL     1       3.055   6.223  18.339  0.00  0.00    +0.000 A 
ATOM      6  C   UNL     1       3.967   6.471  17.334  0.00  0.00    +0.000 A 
ATOM      7  C   UNL     1       4.032   7.872  17.230  0.00  0.00    +0.000 A 
ATOM      8  N   UNL     1       3.223   8.497  18.086  0.00  0.00    +0.000 NA
ATOM      9  N   UNL     1       2.653   7.483  18.797  0.00  0.00    +0.000 N 
ENDROOT
BRANCH   1  14
ATOM     10  C   UNL     1      -1.956  11.010  17.593  0.00  0.00    +0.000 C 
ATOM     11  C   UNL     1      -0.898  10.630  18.543  0.00  0.00    +0.000 A 
ATOM     12  C   UNL     1      -0.133   9.508  18.702  0.00  0.00    +0.000 A 
ATOM     13  C   UNL     1       0.663   9.767  19.846  0.00  0.00    +0.000 A 
ATOM     14  N   UNL     1       1.531   8.878  20.403  0.00  0.00    +0.000 N 
ATOM     15  N   UNL     1       0.392  10.980  20.339  0.00  0.00    +0.000 NA
ATOM     16  O   UNL     1      -0.576  11.525  19.512  0.00  0.00    +0.000 OA
ATOM     17  H   UNL     1       1.604   8.937  21.419  0.00  0.00    +0.000 HD
ENDBRANCH   1  14
BRANCH   3  18
ATOM     18  C   UNL     1       1.307   3.880  20.605  0.00  0.00    +0.000 C 
ATOM     19  C   UNL     1       2.362   3.203  21.487  0.00  0.00    +0.000 C 
ATOM     20  C   UNL     1       3.331   2.304  20.718  0.00  0.00    +0.000 C 
ATOM     21  C   UNL     1       2.635   1.436  19.668  0.00  0.00    +0.000 C 
ATOM     22  N   UNL     1       1.721   2.192  18.810  0.00  0.00    +0.000 NA
ATOM     23  C   UNL     1       0.704   2.899  19.594  0.00  0.00    +0.000 C 
ATOM     24  H   UNL     1       1.256   1.544  18.172  0.00  0.00    +0.000 HD
ENDBRANCH   3  18
BRANCH   6  25
ATOM     25  C   UNL     1       4.729   5.528  16.535  0.00  0.00    +0.000 A 
ATOM     26  C   UNL     1       5.013   4.188  16.869  0.00  0.00    +0.000 A 
ATOM     27  N   UNL     1       5.720   3.567  15.918  0.00  0.00    +0.000 NA
ATOM     28  N   UNL     1       5.877   4.513  14.975  0.00  0.00    +0.000 N 
ATOM     29  C   UNL     1       6.551   4.197  13.739  0.00  0.00    +0.000 C 
ATOM     30  C   UNL     1       5.321   5.715  15.307  0.00  0.00    +0.000 A 
ENDBRANCH   6  25
TORSDOF 3
ENDMDL
MODEL 7
REMARK VINA RESULT:      -7.2      5.699     11.201
REMARK  Name = 
REMARK  5 active torsions:
REMARK  status: ('A' for Active; 'I' for Inactive)
REMARK    1  A    between atoms: C_1  and  C_2
REMARK    2  A    between atoms: N_5  and  C_6
REMARK    3  A    between atoms: C_8  and  C_9
REMARK    4  A    between atoms: C_17  and  C_18
REMARK    5  A    between atoms: N_21  and  C_22
REMARK                            x       y       z     vdW  Elec       q    Type
REMARK                         _______ _______ _______ _____ _____    ______ ____
ROOT
ATOM      1  C   UNL     1      -2.075  12.762  20.087  0.00  0.00    +0.000 A 
ATOM      2  C   UNL     1      -3.029  12.269  19.287  0.00  0.00    +0.000 A 
ATOM      3  C   UNL     1      -2.726  11.044  18.491  0.00  0.00    +0.000 A 
ATOM      4  N   UNL     1      -1.579  10.426  18.531  0.00  0.00    +0.000 NA
ATOM      5  C   UNL     1      -0.617  10.943  19.363  0.00  0.00    +0.000 A 
ATOM      6  C   UNL     1       0.643  10.504  19.714  0.00  0.00    +0.000 A 
ATOM      7  C   UNL     1       1.127  11.456  20.628  0.00  0.00    +0.000 A 
ATOM      8  N   UNL     1       0.264  12.448  20.853  0.00  0.00    +0.000 NA
ATOM      9  N   UNL     1      -0.826  12.110  20.107  0.00  0.00    +0.000 N 
ENDROOT
BRANCH   1  14
ATOM     10  C   UNL     1      -4.655  12.387  25.025  0.00  0.00    +0.000 C 
ATOM     11  C   UNL     1      -3.990  13.078  23.909  0.00  0.00    +0.000 A 
ATOM     12  C   UNL     1      -3.496  12.663  22.703  0.00  0.00    +0.000 A 
ATOM     13  C   UNL     1      -2.932  13.826  22.119  0.00  0.00    +0.000 A 
ATOM     14  N   UNL     1      -2.266  13.850  20.932  0.00  0.00    +0.000 N 
ATOM     15  N   UNL     1      -3.085  14.877  22.930  0.00  0.00    +0.000 NA
ATOM     16  O   UNL     1      -3.762  14.411  24.045  0.00  0.00    +0.000 OA
ATOM     17  H   UNL     1      -1.497  14.520  20.891  0.00  0.00    +0.000 HD
ENDBRANCH   1  14
BRANCH   3  18
ATOM     18  C   UNL     1      -3.835  10.450  17.608  0.00  0.00    +0.000 C 
ATOM     19  C   UNL     1      -3.438   9.156  16.888  0.00  0.00    +0.000 C 
ATOM     20  C   UNL     1      -2.671   9.381  15.584  0.00  0.00    +0.000 C 
ATOM     21  C   UNL     1      -3.263  10.504  14.730  0.00  0.00    +0.000 C 
ATOM     22  N   UNL     1      -3.515  11.731  15.487  0.00  0.00    +0.000 NA
ATOM     23  C   UNL     1      -4.398  11.488  16.632  0.00  0.00    +0.000 C 
ATOM     24  H   UNL     1      -3.955  12.415  14.869  0.00  0.00    +0.000 HD
ENDBRANCH   3  18
BRANCH   6  25
ATOM     25  C   UNL     1       1.354   9.317  19.272  0.00  0.00    +0.000 A 
ATOM     26  C   UNL     1       1.892   9.095  17.988  0.00  0.00    +0.000 A 
ATOM     27  N   UNL     1       2.510   7.911  17.895  0.00  0.00    +0.000 NA
ATOM     28  N   UNL     1       2.370   7.386  19.124  0.00  0.00    +0.000 N 
ATOM     29  C   UNL     1       2.972   6.114  19.440  0.00  0.00    +0.000 C 
ATOM     30  C   UNL     1       1.664   8.180  19.982  0.00  0.00    +0.000 A 
ENDBRANCH   6  25
TORSDOF 3
ENDMDL
MODEL 8
REMARK VINA RESULT:      -7.1      2.819      6.618
REMARK  Name = 
REMARK  5 active torsions:
REMARK  status: ('A' for Active; 'I' for Inactive)
REMARK    1  A    between atoms: C_1  and  C_2
REMARK    2  A    between atoms: N_5  and  C_6
REMARK    3  A    between atoms: C_8  and  C_9
REMARK    4  A    between atoms: C_17  and  C_18
REMARK    5  A    between atoms: N_21  and  C_22
REMARK                            x       y       z     vdW  Elec       q    Type
REMARK                         _______ _______ _______ _____ _____    ______ ____
ROOT
ATOM      1  C   UNL     1       2.218   7.156  19.324  0.00  0.00    +0.000 A 
ATOM      2  C   UNL     1       1.712   5.957  19.640  0.00  0.00    +0.000 A 
ATOM      3  C   UNL     1       2.206   4.761  18.899  0.00  0.00    +0.000 A 
ATOM      4  N   UNL     1       3.106   4.819  17.957  0.00  0.00    +0.000 NA
ATOM      5  C   UNL     1       3.616   6.056  17.654  0.00  0.00    +0.000 A 
ATOM      6  C   UNL     1       4.621   6.464  16.801  0.00  0.00    +0.000 A 
ATOM      7  C   UNL     1       4.693   7.860  16.952  0.00  0.00    +0.000 A 
ATOM      8  N   UNL     1       3.802   8.337  17.823  0.00  0.00    +0.000 NA
ATOM      9  N   UNL     1       3.168   7.222  18.286  0.00  0.00    +0.000 N 
ENDROOT
BRANCH   1  14
ATOM     10  C   UNL     1      -1.626  10.768  17.491  0.00  0.00    +0.000 C 
ATOM     11  C   UNL     1      -0.569  10.276  18.389  0.00  0.00    +0.000 A 
ATOM     12  C   UNL     1       0.231   9.167  18.385  0.00  0.00    +0.000 A 
ATOM     13  C   UNL     1       1.003   9.268  19.570  0.00  0.00    +0.000 A 
ATOM     14  N   UNL     1       1.892   8.330  19.997  0.00  0.00    +0.000 N 
ATOM     15  N   UNL     1       0.684  10.379  20.241  0.00  0.00    +0.000 NA
ATOM     16  O   UNL     1      -0.290  11.018  19.492  0.00  0.00    +0.000 OA
ATOM     17  H   UNL     1       1.950   8.231  21.011  0.00  0.00    +0.000 HD
ENDBRANCH   1  14
BRANCH   3  18
ATOM     18  C   UNL     1       1.661   3.378  19.292  0.00  0.00    +0.000 C 
ATOM     19  C   UNL     1       1.051   3.320  20.697  0.00  0.00    +0.000 C 
ATOM     20  C   UNL     1       2.077   3.112  21.812  0.00  0.00    +0.000 C 
ATOM     21  C   UNL     1       3.132   2.060  21.463  0.00  0.00    +0.000 C 
ATOM     22  N   UNL     1       3.728   2.259  20.140  0.00  0.00    +0.000 NA
ATOM     23  C   UNL     1       2.708   2.279  19.086  0.00  0.00    +0.000 C 
ATOM     24  H   UNL     1       4.380   1.496  19.955  0.00  0.00    +0.000 HD
ENDBRANCH   3  18
BRANCH   6  25
ATOM     25  C   UNL     1       5.459   5.664  15.925  0.00  0.00    +0.000 A 
ATOM     26  C   UNL     1       6.824   5.369  16.115  0.00  0.00    +0.000 A 
ATOM     27  N   UNL     1       7.315   4.589  15.144  0.00  0.00    +0.000 NA
ATOM     28  N   UNL     1       6.256   4.383  14.342  0.00  0.00    +0.000 N 
ATOM     29  C   UNL     1       6.376   3.520  13.192  0.00  0.00    +0.000 C 
ATOM     30  C   UNL     1       5.123   5.025  14.753  0.00  0.00    +0.000 A 
ENDBRANCH   6  25
TORSDOF 3
ENDMDL
MODEL 9
REMARK VINA RESULT:      -7.1      2.636      4.124
REMARK  Name = 
REMARK  5 active torsions:
REMARK  status: ('A' for Active; 'I' for Inactive)
REMARK    1  A    between atoms: C_1  and  C_2
REMARK    2  A    between atoms: N_5  and  C_6
REMARK    3  A    between atoms: C_8  and  C_9
REMARK    4  A    between atoms: C_17  and  C_18
REMARK    5  A    between atoms: N_21  and  C_22
REMARK                            x       y       z     vdW  Elec       q    Type
REMARK                         _______ _______ _______ _____ _____    ______ ____
ROOT
ATOM      1  C   UNL     1       3.258   6.992  17.967  0.00  0.00    +0.000 A 
ATOM      2  C   UNL     1       3.047   5.963  18.797  0.00  0.00    +0.000 A 
ATOM      3  C   UNL     1       2.140   6.164  19.963  0.00  0.00    +0.000 A 
ATOM      4  N   UNL     1       1.538   7.293  20.219  0.00  0.00    +0.000 NA
ATOM      5  C   UNL     1       1.762   8.333  19.352  0.00  0.00    +0.000 A 
ATOM      6  C   UNL     1       1.231   9.604  19.268  0.00  0.00    +0.000 A 
ATOM      7  C   UNL     1       1.841  10.187  18.144  0.00  0.00    +0.000 A 
ATOM      8  N   UNL     1       2.711   9.375  17.543  0.00  0.00    +0.000 NA
ATOM      9  N   UNL     1       2.631   8.219  18.262  0.00  0.00    +0.000 N 
ENDROOT
BRANCH   1  14
ATOM     10  C   UNL     1       8.193   4.389  17.745  0.00  0.00    +0.000 C 
ATOM     11  C   UNL     1       7.074   5.189  17.221  0.00  0.00    +0.000 A 
ATOM     12  C   UNL     1       5.926   5.682  17.777  0.00  0.00    +0.000 A 
ATOM     13  C   UNL     1       5.250   6.325  16.709  0.00  0.00    +0.000 A 
ATOM     14  N   UNL     1       4.021   6.901  16.807  0.00  0.00    +0.000 N 
ATOM     15  N   UNL     1       5.959   6.226  15.580  0.00  0.00    +0.000 NA
ATOM     16  O   UNL     1       7.109   5.527  15.906  0.00  0.00    +0.000 OA
ATOM     17  H   UNL     1       3.449   6.825  15.965  0.00  0.00    +0.000 HD
ENDBRANCH   1  14
BRANCH   3  18
ATOM     18  C   UNL     1       1.860   4.971  20.891  0.00  0.00    +0.000 C 
ATOM     19  C   UNL     1       3.081   4.084  21.158  0.00  0.00    +0.000 C 
ATOM     20  C   UNL     1       3.340   3.039  20.072  0.00  0.00    +0.000 C 
ATOM     21  C   UNL     1       2.062   2.346  19.594  0.00  0.00    +0.000 C 
ATOM     22  N   UNL     1       0.985   3.283  19.269  0.00  0.00    +0.000 NA
ATOM     23  C   UNL     1       0.661   4.148  20.407  0.00  0.00    +0.000 C 
ATOM     24  H   UNL     1       0.153   2.751  19.010  0.00  0.00    +0.000 HD
ENDBRANCH   3  18
BRANCH   6  25
ATOM     25  C   UNL     1       0.246  10.243  20.123  0.00  0.00    +0.000 A 
ATOM     26  C   UNL     1      -0.870  10.991  19.698  0.00  0.00    +0.000 A 
ATOM     27  N   UNL     1      -1.605  11.435  20.724  0.00  0.00    +0.000 NA
ATOM     28  N   UNL     1      -0.957  10.961  21.802  0.00  0.00    +0.000 N 
ATOM     29  C   UNL     1      -1.491  11.184  23.124  0.00  0.00    +0.000 C 
ATOM     30  C   UNL     1       0.173  10.257  21.497  0.00  0.00    +0.000 A 
ENDBRANCH   6  25
TORSDOF 3
ENDMDL
