MODEL 1
REMARK VINA RESULT:      -7.5      0.000      0.000
REMARK  Name = 
REMARK  8 active torsions:
REMARK  status: ('A' for Active; 'I' for Inactive)
REMARK    1  A    between atoms: N_1  and  CA_2
REMARK    2  A    between atoms: CA_2  and  C_3
REMARK    3  A    between atoms: CA_2  and  C_19
REMARK    4  A    between atoms: C_3  and  N_4
REMARK    5  A    between atoms: N_9  and  C_10
REMARK    6  A    between atoms: C_10  and  C_11
REMARK    7  A    between atoms: C_11  and  C_12
REMARK    8  A    between atoms: C_19  and  OXT_21
REMARK                            x       y       z     vdW  Elec       q    Type
REMARK                         _______ _______ _______ _____ _____    ______ ____
ROOT
ATOM      1  N   UNL     1       3.565   5.151  19.173  0.00  0.00    +0.000 N 
ATOM      2  C   UNL     1       3.098   6.364  18.727  0.00  0.00    +0.000 A 
ATOM      3  C   UNL     1       3.726   7.039  17.765  0.00  0.00    +0.000 A 
ATOM      4  C   UNL     1       4.907   6.445  17.116  0.00  0.00    +0.000 A 
ATOM      5  O   UNL     1       5.522   7.116  16.295  0.00  0.00    +0.000 OA
ATOM      6  N   UNL     1       5.237   5.157  17.503  0.00  0.00    +0.000 N 
ATOM      7  C   UNL     1       4.738   4.580  18.668  0.00  0.00    +0.000 A 
ATOM      8  O   UNL     1       5.287   3.637  19.238  0.00  0.00    +0.000 OA
ENDROOT
BRANCH   1   9
ATOM      9  C   UNL     1       2.850   4.438  20.245  0.00  0.00    +0.000 C 
BRANCH   9  10
ATOM     10  CA  UNL     1       1.455   3.938  19.808  0.00  0.00    +0.000 C 
BRANCH  10  11
ATOM     11  N   UNL     1       0.759   3.086  20.833  0.00  0.00    +0.000 NA
ATOM     12  H1  UNL     1       0.484   3.707  21.600  0.00  0.00    +0.000 HD
ATOM     13  H2  UNL     1       1.455   2.457  21.249  0.00  0.00    +0.000 HD
ENDBRANCH  10  11
BRANCH  10  14
ATOM     14  C   UNL     1       1.573   3.107  18.521  0.00  0.00    +0.000 C 
ATOM     15  O   UNL     1       2.065   1.995  18.429  0.00  0.00    +0.000 OA
BRANCH  14  16
ATOM     16  OXT UNL     1       1.051   3.779  17.458  0.00  0.00    +0.000 OA
ATOM     17  HXT UNL     1       1.537   4.638  17.403  0.00  0.00    +0.000 HD
ENDBRANCH  14  16
ENDBRANCH  10  14
ENDBRANCH   9  10
ENDBRANCH   1   9
BRANCH   6  18
ATOM     18  C   UNL     1       6.376   4.531  16.823  0.00  0.00    +0.000 C 
BRANCH  18  19
ATOM     19  C   UNL     1       6.088   3.811  15.500  0.00  0.00    +0.000 C 
BRANCH  19  20
ATOM     20  C   UNL     1       6.778   4.416  14.338  0.00  0.00    +0.000 A 
ATOM     21  N   UNL     1       7.706   5.412  14.469  0.00  0.00    +0.000 NA
ATOM     22  N   UNL     1       8.161   5.663  13.248  0.00  0.00    +0.000 NA
ATOM     23  N   UNL     1       7.504   4.806  12.458  0.00  0.00    +0.000 N 
ATOM     24  N   UNL     1       6.604   4.019  13.067  0.00  0.00    +0.000 NA
ATOM     25  H   UNL     1       7.679   4.759  11.458  0.00  0.00    +0.000 HD
ENDBRANCH  19  20
ENDBRANCH  18  19
ENDBRANCH   6  18
TORSDOF 8
ENDMDL
MODEL 2
REMARK VINA RESULT:      -7.2      1.249      1.740
REMARK  Name = 
REMARK  8 active torsions:
REMARK  status: ('A' for Active; 'I' for Inactive)
REMARK    1  A    between atoms: N_1  and  CA_2
REMARK    2  A    between atoms: CA_2  and  C_3
REMARK    3  A    between atoms: CA_2  and  C_19
REMARK    4  A    between atoms: C_3  and  N_4
REMARK    5  A    between atoms: N_9  and  C_10
REMARK    6  A    between atoms: C_10  and  C_11
REMARK    7  A    between atoms: C_11  and  C_12
REMARK    8  A    between atoms: C_19  and  OXT_21
REMARK                            x       y       z     vdW  Elec       q    Type
REMARK                         _______ _______ _______ _____ _____    ______ ____
ROOT
ATOM      1  N   UNL     1       2.691   5.111  18.275  0.00  0.00    +0.000 N 
ATOM      2  C   UNL     1       2.614   6.475  18.129  0.00  0.00    +0.000 A 
ATOM      3  C   UNL     1       3.632   7.180  17.639  0.00  0.00    +0.000 A 
ATOM      4  C   UNL     1       4.843   6.479  17.178  0.00  0.00    +0.000 A 
ATOM      5  O   UNL     1       5.802   7.149  16.811  0.00  0.00    +0.000 OA
ATOM      6  N   UNL     1       4.799   5.095  17.209  0.00  0.00    +0.000 N 
ATOM      7  C   UNL     1       3.849   4.397  17.950  0.00  0.00    +0.000 A 
ATOM      8  O   UNL     1       4.007   3.233  18.316  0.00  0.00    +0.000 OA
ENDROOT
BRANCH   1   9
ATOM      9  C   UNL     1       1.548   4.366  18.829  0.00  0.00    +0.000 C 
BRANCH   9  10
ATOM     10  CA  UNL     1       1.478   4.431  20.371  0.00  0.00    +0.000 C 
BRANCH  10  11
ATOM     11  N   UNL     1       2.508   5.332  20.996  0.00  0.00    +0.000 NA
ATOM     12  H1  UNL     1       2.172   6.293  20.881  0.00  0.00    +0.000 HD
ATOM     13  H2  UNL     1       3.358   5.287  20.424  0.00  0.00    +0.000 HD
ENDBRANCH  10  11
BRANCH  10  14
ATOM     14  C   UNL     1       1.672   3.028  20.967  0.00  0.00    +0.000 C 
ATOM     15  O   UNL     1       1.751   2.758  22.153  0.00  0.00    +0.000 OA
BRANCH  14  16
ATOM     16  OXT UNL     1       1.754   2.088  19.984  0.00  0.00    +0.000 OA
ATOM     17  HXT UNL     1       1.556   1.218  20.411  0.00  0.00    +0.000 HD
ENDBRANCH  14  16
ENDBRANCH  10  14
ENDBRANCH   9  10
ENDBRANCH   1   9
BRANCH   6  18
ATOM     18  C   UNL     1       5.976   4.384  16.699  0.00  0.00    +0.000 C 
BRANCH  18  19
ATOM     19  C   UNL     1       5.872   3.784  15.291  0.00  0.00    +0.000 C 
BRANCH  19  20
ATOM     20  C   UNL     1       6.775   4.427  14.309  0.00  0.00    +0.000 A 
ATOM     21  N   UNL     1       6.737   4.140  12.973  0.00  0.00    +0.000 NA
ATOM     22  N   UNL     1       7.624   4.937  12.392  0.00  0.00    +0.000 NA
ATOM     23  N   UNL     1       8.133   5.665  13.393  0.00  0.00    +0.000 N 
ATOM     24  N   UNL     1       7.670   5.379  14.620  0.00  0.00    +0.000 NA
ATOM     25  H   UNL     1       8.827   6.388  13.228  0.00  0.00    +0.000 HD
ENDBRANCH  19  20
ENDBRANCH  18  19
ENDBRANCH   6  18
TORSDOF 8
ENDMDL
MODEL 3
REMARK VINA RESULT:      -7.2      1.841      2.377
REMARK  Name = 
REMARK  8 active torsions:
REMARK  status: ('A' for Active; 'I' for Inactive)
REMARK    1  A    between atoms: N_1  and  CA_2
REMARK    2  A    between atoms: CA_2  and  C_3
REMARK    3  A    between atoms: CA_2  and  C_19
REMARK    4  A    between atoms: C_3  and  N_4
REMARK    5  A    between atoms: N_9  and  C_10
REMARK    6  A    between atoms: C_10  and  C_11
REMARK    7  A    between atoms: C_11  and  C_12
REMARK    8  A    between atoms: C_19  and  OXT_21
REMARK                            x       y       z     vdW  Elec       q    Type
REMARK                         _______ _______ _______ _____ _____    ______ ____
ROOT
ATOM      1  N   UNL     1       3.168   3.586  18.629  0.00  0.00    +0.000 N 
ATOM      2  C   UNL     1       2.285   4.486  18.083  0.00  0.00    +0.000 A 
ATOM      3  C   UNL     1       2.669   5.715  17.739  0.00  0.00    +0.000 A 
ATOM      4  C   UNL     1       4.085   6.097  17.882  0.00  0.00    +0.000 A 
ATOM      5  O   UNL     1       4.403   7.256  17.641  0.00  0.00    +0.000 OA
ATOM      6  N   UNL     1       4.951   5.098  18.293  0.00  0.00    +0.000 N 
ATOM      7  C   UNL     1       4.502   3.920  18.884  0.00  0.00    +0.000 A 
ATOM      8  O   UNL     1       5.214   3.215  19.597  0.00  0.00    +0.000 OA
ENDROOT
BRANCH   1   9
ATOM      9  C   UNL     1       2.705   2.240  19.007  0.00  0.00    +0.000 C 
BRANCH   9  10
ATOM     10  CA  UNL     1       1.749   2.251  20.220  0.00  0.00    +0.000 C 
BRANCH  10  11
ATOM     11  N   UNL     1       0.550   3.143  20.051  0.00  0.00    +0.000 NA
ATOM     12  H1  UNL     1      -0.061   2.976  20.856  0.00  0.00    +0.000 HD
ATOM     13  H2  UNL     1       0.013   2.803  19.246  0.00  0.00    +0.000 HD
ENDBRANCH  10  11
BRANCH  10  14
ATOM     14  C   UNL     1       2.499   2.719  21.477  0.00  0.00    +0.000 C 
ATOM     15  O   UNL     1       2.162   3.631  22.214  0.00  0.00    +0.000 OA
BRANCH  14  16
ATOM     16  OXT UNL     1       3.624   1.978  21.678  0.00  0.00    +0.000 OA
ATOM     17  HXT UNL     1       3.727   1.404  20.880  0.00  0.00    +0.000 HD
ENDBRANCH  14  16
ENDBRANCH  10  14
ENDBRANCH   9  10
ENDBRANCH   1   9
BRANCH   6  18
ATOM     18  C   UNL     1       6.373   5.450  18.383  0.00  0.00    +0.000 C 
BRANCH  18  19
ATOM     19  C   UNL     1       7.354   4.604  17.562  0.00  0.00    +0.000 C 
BRANCH  19  20
ATOM     20  C   UNL     1       7.082   4.635  16.107  0.00  0.00    +0.000 A 
ATOM     21  N   UNL     1       6.259   3.733  15.491  0.00  0.00    +0.000 NA
ATOM     22  N   UNL     1       6.193   4.096  14.216  0.00  0.00    +0.000 NA
ATOM     23  N   UNL     1       6.957   5.191  14.134  0.00  0.00    +0.000 N 
ATOM     24  N   UNL     1       7.565   5.567  15.269  0.00  0.00    +0.000 NA
ATOM     25  H   UNL     1       7.066   5.702  13.263  0.00  0.00    +0.000 HD
ENDBRANCH  19  20
ENDBRANCH  18  19
ENDBRANCH   6  18
TORSDOF 8
ENDMDL
MODEL 4
REMARK VINA RESULT:      -7.2      1.406      1.538
REMARK  Name = 
REMARK  8 active torsions:
REMARK  status: ('A' for Active; 'I' for Inactive)
REMARK    1  A    between atoms: N_1  and  CA_2
REMARK    2  A    between atoms: CA_2  and  C_3
REMARK    3  A    between atoms: CA_2  and  C_19
REMARK    4  A    between atoms: C_3  and  N_4
REMARK    5  A    between atoms: N_9  and  C_10
REMARK    6  A    between atoms: C_10  and  C_11
REMARK    7  A    between atoms: C_11  and  C_12
REMARK    8  A    between atoms: C_19  and  OXT_21
REMARK                            x       y       z     vdW  Elec       q    Type
REMARK                         _______ _______ _______ _____ _____    ______ ____
ROOT
ATOM      1  N   UNL     1       3.483   5.556  19.295  0.00  0.00    +0.000 N 
ATOM      2  C   UNL     1       2.943   6.656  18.673  0.00  0.00    +0.000 A 
ATOM      3  C   UNL     1       3.493   7.173  17.575  0.00  0.00    +0.000 A 
ATOM      4  C   UNL     1       4.664   6.513  16.972  0.00  0.00    +0.000 A 
ATOM      5  O   UNL     1       5.207   7.050  16.014  0.00  0.00    +0.000 OA
ATOM      6  N   UNL     1       5.066   5.324  17.558  0.00  0.00    +0.000 N 
ATOM      7  C   UNL     1       4.652   4.944  18.831  0.00  0.00    +0.000 A 
ATOM      8  O   UNL     1       5.268   4.135  19.523  0.00  0.00    +0.000 OA
ENDROOT
BRANCH   1   9
ATOM      9  C   UNL     1       2.854   5.018  20.513  0.00  0.00    +0.000 C 
BRANCH   9  10
ATOM     10  CA  UNL     1       2.143   3.667  20.277  0.00  0.00    +0.000 C 
BRANCH  10  11
ATOM     11  N   UNL     1       0.644   3.764  20.207  0.00  0.00    +0.000 NA
ATOM     12  H1  UNL     1       0.270   3.034  20.820  0.00  0.00    +0.000 HD
ATOM     13  H2  UNL     1       0.351   3.482  19.265  0.00  0.00    +0.000 HD
ENDBRANCH  10  11
BRANCH  10  14
ATOM     14  C   UNL     1       2.489   2.685  21.407  0.00  0.00    +0.000 C 
ATOM     15  O   UNL     1       3.556   2.115  21.560  0.00  0.00    +0.000 OA
BRANCH  14  16
ATOM     16  OXT UNL     1       1.430   2.515  22.246  0.00  0.00    +0.000 OA
ATOM     17  HXT UNL     1       0.922   3.363  22.232  0.00  0.00    +0.000 HD
ENDBRANCH  14  16
ENDBRANCH  10  14
ENDBRANCH   9  10
ENDBRANCH   1   9
BRANCH   6  18
ATOM     18  C   UNL     1       6.196   4.627  16.932  0.00  0.00    +0.000 C 
BRANCH  18  19
ATOM     19  C   UNL     1       5.905   3.845  15.645  0.00  0.00    +0.000 C 
BRANCH  19  20
ATOM     20  C   UNL     1       6.626   4.371  14.463  0.00  0.00    +0.000 A 
ATOM     21  N   UNL     1       7.590   5.336  14.555  0.00  0.00    +0.000 NA
ATOM     22  N   UNL     1       8.062   5.513  13.328  0.00  0.00    +0.000 NA
ATOM     23  N   UNL     1       7.378   4.647  12.572  0.00  0.00    +0.000 N 
ATOM     24  N   UNL     1       6.445   3.922  13.210  0.00  0.00    +0.000 NA
ATOM     25  H   UNL     1       7.558   4.548  11.577  0.00  0.00    +0.000 HD
ENDBRANCH  19  20
ENDBRANCH  18  19
ENDBRANCH   6  18
TORSDOF 8
ENDMDL
MODEL 5
REMARK VINA RESULT:      -7.0      0.994      1.301
REMARK  Name = 
REMARK  8 active torsions:
REMARK  status: ('A' for Active; 'I' for Inactive)
REMARK    1  A    between atoms: N_1  and  CA_2
REMARK    2  A    between atoms: CA_2  and  C_3
REMARK    3  A    between atoms: CA_2  and  C_19
REMARK    4  A    between atoms: C_3  and  N_4
REMARK    5  A    between atoms: N_9  and  C_10
REMARK    6  A    between atoms: C_10  and  C_11
REMARK    7  A    between atoms: C_11  and  C_12
REMARK    8  A    between atoms: C_19  and  OXT_21
REMARK                            x       y       z     vdW  Elec       q    Type
REMARK                         _______ _______ _______ _____ _____    ______ ____
ROOT
ATOM      1  N   UNL     1       3.633   5.259  19.124  0.00  0.00    +0.000 N 
ATOM      2  C   UNL     1       3.015   6.229  18.374  0.00  0.00    +0.000 A 
ATOM      3  C   UNL     1       3.712   7.052  17.590  0.00  0.00    +0.000 A 
ATOM      4  C   UNL     1       5.169   6.876  17.470  0.00  0.00    +0.000 A 
ATOM      5  O   UNL     1       5.805   7.693  16.814  0.00  0.00    +0.000 OA
ATOM      6  N   UNL     1       5.711   5.785  18.131  0.00  0.00    +0.000 N 
ATOM      7  C   UNL     1       5.023   5.105  19.132  0.00  0.00    +0.000 A 
ATOM      8  O   UNL     1       5.586   4.420  19.985  0.00  0.00    +0.000 OA
ENDROOT
BRANCH   1   9
ATOM      9  C   UNL     1       2.831   4.374  19.986  0.00  0.00    +0.000 C 
BRANCH   9  10
ATOM     10  CA  UNL     1       1.543   3.870  19.298  0.00  0.00    +0.000 C 
BRANCH  10  11
ATOM     11  N   UNL     1       0.498   3.357  20.250  0.00  0.00    +0.000 NA
ATOM     12  H1  UNL     1       0.653   3.829  21.145  0.00  0.00    +0.000 HD
ATOM     13  H2  UNL     1       0.701   2.370  20.442  0.00  0.00    +0.000 HD
ENDBRANCH  10  11
BRANCH  10  14
ATOM     14  C   UNL     1       1.878   2.730  18.323  0.00  0.00    +0.000 C 
ATOM     15  O   UNL     1       2.211   2.859  17.157  0.00  0.00    +0.000 OA
BRANCH  14  16
ATOM     16  OXT UNL     1       1.753   1.517  18.930  0.00  0.00    +0.000 OA
ATOM     17  HXT UNL     1       2.330   1.544  19.733  0.00  0.00    +0.000 HD
ENDBRANCH  14  16
ENDBRANCH  10  14
ENDBRANCH   9  10
ENDBRANCH   1   9
BRANCH   6  18
ATOM     18  C   UNL     1       7.153   5.565  17.972  0.00  0.00    +0.000 C 
BRANCH  18  19
ATOM     19  C   UNL     1       7.585   4.378  17.102  0.00  0.00    +0.000 C 
BRANCH  19  20
ATOM     20  C   UNL     1       7.144   4.490  15.694  0.00  0.00    +0.000 A 
ATOM     21  N   UNL     1       7.694   5.383  14.816  0.00  0.00    +0.000 NA
ATOM     22  N   UNL     1       7.114   5.164  13.644  0.00  0.00    +0.000 NA
ATOM     23  N   UNL     1       6.266   4.154  13.868  0.00  0.00    +0.000 N 
ATOM     24  N   UNL     1       6.211   3.703  15.131  0.00  0.00    +0.000 NA
ATOM     25  H   UNL     1       5.700   3.756  13.124  0.00  0.00    +0.000 HD
ENDBRANCH  19  20
ENDBRANCH  18  19
ENDBRANCH   6  18
TORSDOF 8
ENDMDL
MODEL 6
REMARK VINA RESULT:      -7.0      1.263      1.575
REMARK  Name = 
REMARK  8 active torsions:
REMARK  status: ('A' for Active; 'I' for Inactive)
REMARK    1  A    between atoms: N_1  and  CA_2
REMARK    2  A    between atoms: CA_2  and  C_3
REMARK    3  A    between atoms: CA_2  and  C_19
REMARK    4  A    between atoms: C_3  and  N_4
REMARK    5  A    between atoms: N_9  and  C_10
REMARK    6  A    between atoms: C_10  and  C_11
REMARK    7  A    between atoms: C_11  and  C_12
REMARK    8  A    between atoms: C_19  and  OXT_21
REMARK                            x       y       z     vdW  Elec       q    Type
REMARK                         _______ _______ _______ _____ _____    ______ ____
ROOT
ATOM      1  N   UNL     1       2.820   5.164  18.167  0.00  0.00    +0.000 N 
ATOM      2  C   UNL     1       2.759   6.531  18.044  0.00  0.00    +0.000 A 
ATOM      3  C   UNL     1       3.788   7.234  17.571  0.00  0.00    +0.000 A 
ATOM      4  C   UNL     1       4.993   6.527  17.104  0.00  0.00    +0.000 A 
ATOM      5  O   UNL     1       5.960   7.192  16.753  0.00  0.00    +0.000 OA
ATOM      6  N   UNL     1       4.933   5.143  17.111  0.00  0.00    +0.000 N 
ATOM      7  C   UNL     1       3.972   4.443  17.836  0.00  0.00    +0.000 A 
ATOM      8  O   UNL     1       4.115   3.272  18.182  0.00  0.00    +0.000 OA
ENDROOT
BRANCH   1   9
ATOM      9  C   UNL     1       1.666   4.422  18.703  0.00  0.00    +0.000 C 
BRANCH   9  10
ATOM     10  CA  UNL     1       1.586   4.467  20.246  0.00  0.00    +0.000 C 
BRANCH  10  11
ATOM     11  N   UNL     1       2.612   5.359  20.889  0.00  0.00    +0.000 NA
ATOM     12  H1  UNL     1       2.265   5.585  21.826  0.00  0.00    +0.000 HD
ATOM     13  H2  UNL     1       2.609   6.256  20.391  0.00  0.00    +0.000 HD
ENDBRANCH  10  11
BRANCH  10  14
ATOM     14  C   UNL     1       1.776   3.056  20.824  0.00  0.00    +0.000 C 
ATOM     15  O   UNL     1       1.786   2.017  20.187  0.00  0.00    +0.000 OA
BRANCH  14  16
ATOM     16  OXT UNL     1       1.930   3.100  22.176  0.00  0.00    +0.000 OA
ATOM     17  HXT UNL     1       1.482   3.926  22.483  0.00  0.00    +0.000 HD
ENDBRANCH  14  16
ENDBRANCH  10  14
ENDBRANCH   9  10
ENDBRANCH   1   9
BRANCH   6  18
ATOM     18  C   UNL     1       6.104   4.427  16.594  0.00  0.00    +0.000 C 
BRANCH  18  19
ATOM     19  C   UNL     1       5.966   3.767  15.216  0.00  0.00    +0.000 C 
BRANCH  19  20
ATOM     20  C   UNL     1       6.760   4.437  14.161  0.00  0.00    +0.000 A 
ATOM     21  N   UNL     1       7.684   5.407  14.437  0.00  0.00    +0.000 NA
ATOM     22  N   UNL     1       8.245   5.730  13.279  0.00  0.00    +0.000 NA
ATOM     23  N   UNL     1       7.650   4.938  12.380  0.00  0.00    +0.000 N 
ATOM     24  N   UNL     1       6.693   4.126  12.856  0.00  0.00    +0.000 NA
ATOM     25  H   UNL     1       7.911   4.954  11.398  0.00  0.00    +0.000 HD
ENDBRANCH  19  20
ENDBRANCH  18  19
ENDBRANCH   6  18
TORSDOF 8
ENDMDL
MODEL 7
REMARK VINA RESULT:      -6.9      2.397      6.863
REMARK  Name = 
REMARK  8 active torsions:
REMARK  status: ('A' for Active; 'I' for Inactive)
REMARK    1  A    between atoms: N_1  and  CA_2
REMARK    2  A    between atoms: CA_2  and  C_3
REMARK    3  A    between atoms: CA_2  and  C_19
REMARK    4  A    between atoms: C_3  and  N_4
REMARK    5  A    between atoms: N_9  and  C_10
REMARK    6  A    between atoms: C_10  and  C_11
REMARK    7  A    between atoms: C_11  and  C_12
REMARK    8  A    between atoms: C_19  and  OXT_21
REMARK                            x       y       z     vdW  Elec       q    Type
REMARK                         _______ _______ _______ _____ _____    ______ ____
ROOT
ATOM      1  N   UNL     1       5.820   4.830  15.989  0.00  0.00    +0.000 N 
ATOM      2  C   UNL     1       6.975   5.497  16.315  0.00  0.00    +0.000 A 
ATOM      3  C   UNL     1       7.345   5.668  17.584  0.00  0.00    +0.000 A 
ATOM      4  C   UNL     1       6.536   5.071  18.660  0.00  0.00    +0.000 A 
ATOM      5  O   UNL     1       6.843   5.310  19.823  0.00  0.00    +0.000 OA
ATOM      6  N   UNL     1       5.470   4.282  18.260  0.00  0.00    +0.000 N 
ATOM      7  C   UNL     1       4.956   4.327  16.967  0.00  0.00    +0.000 A 
ATOM      8  O   UNL     1       3.814   3.963  16.687  0.00  0.00    +0.000 OA
ENDROOT
BRANCH   1   9
ATOM      9  C   UNL     1       5.438   4.669  14.576  0.00  0.00    +0.000 C 
BRANCH   9  10
ATOM     10  CA  UNL     1       6.590   4.131  13.698  0.00  0.00    +0.000 C 
BRANCH  10  11
ATOM     11  N   UNL     1       7.514   5.197  13.177  0.00  0.00    +0.000 NA
ATOM     12  H1  UNL     1       8.275   4.717  12.687  0.00  0.00    +0.000 HD
ATOM     13  H2  UNL     1       7.969   5.644  13.980  0.00  0.00    +0.000 HD
ENDBRANCH  10  11
BRANCH  10  14
ATOM     14  C   UNL     1       6.021   3.380  12.485  0.00  0.00    +0.000 C 
ATOM     15  O   UNL     1       4.872   3.435  12.083  0.00  0.00    +0.000 OA
BRANCH  14  16
ATOM     16  OXT UNL     1       6.980   2.615  11.892  0.00  0.00    +0.000 OA
ATOM     17  HXT UNL     1       6.636   1.688  11.889  0.00  0.00    +0.000 HD
ENDBRANCH  14  16
ENDBRANCH  10  14
ENDBRANCH   9  10
ENDBRANCH   1   9
BRANCH   6  18
ATOM     18  C   UNL     1       4.691   3.634  19.321  0.00  0.00    +0.000 C 
BRANCH  18  19
ATOM     19  C   UNL     1       3.618   4.482  20.015  0.00  0.00    +0.000 C 
BRANCH  19  20
ATOM     20  C   UNL     1       2.537   3.676  20.627  0.00  0.00    +0.000 A 
ATOM     21  N   UNL     1       2.678   3.044  21.832  0.00  0.00    +0.000 NA
ATOM     22  N   UNL     1       1.507   2.482  22.099  0.00  0.00    +0.000 NA
ATOM     23  N   UNL     1       0.727   2.811  21.064  0.00  0.00    +0.000 N 
ATOM     24  N   UNL     1       1.312   3.531  20.094  0.00  0.00    +0.000 NA
ATOM     25  H   UNL     1      -0.249   2.531  21.020  0.00  0.00    +0.000 HD
ENDBRANCH  19  20
ENDBRANCH  18  19
ENDBRANCH   6  18
TORSDOF 8
ENDMDL
MODEL 8
REMARK VINA RESULT:      -6.9      2.814      6.338
REMARK  Name = 
REMARK  8 active torsions:
REMARK  status: ('A' for Active; 'I' for Inactive)
REMARK    1  A    between atoms: N_1  and  CA_2
REMARK    2  A    between atoms: CA_2  and  C_3
REMARK    3  A    between atoms: CA_2  and  C_19
REMARK    4  A    between atoms: C_3  and  N_4
REMARK    5  A    between atoms: N_9  and  C_10
REMARK    6  A    between atoms: C_10  and  C_11
REMARK    7  A    between atoms: C_11  and  C_12
REMARK    8  A    between atoms: C_19  and  OXT_21
REMARK                            x       y       z     vdW  Elec       q    Type
REMARK                         _______ _______ _______ _____ _____    ______ ____
ROOT
ATOM      1  N   UNL     1       4.904   5.807  17.243  0.00  0.00    +0.000 N 
ATOM      2  C   UNL     1       3.949   6.732  17.587  0.00  0.00    +0.000 A 
ATOM      3  C   UNL     1       2.684   6.376  17.811  0.00  0.00    +0.000 A 
ATOM      4  C   UNL     1       2.313   4.951  17.756  0.00  0.00    +0.000 A 
ATOM      5  O   UNL     1       1.131   4.651  17.879  0.00  0.00    +0.000 OA
ATOM      6  N   UNL     1       3.350   4.055  17.556  0.00  0.00    +0.000 N 
ATOM      7  C   UNL     1       4.595   4.453  17.076  0.00  0.00    +0.000 A 
ATOM      8  O   UNL     1       5.379   3.680  16.526  0.00  0.00    +0.000 OA
ENDROOT
BRANCH   1   9
ATOM      9  C   UNL     1       6.290   6.239  16.994  0.00  0.00    +0.000 C 
BRANCH   9  10
ATOM     10  CA  UNL     1       7.016   6.700  18.278  0.00  0.00    +0.000 C 
BRANCH  10  11
ATOM     11  N   UNL     1       8.137   7.673  18.034  0.00  0.00    +0.000 NA
ATOM     12  H1  UNL     1       8.679   7.725  18.901  0.00  0.00    +0.000 HD
ATOM     13  H2  UNL     1       7.728   8.608  17.931  0.00  0.00    +0.000 HD
ENDBRANCH  10  11
BRANCH  10  14
ATOM     14  C   UNL     1       7.610   5.487  19.010  0.00  0.00    +0.000 C 
ATOM     15  O   UNL     1       7.787   5.392  20.213  0.00  0.00    +0.000 OA
BRANCH  14  16
ATOM     16  OXT UNL     1       7.931   4.496  18.133  0.00  0.00    +0.000 OA
ATOM     17  HXT UNL     1       7.395   3.707  18.392  0.00  0.00    +0.000 HD
ENDBRANCH  14  16
ENDBRANCH  10  14
ENDBRANCH   9  10
ENDBRANCH   1   9
BRANCH   6  18
ATOM     18  C   UNL     1       3.003   2.630  17.557  0.00  0.00    +0.000 C 
BRANCH  18  19
ATOM     19  C   UNL     1       3.423   1.811  18.784  0.00  0.00    +0.000 C 
BRANCH  19  20
ATOM     20  C   UNL     1       2.781   2.261  20.040  0.00  0.00    +0.000 A 
ATOM     21  N   UNL     1       1.426   2.394  20.169  0.00  0.00    +0.000 NA
ATOM     22  N   UNL     1       1.202   2.746  21.429  0.00  0.00    +0.000 NA
ATOM     23  N   UNL     1       2.416   2.792  21.989  0.00  0.00    +0.000 N 
ATOM     24  N   UNL     1       3.449   2.529  21.173  0.00  0.00    +0.000 NA
ATOM     25  H   UNL     1       2.542   3.013  22.973  0.00  0.00    +0.000 HD
ENDBRANCH  19  20
ENDBRANCH  18  19
ENDBRANCH   6  18
TORSDOF 8
ENDMDL
MODEL 9
REMARK VINA RESULT:      -6.8      1.055      1.415
REMARK  Name = 
REMARK  8 active torsions:
REMARK  status: ('A' for Active; 'I' for Inactive)
REMARK    1  A    between atoms: N_1  and  CA_2
REMARK    2  A    between atoms: CA_2  and  C_3
REMARK    3  A    between atoms: CA_2  and  C_19
REMARK    4  A    between atoms: C_3  and  N_4
REMARK    5  A    between atoms: N_9  and  C_10
REMARK    6  A    between atoms: C_10  and  C_11
REMARK    7  A    between atoms: C_11  and  C_12
REMARK    8  A    between atoms: C_19  and  OXT_21
REMARK                            x       y       z     vdW  Elec       q    Type
REMARK                         _______ _______ _______ _____ _____    ______ ____
ROOT
ATOM      1  N   UNL     1       3.639   5.431  19.101  0.00  0.00    +0.000 N 
ATOM      2  C   UNL     1       3.076   6.378  18.281  0.00  0.00    +0.000 A 
ATOM      3  C   UNL     1       3.822   7.134  17.477  0.00  0.00    +0.000 A 
ATOM      4  C   UNL     1       5.276   6.906  17.412  0.00  0.00    +0.000 A 
ATOM      5  O   UNL     1       5.957   7.666  16.733  0.00  0.00    +0.000 OA
ATOM      6  N   UNL     1       5.762   5.836  18.147  0.00  0.00    +0.000 N 
ATOM      7  C   UNL     1       5.023   5.234  19.161  0.00  0.00    +0.000 A 
ATOM      8  O   UNL     1       5.537   4.579  20.067  0.00  0.00    +0.000 OA
ENDROOT
BRANCH   1   9
ATOM      9  C   UNL     1       2.783   4.621  19.984  0.00  0.00    +0.000 C 
BRANCH   9  10
ATOM     10  CA  UNL     1       1.648   3.899  19.224  0.00  0.00    +0.000 C 
BRANCH  10  11
ATOM     11  N   UNL     1       0.621   3.258  20.117  0.00  0.00    +0.000 NA
ATOM     12  H1  UNL     1      -0.216   3.105  19.547  0.00  0.00    +0.000 HD
ATOM     13  H2  UNL     1       0.332   3.951  20.816  0.00  0.00    +0.000 HD
ENDBRANCH  10  11
BRANCH  10  14
ATOM     14  C   UNL     1       2.232   2.796  18.328  0.00  0.00    +0.000 C 
ATOM     15  O   UNL     1       2.726   1.749  18.710  0.00  0.00    +0.000 OA
BRANCH  14  16
ATOM     16  OXT UNL     1       2.135   3.135  17.012  0.00  0.00    +0.000 OA
ATOM     17  HXT UNL     1       1.824   4.073  16.987  0.00  0.00    +0.000 HD
ENDBRANCH  14  16
ENDBRANCH  10  14
ENDBRANCH   9  10
ENDBRANCH   1   9
BRANCH   6  18
ATOM     18  C   UNL     1       7.199   5.562  18.045  0.00  0.00    +0.000 C 
BRANCH  18  19
ATOM     19  C   UNL     1       7.622   4.369  17.179  0.00  0.00    +0.000 C 
BRANCH  19  20
ATOM     20  C   UNL     1       7.181   4.479  15.770  0.00  0.00    +0.000 A 
ATOM     21  N   UNL     1       6.153   3.736  15.259  0.00  0.00    +0.000 NA
ATOM     22  N   UNL     1       5.989   4.136  14.005  0.00  0.00    +0.000 NA
ATOM     23  N   UNL     1       6.904   5.096  13.832  0.00  0.00    +0.000 N 
ATOM     24  N   UNL     1       7.701   5.343  14.883  0.00  0.00    +0.000 NA
ATOM     25  H   UNL     1       6.986   5.605  12.956  0.00  0.00    +0.000 HD
ENDBRANCH  19  20
ENDBRANCH  18  19
ENDBRANCH   6  18
TORSDOF 8
ENDMDL
