MODEL 1
REMARK VINA RESULT:      -7.5      0.000      0.000
REMARK  Name = 
REMARK  17 active torsions:
REMARK  status: ('A' for Active; 'I' for Inactive)
REMARK    1  A    between atoms: C_1  and  C_2
REMARK    2  A    between atoms: C_2  and  C_3
REMARK    3  A    between atoms: C_3  and  C_4
REMARK    4  A    between atoms: C_4  and  N_5
REMARK    5  A    between atoms: N_5  and  C_6
REMARK    6  A    between atoms: N_5  and  C_10
REMARK    7  A    between atoms: C_6  and  C_7
REMARK    8  A    between atoms: C_7  and  C_8
REMARK    9  A    between atoms: C_8  and  C_9
REMARK   10  A    between atoms: C_10  and  C_11
REMARK   11  A    between atoms: C_11  and  C_12
REMARK   12  A    between atoms: C_12  and  O_13
REMARK   13  A    between atoms: O_13  and  C_14
REMARK   14  A    between atoms: C_17  and  S_18
REMARK   15  A    between atoms: S_18  and  C_21
REMARK   16  A    between atoms: C_22  and  C_23
REMARK   17  A    between atoms: C_23  and  C_24
REMARK                            x       y       z     vdW  Elec       q    Type
REMARK                         _______ _______ _______ _____ _____    ______ ____
ROOT
ATOM      1  C   UNL     1       2.145   6.890  19.272  0.00  0.00    +0.000 A 
ATOM      2  C   UNL     1       2.247   7.781  18.195  0.00  0.00    +0.000 A 
ATOM      3  C   UNL     1       1.857   9.112  18.333  0.00  0.00    +0.000 A 
ATOM      4  C   UNL     1       1.395   9.567  19.565  0.00  0.00    +0.000 A 
ATOM      5  C   UNL     1       1.250   8.687  20.645  0.00  0.00    +0.000 A 
ATOM      6  C   UNL     1       1.635   7.349  20.493  0.00  0.00    +0.000 A 
ENDROOT
BRANCH   4   7
ATOM      7  S   UNL     1       1.068  11.297  19.745  0.00  0.00    +0.000 S 
ATOM      8  O   UNL     1       1.367  11.669  21.111  0.00  0.00    +0.000 OA
ATOM      9  O   UNL     1       1.651  11.992  18.613  0.00  0.00    +0.000 OA
BRANCH   7  10
ATOM     10  C   UNL     1      -0.639  11.565  19.576  0.00  0.00    +0.000 A 
ATOM     11  C   UNL     1      -1.396  12.429  20.445  0.00  0.00    +0.000 A 
ATOM     12  C   UNL     1      -2.690  12.430  19.962  0.00  0.00    +0.000 A 
ATOM     13  N   UNL     1      -2.771  11.615  18.862  0.00  0.00    +0.000 N 
ATOM     14  C   UNL     1      -3.891  11.370  18.065  0.00  0.00    +0.000 A 
ATOM     15  C   UNL     1      -3.795  10.528  17.022  0.00  0.00    +0.000 A 
ATOM     16  C   UNL     1      -2.529   9.884  16.771  0.00  0.00    +0.000 A 
ATOM     17  C   UNL     1      -1.450  10.134  17.528  0.00  0.00    +0.000 A 
ATOM     18  C   UNL     1      -1.517  11.045  18.630  0.00  0.00    +0.000 A 
BRANCH  11  19
ATOM     19  C   UNL     1      -0.913  13.219  21.624  0.00  0.00    +0.000 C 
ATOM     20  C   UNL     1      -1.448  12.699  22.953  0.00  0.00    +0.000 C 
ENDBRANCH  11  19
ENDBRANCH   7  10
ENDBRANCH   4   7
BRANCH   1  21
ATOM     21  O   UNL     1       2.530   5.573  19.232  0.00  0.00    +0.000 OA
BRANCH  21  22
ATOM     22  C   UNL     1       1.935   4.815  18.171  0.00  0.00    +0.000 C 
BRANCH  22  23
ATOM     23  C   UNL     1       2.886   3.731  17.690  0.00  0.00    +0.000 C 
BRANCH  23  24
ATOM     24  C   UNL     1       4.216   3.794  18.459  0.00  0.00    +0.000 C 
BRANCH  24  25
ATOM     25  N   UNL     1       5.401   4.203  17.659  0.00  0.00    +0.000 NA
BRANCH  25  26
ATOM     26  C   UNL     1       5.065   4.118  16.216  0.00  0.00    +0.000 C 
BRANCH  26  27
ATOM     27  C   UNL     1       6.138   3.635  15.231  0.00  0.00    +0.000 C 
BRANCH  27  29
ATOM     28  C   UNL     1       6.045   3.538  12.736  0.00  0.00    +0.000 C 
ATOM     29  C   UNL     1       6.246   4.449  13.942  0.00  0.00    +0.000 C 
ENDBRANCH  27  29
ENDBRANCH  26  27
ENDBRANCH  25  26
BRANCH  25  30
ATOM     30  C   UNL     1       5.830   5.572  18.031  0.00  0.00    +0.000 C 
BRANCH  30  31
ATOM     31  C   UNL     1       6.964   5.683  19.072  0.00  0.00    +0.000 C 
BRANCH  31  32
ATOM     32  C   UNL     1       8.074   6.672  18.709  0.00  0.00    +0.000 C 
ATOM     33  C   UNL     1       7.609   7.609  17.600  0.00  0.00    +0.000 C 
ENDBRANCH  31  32
ENDBRANCH  30  31
ENDBRANCH  25  30
ENDBRANCH  24  25
ENDBRANCH  23  24
ENDBRANCH  22  23
ENDBRANCH  21  22
ENDBRANCH   1  21
TORSDOF 14
ENDMDL
MODEL 2
REMARK VINA RESULT:      -7.2      1.838      4.229
REMARK  Name = 
REMARK  17 active torsions:
REMARK  status: ('A' for Active; 'I' for Inactive)
REMARK    1  A    between atoms: C_1  and  C_2
REMARK    2  A    between atoms: C_2  and  C_3
REMARK    3  A    between atoms: C_3  and  C_4
REMARK    4  A    between atoms: C_4  and  N_5
REMARK    5  A    between atoms: N_5  and  C_6
REMARK    6  A    between atoms: N_5  and  C_10
REMARK    7  A    between atoms: C_6  and  C_7
REMARK    8  A    between atoms: C_7  and  C_8
REMARK    9  A    between atoms: C_8  and  C_9
REMARK   10  A    between atoms: C_10  and  C_11
REMARK   11  A    between atoms: C_11  and  C_12
REMARK   12  A    between atoms: C_12  and  O_13
REMARK   13  A    between atoms: O_13  and  C_14
REMARK   14  A    between atoms: C_17  and  S_18
REMARK   15  A    between atoms: S_18  and  C_21
REMARK   16  A    between atoms: C_22  and  C_23
REMARK   17  A    between atoms: C_23  and  C_24
REMARK                            x       y       z     vdW  Elec       q    Type
REMARK                         _______ _______ _______ _____ _____    ______ ____
ROOT
ATOM      1  C   UNL     1       2.819   7.187  18.263  0.00  0.00    +0.000 A 
ATOM      2  C   UNL     1       2.473   6.912  19.593  0.00  0.00    +0.000 A 
ATOM      3  C   UNL     1       1.780   7.849  20.357  0.00  0.00    +0.000 A 
ATOM      4  C   UNL     1       1.397   9.057  19.779  0.00  0.00    +0.000 A 
ATOM      5  C   UNL     1       1.763   9.368  18.464  0.00  0.00    +0.000 A 
ATOM      6  C   UNL     1       2.468   8.424  17.707  0.00  0.00    +0.000 A 
ENDROOT
BRANCH   4   7
ATOM      7  S   UNL     1       0.377  10.148  20.728  0.00  0.00    +0.000 S 
ATOM      8  O   UNL     1      -0.919   9.525  20.885  0.00  0.00    +0.000 OA
ATOM      9  O   UNL     1       1.147  10.621  21.863  0.00  0.00    +0.000 OA
BRANCH   7  10
ATOM     10  C   UNL     1       0.071  11.581  19.795  0.00  0.00    +0.000 A 
ATOM     11  C   UNL     1      -1.014  11.697  18.854  0.00  0.00    +0.000 A 
ATOM     12  C   UNL     1      -0.966  12.987  18.363  0.00  0.00    +0.000 A 
ATOM     13  N   UNL     1       0.084  13.659  18.936  0.00  0.00    +0.000 N 
ATOM     14  C   UNL     1       0.455  14.989  18.733  0.00  0.00    +0.000 A 
ATOM     15  C   UNL     1       1.525  15.487  19.375  0.00  0.00    +0.000 A 
ATOM     16  C   UNL     1       2.274  14.615  20.245  0.00  0.00    +0.000 A 
ATOM     17  C   UNL     1       1.905  13.342  20.451  0.00  0.00    +0.000 A 
ATOM     18  C   UNL     1       0.755  12.791  19.800  0.00  0.00    +0.000 A 
BRANCH  11  19
ATOM     19  C   UNL     1      -2.037  10.667  18.480  0.00  0.00    +0.000 C 
ATOM     20  C   UNL     1      -1.739   9.982  17.152  0.00  0.00    +0.000 C 
ENDBRANCH  11  19
ENDBRANCH   7  10
ENDBRANCH   4   7
BRANCH   1  21
ATOM     21  O   UNL     1       3.476   6.313  17.433  0.00  0.00    +0.000 OA
BRANCH  21  22
ATOM     22  C   UNL     1       3.893   5.097  18.065  0.00  0.00    +0.000 C 
BRANCH  22  23
ATOM     23  C   UNL     1       3.844   3.939  17.082  0.00  0.00    +0.000 C 
BRANCH  23  24
ATOM     24  C   UNL     1       5.251   3.616  16.552  0.00  0.00    +0.000 C 
BRANCH  24  25
ATOM     25  N   UNL     1       6.115   4.793  16.269  0.00  0.00    +0.000 NA
BRANCH  25  26
ATOM     26  C   UNL     1       7.290   4.760  17.174  0.00  0.00    +0.000 C 
BRANCH  26  27
ATOM     27  C   UNL     1       7.542   5.953  18.105  0.00  0.00    +0.000 C 
BRANCH  27  29
ATOM     28  C   UNL     1       8.080   8.375  17.800  0.00  0.00    +0.000 C 
ATOM     29  C   UNL     1       7.023   7.296  17.592  0.00  0.00    +0.000 C 
ENDBRANCH  27  29
ENDBRANCH  26  27
ENDBRANCH  25  26
BRANCH  25  30
ATOM     30  C   UNL     1       6.533   4.797  14.847  0.00  0.00    +0.000 C 
BRANCH  30  31
ATOM     31  C   UNL     1       5.882   3.739  13.931  0.00  0.00    +0.000 C 
BRANCH  31  32
ATOM     32  C   UNL     1       6.416   3.715  12.497  0.00  0.00    +0.000 C 
ATOM     33  C   UNL     1       5.755   2.595  11.702  0.00  0.00    +0.000 C 
ENDBRANCH  31  32
ENDBRANCH  30  31
ENDBRANCH  25  30
ENDBRANCH  24  25
ENDBRANCH  23  24
ENDBRANCH  22  23
ENDBRANCH  21  22
ENDBRANCH   1  21
TORSDOF 14
ENDMDL
MODEL 3
REMARK VINA RESULT:      -7.2      1.936      3.884
REMARK  Name = 
REMARK  17 active torsions:
REMARK  status: ('A' for Active; 'I' for Inactive)
REMARK    1  A    between atoms: C_1  and  C_2
REMARK    2  A    between atoms: C_2  and  C_3
REMARK    3  A    between atoms: C_3  and  C_4
REMARK    4  A    between atoms: C_4  and  N_5
REMARK    5  A    between atoms: N_5  and  C_6
REMARK    6  A    between atoms: N_5  and  C_10
REMARK    7  A    between atoms: C_6  and  C_7
REMARK    8  A    between atoms: C_7  and  C_8
REMARK    9  A    between atoms: C_8  and  C_9
REMARK   10  A    between atoms: C_10  and  C_11
REMARK   11  A    between atoms: C_11  and  C_12
REMARK   12  A    between atoms: C_12  and  O_13
REMARK   13  A    between atoms: O_13  and  C_14
REMARK   14  A    between atoms: C_17  and  S_18
REMARK   15  A    between atoms: S_18  and  C_21
REMARK   16  A    between atoms: C_22  and  C_23
REMARK   17  A    between atoms: C_23  and  C_24
REMARK                            x       y       z     vdW  Elec       q    Type
REMARK                         _______ _______ _______ _____ _____    ______ ____
ROOT
ATOM      1  C   UNL     1       1.371   8.664  19.584  0.00  0.00    +0.000 A 
ATOM      2  C   UNL     1       1.363   9.411  18.399  0.00  0.00    +0.000 A 
ATOM      3  C   UNL     1       0.508  10.501  18.249  0.00  0.00    +0.000 A 
ATOM      4  C   UNL     1      -0.322  10.871  19.304  0.00  0.00    +0.000 A 
ATOM      5  C   UNL     1      -0.358  10.118  20.484  0.00  0.00    +0.000 A 
ATOM      6  C   UNL     1       0.497   9.018  20.621  0.00  0.00    +0.000 A 
ENDROOT
BRANCH   4   7
ATOM      7  S   UNL     1      -1.270  12.356  19.136  0.00  0.00    +0.000 S 
ATOM      8  O   UNL     1      -1.350  12.985  20.437  0.00  0.00    +0.000 OA
ATOM      9  O   UNL     1      -0.798  13.069  17.964  0.00  0.00    +0.000 OA
BRANCH   7  10
ATOM     10  C   UNL     1      -2.908  11.934  18.746  0.00  0.00    +0.000 A 
ATOM     11  C   UNL     1      -3.288  11.283  17.518  0.00  0.00    +0.000 A 
ATOM     12  C   UNL     1      -4.649  11.062  17.600  0.00  0.00    +0.000 A 
ATOM     13  N   UNL     1      -5.123  11.545  18.793  0.00  0.00    +0.000 N 
ATOM     14  C   UNL     1      -6.432  11.489  19.274  0.00  0.00    +0.000 A 
ATOM     15  C   UNL     1      -6.725  12.025  20.471  0.00  0.00    +0.000 A 
ATOM     16  C   UNL     1      -5.670  12.665  21.216  0.00  0.00    +0.000 A 
ATOM     17  C   UNL     1      -4.410  12.703  20.759  0.00  0.00    +0.000 A 
ATOM     18  C   UNL     1      -4.063  12.118  19.499  0.00  0.00    +0.000 A 
BRANCH  11  19
ATOM     19  C   UNL     1      -2.413  10.874  16.371  0.00  0.00    +0.000 C 
ATOM     20  C   UNL     1      -3.200  10.386  15.162  0.00  0.00    +0.000 C 
ENDBRANCH  11  19
ENDBRANCH   7  10
ENDBRANCH   4   7
BRANCH   1  21
ATOM     21  O   UNL     1       2.197   7.595  19.826  0.00  0.00    +0.000 OA
BRANCH  21  22
ATOM     22  C   UNL     1       2.922   7.136  18.679  0.00  0.00    +0.000 C 
BRANCH  22  23
ATOM     23  C   UNL     1       2.754   5.635  18.504  0.00  0.00    +0.000 C 
BRANCH  23  24
ATOM     24  C   UNL     1       3.975   4.884  19.060  0.00  0.00    +0.000 C 
BRANCH  24  25
ATOM     25  N   UNL     1       4.624   3.930  18.121  0.00  0.00    +0.000 NA
BRANCH  25  26
ATOM     26  C   UNL     1       3.676   2.832  17.815  0.00  0.00    +0.000 C 
BRANCH  26  27
ATOM     27  C   UNL     1       3.075   2.025  18.974  0.00  0.00    +0.000 C 
BRANCH  27  29
ATOM     28  C   UNL     1       1.193   2.793  20.428  0.00  0.00    +0.000 C 
ATOM     29  C   UNL     1       1.556   2.120  19.109  0.00  0.00    +0.000 C 
ENDBRANCH  27  29
ENDBRANCH  26  27
ENDBRANCH  25  26
BRANCH  25  30
ATOM     30  C   UNL     1       5.054   4.630  16.888  0.00  0.00    +0.000 C 
BRANCH  30  31
ATOM     31  C   UNL     1       6.553   4.546  16.531  0.00  0.00    +0.000 C 
BRANCH  31  32
ATOM     32  C   UNL     1       7.504   4.647  17.726  0.00  0.00    +0.000 C 
ATOM     33  C   UNL     1       7.554   6.080  18.247  0.00  0.00    +0.000 C 
ENDBRANCH  31  32
ENDBRANCH  30  31
ENDBRANCH  25  30
ENDBRANCH  24  25
ENDBRANCH  23  24
ENDBRANCH  22  23
ENDBRANCH  21  22
ENDBRANCH   1  21
TORSDOF 14
ENDMDL
MODEL 4
REMARK VINA RESULT:      -7.2      0.895      1.191
REMARK  Name = 
REMARK  17 active torsions:
REMARK  status: ('A' for Active; 'I' for Inactive)
REMARK    1  A    between atoms: C_1  and  C_2
REMARK    2  A    between atoms: C_2  and  C_3
REMARK    3  A    between atoms: C_3  and  C_4
REMARK    4  A    between atoms: C_4  and  N_5
REMARK    5  A    between atoms: N_5  and  C_6
REMARK    6  A    between atoms: N_5  and  C_10
REMARK    7  A    between atoms: C_6  and  C_7
REMARK    8  A    between atoms: C_7  and  C_8
REMARK    9  A    between atoms: C_8  and  C_9
REMARK   10  A    between atoms: C_10  and  C_11
REMARK   11  A    between atoms: C_11  and  C_12
REMARK   12  A    between atoms: C_12  and  O_13
REMARK   13  A    between atoms: O_13  and  C_14
REMARK   14  A    between atoms: C_17  and  S_18
REMARK   15  A    between atoms: S_18  and  C_21
REMARK   16  A    between atoms: C_22  and  C_23
REMARK   17  A    between atoms: C_23  and  C_24
REMARK                            x       y       z     vdW  Elec       q    Type
REMARK                         _______ _______ _______ _____ _____    ______ ____
ROOT
ATOM      1  C   UNL     1       2.247   7.491  18.736  0.00  0.00    +0.000 A 
ATOM      2  C   UNL     1       2.266   8.574  17.846  0.00  0.00    +0.000 A 
ATOM      3  C   UNL     1       1.752   9.813  18.221  0.00  0.00    +0.000 A 
ATOM      4  C   UNL     1       1.246   9.985  19.507  0.00  0.00    +0.000 A 
ATOM      5  C   UNL     1       1.183   8.909  20.401  0.00  0.00    +0.000 A 
ATOM      6  C   UNL     1       1.693   7.664  20.011  0.00  0.00    +0.000 A 
ENDROOT
BRANCH   4   7
ATOM      7  S   UNL     1       0.755  11.612  20.000  0.00  0.00    +0.000 S 
ATOM      8  O   UNL     1       0.897  11.707  21.436  0.00  0.00    +0.000 OA
ATOM      9  O   UNL     1       1.375  12.568  19.100  0.00  0.00    +0.000 OA
BRANCH   7  10
ATOM     10  C   UNL     1      -0.947  11.797  19.708  0.00  0.00    +0.000 A 
ATOM     11  C   UNL     1      -1.798  12.652  20.496  0.00  0.00    +0.000 A 
ATOM     12  C   UNL     1      -3.055  12.579  19.928  0.00  0.00    +0.000 A 
ATOM     13  N   UNL     1      -3.025  11.728  18.853  0.00  0.00    +0.000 N 
ATOM     14  C   UNL     1      -4.077  11.408  17.992  0.00  0.00    +0.000 A 
ATOM     15  C   UNL     1      -3.873  10.540  16.986  0.00  0.00    +0.000 A 
ATOM     16  C   UNL     1      -2.567   9.948  16.842  0.00  0.00    +0.000 A 
ATOM     17  C   UNL     1      -1.554  10.270  17.660  0.00  0.00    +0.000 A 
ATOM     18  C   UNL     1      -1.735  11.209  18.724  0.00  0.00    +0.000 A 
BRANCH  11  19
ATOM     19  C   UNL     1      -1.430  13.498  21.678  0.00  0.00    +0.000 C 
ATOM     20  C   UNL     1      -2.126  14.853  21.682  0.00  0.00    +0.000 C 
ENDBRANCH  11  19
ENDBRANCH   7  10
ENDBRANCH   4   7
BRANCH   1  21
ATOM     21  O   UNL     1       2.756   6.247  18.459  0.00  0.00    +0.000 OA
BRANCH  21  22
ATOM     22  C   UNL     1       3.550   5.685  19.511  0.00  0.00    +0.000 C 
BRANCH  22  23
ATOM     23  C   UNL     1       4.557   4.694  18.950  0.00  0.00    +0.000 C 
BRANCH  23  24
ATOM     24  C   UNL     1       4.358   4.515  17.436  0.00  0.00    +0.000 C 
BRANCH  24  25
ATOM     25  N   UNL     1       5.528   4.870  16.589  0.00  0.00    +0.000 NA
BRANCH  25  26
ATOM     26  C   UNL     1       5.225   4.528  15.178  0.00  0.00    +0.000 C 
BRANCH  26  27
ATOM     27  C   UNL     1       6.320   3.878  14.320  0.00  0.00    +0.000 C 
BRANCH  27  29
ATOM     28  C   UNL     1       7.084   3.983  11.943  0.00  0.00    +0.000 C 
ATOM     29  C   UNL     1       5.930   3.610  12.867  0.00  0.00    +0.000 C 
ENDBRANCH  27  29
ENDBRANCH  26  27
ENDBRANCH  25  26
BRANCH  25  30
ATOM     30  C   UNL     1       5.857   6.307  16.736  0.00  0.00    +0.000 C 
BRANCH  30  31
ATOM     31  C   UNL     1       7.353   6.666  16.860  0.00  0.00    +0.000 C 
BRANCH  31  32
ATOM     32  C   UNL     1       7.802   7.069  18.266  0.00  0.00    +0.000 C 
ATOM     33  C   UNL     1       7.939   5.837  19.155  0.00  0.00    +0.000 C 
ENDBRANCH  31  32
ENDBRANCH  30  31
ENDBRANCH  25  30
ENDBRANCH  24  25
ENDBRANCH  23  24
ENDBRANCH  22  23
ENDBRANCH  21  22
ENDBRANCH   1  21
TORSDOF 14
ENDMDL
MODEL 5
REMARK VINA RESULT:      -7.1      1.682      3.137
REMARK  Name = 
REMARK  17 active torsions:
REMARK  status: ('A' for Active; 'I' for Inactive)
REMARK    1  A    between atoms: C_1  and  C_2
REMARK    2  A    between atoms: C_2  and  C_3
REMARK    3  A    between atoms: C_3  and  C_4
REMARK    4  A    between atoms: C_4  and  N_5
REMARK    5  A    between atoms: N_5  and  C_6
REMARK    6  A    between atoms: N_5  and  C_10
REMARK    7  A    between atoms: C_6  and  C_7
REMARK    8  A    between atoms: C_7  and  C_8
REMARK    9  A    between atoms: C_8  and  C_9
REMARK   10  A    between atoms: C_10  and  C_11
REMARK   11  A    between atoms: C_11  and  C_12
REMARK   12  A    between atoms: C_12  and  O_13
REMARK   13  A    between atoms: O_13  and  C_14
REMARK   14  A    between atoms: C_17  and  S_18
REMARK   15  A    between atoms: S_18  and  C_21
REMARK   16  A    between atoms: C_22  and  C_23
REMARK   17  A    between atoms: C_23  and  C_24
REMARK                            x       y       z     vdW  Elec       q    Type
REMARK                         _______ _______ _______ _____ _____    ______ ____
ROOT
ATOM      1  C   UNL     1       2.592   6.924  18.425  0.00  0.00    +0.000 A 
ATOM      2  C   UNL     1       2.239   6.695  19.762  0.00  0.00    +0.000 A 
ATOM      3  C   UNL     1       1.618   7.688  20.516  0.00  0.00    +0.000 A 
ATOM      4  C   UNL     1       1.313   8.910  19.921  0.00  0.00    +0.000 A 
ATOM      5  C   UNL     1       1.689   9.175  18.599  0.00  0.00    +0.000 A 
ATOM      6  C   UNL     1       2.322   8.174  17.852  0.00  0.00    +0.000 A 
ENDROOT
BRANCH   4   7
ATOM      7  S   UNL     1       0.378  10.084  20.860  0.00  0.00    +0.000 S 
ATOM      8  O   UNL     1      -0.894   9.480  21.190  0.00  0.00    +0.000 OA
ATOM      9  O   UNL     1       1.247  10.653  21.873  0.00  0.00    +0.000 OA
BRANCH   7  10
ATOM     10  C   UNL     1      -0.020  11.429  19.837  0.00  0.00    +0.000 A 
ATOM     11  C   UNL     1      -0.988  11.356  18.772  0.00  0.00    +0.000 A 
ATOM     12  C   UNL     1      -1.071  12.625  18.234  0.00  0.00    +0.000 A 
ATOM     13  N   UNL     1      -0.209  13.462  18.896  0.00  0.00    +0.000 N 
ATOM     14  C   UNL     1      -0.016  14.828  18.679  0.00  0.00    +0.000 A 
ATOM     15  C   UNL     1       0.883  15.499  19.419  0.00  0.00    +0.000 A 
ATOM     16  C   UNL     1       1.641  14.772  20.407  0.00  0.00    +0.000 A 
ATOM     17  C   UNL     1       1.442  13.463  20.624  0.00  0.00    +0.000 A 
ATOM     18  C   UNL     1       0.473  12.729  19.868  0.00  0.00    +0.000 A 
BRANCH  11  19
ATOM     19  C   UNL     1      -1.796  10.173  18.327  0.00  0.00    +0.000 C 
ATOM     20  C   UNL     1      -3.170  10.554  17.793  0.00  0.00    +0.000 C 
ENDBRANCH  11  19
ENDBRANCH   7  10
ENDBRANCH   4   7
BRANCH   1  21
ATOM     21  O   UNL     1       3.180   5.995  17.605  0.00  0.00    +0.000 OA
BRANCH  21  22
ATOM     22  C   UNL     1       2.920   4.634  17.969  0.00  0.00    +0.000 C 
BRANCH  22  23
ATOM     23  C   UNL     1       4.217   3.848  18.069  0.00  0.00    +0.000 C 
BRANCH  23  24
ATOM     24  C   UNL     1       5.430   4.790  17.986  0.00  0.00    +0.000 C 
BRANCH  24  25
ATOM     25  N   UNL     1       6.467   4.416  16.988  0.00  0.00    +0.000 NA
BRANCH  25  26
ATOM     26  C   UNL     1       5.806   3.803  15.810  0.00  0.00    +0.000 C 
BRANCH  26  27
ATOM     27  C   UNL     1       5.705   4.615  14.511  0.00  0.00    +0.000 C 
BRANCH  27  29
ATOM     28  C   UNL     1       6.621   3.650  12.396  0.00  0.00    +0.000 C 
ATOM     29  C   UNL     1       5.375   3.799  13.262  0.00  0.00    +0.000 C 
ENDBRANCH  27  29
ENDBRANCH  26  27
ENDBRANCH  25  26
BRANCH  25  30
ATOM     30  C   UNL     1       7.266   5.602  16.601  0.00  0.00    +0.000 C 
BRANCH  30  31
ATOM     31  C   UNL     1       6.906   6.934  17.293  0.00  0.00    +0.000 C 
BRANCH  31  32
ATOM     32  C   UNL     1       8.027   7.542  18.138  0.00  0.00    +0.000 C 
ATOM     33  C   UNL     1       8.097   9.050  17.924  0.00  0.00    +0.000 C 
ENDBRANCH  31  32
ENDBRANCH  30  31
ENDBRANCH  25  30
ENDBRANCH  24  25
ENDBRANCH  23  24
ENDBRANCH  22  23
ENDBRANCH  21  22
ENDBRANCH   1  21
TORSDOF 14
ENDMDL
MODEL 6
REMARK VINA RESULT:      -7.0      0.928      1.038
REMARK  Name = 
REMARK  17 active torsions:
REMARK  status: ('A' for Active; 'I' for Inactive)
REMARK    1  A    between atoms: C_1  and  C_2
REMARK    2  A    between atoms: C_2  and  C_3
REMARK    3  A    between atoms: C_3  and  C_4
REMARK    4  A    between atoms: C_4  and  N_5
REMARK    5  A    between atoms: N_5  and  C_6
REMARK    6  A    between atoms: N_5  and  C_10
REMARK    7  A    between atoms: C_6  and  C_7
REMARK    8  A    between atoms: C_7  and  C_8
REMARK    9  A    between atoms: C_8  and  C_9
REMARK   10  A    between atoms: C_10  and  C_11
REMARK   11  A    between atoms: C_11  and  C_12
REMARK   12  A    between atoms: C_12  and  O_13
REMARK   13  A    between atoms: O_13  and  C_14
REMARK   14  A    between atoms: C_17  and  S_18
REMARK   15  A    between atoms: S_18  and  C_21
REMARK   16  A    between atoms: C_22  and  C_23
REMARK   17  A    between atoms: C_23  and  C_24
REMARK                            x       y       z     vdW  Elec       q    Type
REMARK                         _______ _______ _______ _____ _____    ______ ____
ROOT
ATOM      1  C   UNL     1       2.108   7.547  18.549  0.00  0.00    +0.000 A 
ATOM      2  C   UNL     1       2.160   8.653  17.690  0.00  0.00    +0.000 A 
ATOM      3  C   UNL     1       1.727   9.908  18.116  0.00  0.00    +0.000 A 
ATOM      4  C   UNL     1       1.271  10.068  19.422  0.00  0.00    +0.000 A 
ATOM      5  C   UNL     1       1.175   8.971  20.286  0.00  0.00    +0.000 A 
ATOM      6  C   UNL     1       1.603   7.713  19.845  0.00  0.00    +0.000 A 
ENDROOT
BRANCH   4   7
ATOM      7  S   UNL     1       0.887  11.705  19.975  0.00  0.00    +0.000 S 
ATOM      8  O   UNL     1       1.137  11.766  21.399  0.00  0.00    +0.000 OA
ATOM      9  O   UNL     1       1.481  12.651  19.048  0.00  0.00    +0.000 OA
BRANCH   7  10
ATOM     10  C   UNL     1      -0.822  11.965  19.812  0.00  0.00    +0.000 A 
ATOM     11  C   UNL     1      -1.544  12.973  20.546  0.00  0.00    +0.000 A 
ATOM     12  C   UNL     1      -2.852  12.912  20.106  0.00  0.00    +0.000 A 
ATOM     13  N   UNL     1      -2.973  11.926  19.161  0.00  0.00    +0.000 N 
ATOM     14  C   UNL     1      -4.120  11.568  18.449  0.00  0.00    +0.000 A 
ATOM     15  C   UNL     1      -4.063  10.563  17.558  0.00  0.00    +0.000 A 
ATOM     16  C   UNL     1      -2.812   9.869  17.382  0.00  0.00    +0.000 A 
ATOM     17  C   UNL     1      -1.709  10.226  18.056  0.00  0.00    +0.000 A 
ATOM     18  C   UNL     1      -1.733  11.308  18.992  0.00  0.00    +0.000 A 
BRANCH  11  19
ATOM     19  C   UNL     1      -1.017  13.942  21.563  0.00  0.00    +0.000 C 
ATOM     20  C   UNL     1      -2.061  14.950  22.025  0.00  0.00    +0.000 C 
ENDBRANCH  11  19
ENDBRANCH   7  10
ENDBRANCH   4   7
BRANCH   1  21
ATOM     21  O   UNL     1       2.537   6.286  18.221  0.00  0.00    +0.000 OA
BRANCH  21  22
ATOM     22  C   UNL     1       2.371   5.315  19.262  0.00  0.00    +0.000 C 
BRANCH  22  23
ATOM     23  C   UNL     1       3.720   4.876  19.805  0.00  0.00    +0.000 C 
BRANCH  23  24
ATOM     24  C   UNL     1       4.860   5.393  18.911  0.00  0.00    +0.000 C 
BRANCH  24  25
ATOM     25  N   UNL     1       5.623   4.349  18.176  0.00  0.00    +0.000 NA
BRANCH  25  26
ATOM     26  C   UNL     1       4.943   4.068  16.888  0.00  0.00    +0.000 C 
BRANCH  26  27
ATOM     27  C   UNL     1       5.466   4.741  15.611  0.00  0.00    +0.000 C 
BRANCH  27  29
ATOM     28  C   UNL     1       6.689   4.587  13.437  0.00  0.00    +0.000 C 
ATOM     29  C   UNL     1       6.065   3.789  14.577  0.00  0.00    +0.000 C 
ENDBRANCH  27  29
ENDBRANCH  26  27
ENDBRANCH  25  26
BRANCH  25  30
ATOM     30  C   UNL     1       7.023   4.786  17.962  0.00  0.00    +0.000 C 
BRANCH  30  31
ATOM     31  C   UNL     1       7.656   5.649  19.073  0.00  0.00    +0.000 C 
BRANCH  31  32
ATOM     32  C   UNL     1       8.065   7.058  18.638  0.00  0.00    +0.000 C 
ATOM     33  C   UNL     1       7.433   7.403  17.293  0.00  0.00    +0.000 C 
ENDBRANCH  31  32
ENDBRANCH  30  31
ENDBRANCH  25  30
ENDBRANCH  24  25
ENDBRANCH  23  24
ENDBRANCH  22  23
ENDBRANCH  21  22
ENDBRANCH   1  21
TORSDOF 14
ENDMDL
MODEL 7
REMARK VINA RESULT:      -7.0      1.499      2.626
REMARK  Name = 
REMARK  17 active torsions:
REMARK  status: ('A' for Active; 'I' for Inactive)
REMARK    1  A    between atoms: C_1  and  C_2
REMARK    2  A    between atoms: C_2  and  C_3
REMARK    3  A    between atoms: C_3  and  C_4
REMARK    4  A    between atoms: C_4  and  N_5
REMARK    5  A    between atoms: N_5  and  C_6
REMARK    6  A    between atoms: N_5  and  C_10
REMARK    7  A    between atoms: C_6  and  C_7
REMARK    8  A    between atoms: C_7  and  C_8
REMARK    9  A    between atoms: C_8  and  C_9
REMARK   10  A    between atoms: C_10  and  C_11
REMARK   11  A    between atoms: C_11  and  C_12
REMARK   12  A    between atoms: C_12  and  O_13
REMARK   13  A    between atoms: O_13  and  C_14
REMARK   14  A    between atoms: C_17  and  S_18
REMARK   15  A    between atoms: S_18  and  C_21
REMARK   16  A    between atoms: C_22  and  C_23
REMARK   17  A    between atoms: C_23  and  C_24
REMARK                            x       y       z     vdW  Elec       q    Type
REMARK                         _______ _______ _______ _____ _____    ______ ____
ROOT
ATOM      1  C   UNL     1       2.181   8.324  18.612  0.00  0.00    +0.000 A 
ATOM      2  C   UNL     1       2.128   9.537  17.912  0.00  0.00    +0.000 A 
ATOM      3  C   UNL     1       1.466  10.640  18.447  0.00  0.00    +0.000 A 
ATOM      4  C   UNL     1       0.881  10.545  19.707  0.00  0.00    +0.000 A 
ATOM      5  C   UNL     1       0.889   9.334  20.409  0.00  0.00    +0.000 A 
ATOM      6  C   UNL     1       1.548   8.227  19.859  0.00  0.00    +0.000 A 
ENDROOT
BRANCH   4   7
ATOM      7  S   UNL     1       0.196  12.012  20.421  0.00  0.00    +0.000 S 
ATOM      8  O   UNL     1       0.233  11.868  21.860  0.00  0.00    +0.000 OA
ATOM      9  O   UNL     1       0.772  13.160  19.746  0.00  0.00    +0.000 OA
BRANCH   7  10
ATOM     10  C   UNL     1      -1.493  12.091  20.026  0.00  0.00    +0.000 A 
ATOM     11  C   UNL     1      -2.445  12.877  20.769  0.00  0.00    +0.000 A 
ATOM     12  C   UNL     1      -3.657  12.732  20.123  0.00  0.00    +0.000 A 
ATOM     13  N   UNL     1      -3.506  11.900  19.043  0.00  0.00    +0.000 N 
ATOM     14  C   UNL     1      -4.481  11.526  18.116  0.00  0.00    +0.000 A 
ATOM     15  C   UNL     1      -4.160  10.688  17.115  0.00  0.00    +0.000 A 
ATOM     16  C   UNL     1      -2.811  10.183  17.045  0.00  0.00    +0.000 A 
ATOM     17  C   UNL     1      -1.873  10.558  17.928  0.00  0.00    +0.000 A 
ATOM     18  C   UNL     1      -2.180  11.468  18.989  0.00  0.00    +0.000 A 
BRANCH  11  19
ATOM     19  C   UNL     1      -2.207  13.728  21.981  0.00  0.00    +0.000 C 
ATOM     20  C   UNL     1      -3.455  13.919  22.832  0.00  0.00    +0.000 C 
ENDBRANCH  11  19
ENDBRANCH   7  10
ENDBRANCH   4   7
BRANCH   1  21
ATOM     21  O   UNL     1       2.832   7.199  18.173  0.00  0.00    +0.000 OA
BRANCH  21  22
ATOM     22  C   UNL     1       2.432   5.990  18.830  0.00  0.00    +0.000 C 
BRANCH  22  23
ATOM     23  C   UNL     1       3.517   5.512  19.781  0.00  0.00    +0.000 C 
BRANCH  23  24
ATOM     24  C   UNL     1       4.600   4.731  19.020  0.00  0.00    +0.000 C 
BRANCH  24  25
ATOM     25  N   UNL     1       4.227   4.283  17.652  0.00  0.00    +0.000 NA
BRANCH  25  26
ATOM     26  C   UNL     1       5.324   4.628  16.714  0.00  0.00    +0.000 C 
BRANCH  26  27
ATOM     27  C   UNL     1       5.137   4.343  15.217  0.00  0.00    +0.000 C 
BRANCH  27  29
ATOM     28  C   UNL     1       6.092   3.676  13.006  0.00  0.00    +0.000 C 
ATOM     29  C   UNL     1       6.420   4.009  14.457  0.00  0.00    +0.000 C 
ENDBRANCH  27  29
ENDBRANCH  26  27
ENDBRANCH  25  26
BRANCH  25  30
ATOM     30  C   UNL     1       3.948   2.828  17.641  0.00  0.00    +0.000 C 
BRANCH  30  31
ATOM     31  C   UNL     1       2.464   2.408  17.683  0.00  0.00    +0.000 C 
BRANCH  31  32
ATOM     32  C   UNL     1       1.956   1.983  19.063  0.00  0.00    +0.000 C 
ATOM     33  C   UNL     1       0.794   2.869  19.498  0.00  0.00    +0.000 C 
ENDBRANCH  31  32
ENDBRANCH  30  31
ENDBRANCH  25  30
ENDBRANCH  24  25
ENDBRANCH  23  24
ENDBRANCH  22  23
ENDBRANCH  21  22
ENDBRANCH   1  21
TORSDOF 14
ENDMDL
MODEL 8
REMARK VINA RESULT:      -7.0      0.901      2.679
REMARK  Name = 
REMARK  17 active torsions:
REMARK  status: ('A' for Active; 'I' for Inactive)
REMARK    1  A    between atoms: C_1  and  C_2
REMARK    2  A    between atoms: C_2  and  C_3
REMARK    3  A    between atoms: C_3  and  C_4
REMARK    4  A    between atoms: C_4  and  N_5
REMARK    5  A    between atoms: N_5  and  C_6
REMARK    6  A    between atoms: N_5  and  C_10
REMARK    7  A    between atoms: C_6  and  C_7
REMARK    8  A    between atoms: C_7  and  C_8
REMARK    9  A    between atoms: C_8  and  C_9
REMARK   10  A    between atoms: C_10  and  C_11
REMARK   11  A    between atoms: C_11  and  C_12
REMARK   12  A    between atoms: C_12  and  O_13
REMARK   13  A    between atoms: O_13  and  C_14
REMARK   14  A    between atoms: C_17  and  S_18
REMARK   15  A    between atoms: S_18  and  C_21
REMARK   16  A    between atoms: C_22  and  C_23
REMARK   17  A    between atoms: C_23  and  C_24
REMARK                            x       y       z     vdW  Elec       q    Type
REMARK                         _______ _______ _______ _____ _____    ______ ____
ROOT
ATOM      1  C   UNL     1       2.254   6.995  18.911  0.00  0.00    +0.000 A 
ATOM      2  C   UNL     1       2.312   8.041  17.981  0.00  0.00    +0.000 A 
ATOM      3  C   UNL     1       1.857   9.316  18.313  0.00  0.00    +0.000 A 
ATOM      4  C   UNL     1       1.372   9.559  19.595  0.00  0.00    +0.000 A 
ATOM      5  C   UNL     1       1.269   8.521  20.529  0.00  0.00    +0.000 A 
ATOM      6  C   UNL     1       1.720   7.241  20.183  0.00  0.00    +0.000 A 
ENDROOT
BRANCH   4   7
ATOM      7  S   UNL     1       0.959  11.224  20.028  0.00  0.00    +0.000 S 
ATOM      8  O   UNL     1       1.081  11.356  21.464  0.00  0.00    +0.000 OA
ATOM      9  O   UNL     1       1.643  12.117  19.112  0.00  0.00    +0.000 OA
BRANCH   7  10
ATOM     10  C   UNL     1      -0.726  11.487  19.700  0.00  0.00    +0.000 A 
ATOM     11  C   UNL     1      -1.571  12.322  20.515  0.00  0.00    +0.000 A 
ATOM     12  C   UNL     1      -2.811  12.330  19.908  0.00  0.00    +0.000 A 
ATOM     13  N   UNL     1      -2.778  11.546  18.783  0.00  0.00    +0.000 N 
ATOM     14  C   UNL     1      -3.813  11.318  17.874  0.00  0.00    +0.000 A 
ATOM     15  C   UNL     1      -3.608  10.507  16.822  0.00  0.00    +0.000 A 
ATOM     16  C   UNL     1      -2.319   9.878  16.678  0.00  0.00    +0.000 A 
ATOM     17  C   UNL     1      -1.321  10.112  17.544  0.00  0.00    +0.000 A 
ATOM     18  C   UNL     1      -1.503  10.991  18.659  0.00  0.00    +0.000 A 
BRANCH  11  19
ATOM     19  C   UNL     1      -1.212  13.080  21.758  0.00  0.00    +0.000 C 
ATOM     20  C   UNL     1      -2.373  13.887  22.324  0.00  0.00    +0.000 C 
ENDBRANCH  11  19
ENDBRANCH   7  10
ENDBRANCH   4   7
BRANCH   1  21
ATOM     21  O   UNL     1       2.703   5.720  18.679  0.00  0.00    +0.000 OA
BRANCH  21  22
ATOM     22  C   UNL     1       3.418   5.135  19.774  0.00  0.00    +0.000 C 
BRANCH  22  23
ATOM     23  C   UNL     1       4.730   4.533  19.297  0.00  0.00    +0.000 C 
BRANCH  23  24
ATOM     24  C   UNL     1       4.773   4.472  17.761  0.00  0.00    +0.000 C 
BRANCH  24  25
ATOM     25  N   UNL     1       5.732   5.404  17.109  0.00  0.00    +0.000 NA
BRANCH  25  26
ATOM     26  C   UNL     1       6.272   6.336  18.128  0.00  0.00    +0.000 C 
BRANCH  26  27
ATOM     27  C   UNL     1       7.693   6.887  17.951  0.00  0.00    +0.000 C 
BRANCH  27  29
ATOM     28  C   UNL     1       8.601   9.157  18.471  0.00  0.00    +0.000 C 
ATOM     29  C   UNL     1       7.770   8.342  17.487  0.00  0.00    +0.000 C 
ENDBRANCH  27  29
ENDBRANCH  26  27
ENDBRANCH  25  26
BRANCH  25  30
ATOM     30  C   UNL     1       6.818   4.646  16.444  0.00  0.00    +0.000 C 
BRANCH  30  31
ATOM     31  C   UNL     1       7.158   5.051  14.994  0.00  0.00    +0.000 C 
BRANCH  31  32
ATOM     32  C   UNL     1       6.740   4.036  13.929  0.00  0.00    +0.000 C 
ATOM     33  C   UNL     1       5.223   4.025  13.771  0.00  0.00    +0.000 C 
ENDBRANCH  31  32
ENDBRANCH  30  31
ENDBRANCH  25  30
ENDBRANCH  24  25
ENDBRANCH  23  24
ENDBRANCH  22  23
ENDBRANCH  21  22
ENDBRANCH   1  21
TORSDOF 14
ENDMDL
MODEL 9
REMARK VINA RESULT:      -6.9      1.014      2.748
REMARK  Name = 
REMARK  17 active torsions:
REMARK  status: ('A' for Active; 'I' for Inactive)
REMARK    1  A    between atoms: C_1  and  C_2
REMARK    2  A    between atoms: C_2  and  C_3
REMARK    3  A    between atoms: C_3  and  C_4
REMARK    4  A    between atoms: C_4  and  N_5
REMARK    5  A    between atoms: N_5  and  C_6
REMARK    6  A    between atoms: N_5  and  C_10
REMARK    7  A    between atoms: C_6  and  C_7
REMARK    8  A    between atoms: C_7  and  C_8
REMARK    9  A    between atoms: C_8  and  C_9
REMARK   10  A    between atoms: C_10  and  C_11
REMARK   11  A    between atoms: C_11  and  C_12
REMARK   12  A    between atoms: C_12  and  O_13
REMARK   13  A    between atoms: O_13  and  C_14
REMARK   14  A    between atoms: C_17  and  S_18
REMARK   15  A    between atoms: S_18  and  C_21
REMARK   16  A    between atoms: C_22  and  C_23
REMARK   17  A    between atoms: C_23  and  C_24
REMARK                            x       y       z     vdW  Elec       q    Type
REMARK                         _______ _______ _______ _____ _____    ______ ____
ROOT
ATOM      1  C   UNL     1       2.082   7.909  18.776  0.00  0.00    +0.000 A 
ATOM      2  C   UNL     1       1.537   7.987  20.064  0.00  0.00    +0.000 A 
ATOM      3  C   UNL     1       1.050   9.195  20.560  0.00  0.00    +0.000 A 
ATOM      4  C   UNL     1       1.074  10.327  19.751  0.00  0.00    +0.000 A 
ATOM      5  C   UNL     1       1.647  10.282  18.474  0.00  0.00    +0.000 A 
ATOM      6  C   UNL     1       2.143   9.066  17.989  0.00  0.00    +0.000 A 
ENDROOT
BRANCH   4   7
ATOM      7  S   UNL     1       0.297  11.799  20.354  0.00  0.00    +0.000 S 
ATOM      8  O   UNL     1       0.200  11.696  21.793  0.00  0.00    +0.000 OA
ATOM      9  O   UNL     1       0.914  12.940  19.703  0.00  0.00    +0.000 OA
BRANCH   7  10
ATOM     10  C   UNL     1      -1.348  11.832  19.799  0.00  0.00    +0.000 A 
ATOM     11  C   UNL     1      -2.382  12.611  20.431  0.00  0.00    +0.000 A 
ATOM     12  C   UNL     1      -3.524  12.427  19.677  0.00  0.00    +0.000 A 
ATOM     13  N   UNL     1      -3.254  11.578  18.633  0.00  0.00    +0.000 N 
ATOM     14  C   UNL     1      -4.127  11.164  17.626  0.00  0.00    +0.000 A 
ATOM     15  C   UNL     1      -3.695  10.315  16.678  0.00  0.00    +0.000 A 
ATOM     16  C   UNL     1      -2.336   9.839  16.747  0.00  0.00    +0.000 A 
ATOM     17  C   UNL     1      -1.494  10.252  17.707  0.00  0.00    +0.000 A 
ATOM     18  C   UNL     1      -1.919  11.175  18.715  0.00  0.00    +0.000 A 
BRANCH  11  19
ATOM     19  C   UNL     1      -2.278  13.490  21.642  0.00  0.00    +0.000 C 
ATOM     20  C   UNL     1      -2.815  14.896  21.408  0.00  0.00    +0.000 C 
ENDBRANCH  11  19
ENDBRANCH   7  10
ENDBRANCH   4   7
BRANCH   1  21
ATOM     21  O   UNL     1       2.558   6.758  18.200  0.00  0.00    +0.000 OA
BRANCH  21  22
ATOM     22  C   UNL     1       2.660   5.646  19.098  0.00  0.00    +0.000 C 
BRANCH  22  23
ATOM     23  C   UNL     1       3.402   4.493  18.440  0.00  0.00    +0.000 C 
BRANCH  23  24
ATOM     24  C   UNL     1       4.920   4.645  18.630  0.00  0.00    +0.000 C 
BRANCH  24  25
ATOM     25  N   UNL     1       5.697   4.920  17.392  0.00  0.00    +0.000 NA
BRANCH  25  26
ATOM     26  C   UNL     1       7.130   4.631  17.645  0.00  0.00    +0.000 C 
BRANCH  26  27
ATOM     27  C   UNL     1       7.854   5.391  18.765  0.00  0.00    +0.000 C 
BRANCH  27  29
ATOM     28  C   UNL     1       7.561   7.276  17.149  0.00  0.00    +0.000 C 
ATOM     29  C   UNL     1       7.905   6.909  18.588  0.00  0.00    +0.000 C 
ENDBRANCH  27  29
ENDBRANCH  26  27
ENDBRANCH  25  26
BRANCH  25  30
ATOM     30  C   UNL     1       5.177   4.113  16.263  0.00  0.00    +0.000 C 
BRANCH  30  31
ATOM     31  C   UNL     1       5.332   4.717  14.852  0.00  0.00    +0.000 C 
BRANCH  31  32
ATOM     32  C   UNL     1       6.469   4.120  14.019  0.00  0.00    +0.000 C 
ATOM     33  C   UNL     1       5.926   3.531  12.722  0.00  0.00    +0.000 C 
ENDBRANCH  31  32
ENDBRANCH  30  31
ENDBRANCH  25  30
ENDBRANCH  24  25
ENDBRANCH  23  24
ENDBRANCH  22  23
ENDBRANCH  21  22
ENDBRANCH   1  21
TORSDOF 14
ENDMDL
