MODEL 1
REMARK VINA RESULT:      -7.4      0.000      0.000
REMARK  Name = 
REMARK  13 active torsions:
REMARK  status: ('A' for Active; 'I' for Inactive)
REMARK    1  A    between atoms: C_1  and  C_2
REMARK    2  A    between atoms: C_2  and  O_3
REMARK    3  A    between atoms: O_3  and  C_4
REMARK    4  A    between atoms: C_4  and  C_6
REMARK    5  A    between atoms: C_10  and  C_11
REMARK    6  A    between atoms: C_16  and  N_17
REMARK    7  A    between atoms: N_17  and  C_18
REMARK    8  A    between atoms: C_18  and  C_19
REMARK    9  A    between atoms: C_19  and  C_20
REMARK   10  A    between atoms: C_23  and  O_24
REMARK   11  A    between atoms: O_24  and  C_25
REMARK   12  A    between atoms: C_26  and  O_27
REMARK   13  A    between atoms: O_27  and  C_28
REMARK                            x       y       z     vdW  Elec       q    Type
REMARK                         _______ _______ _______ _____ _____    ______ ____
ROOT
ATOM      1  C   UNL     1       5.156   5.585  17.701  0.00  0.00    +0.000 A 
ATOM      2  C   UNL     1       5.791   4.508  18.287  0.00  0.00    +0.000 A 
ATOM      3  N   UNL     1       5.209   3.691  19.187  0.00  0.00    +0.000 NA
ATOM      4  C   UNL     1       3.934   3.914  19.543  0.00  0.00    +0.000 A 
ATOM      5  C   UNL     1       3.345   3.022  20.456  0.00  0.00    +0.000 A 
ATOM      6  C   UNL     1       4.096   1.842  21.019  0.00  0.00    +0.000 C 
ATOM      7  C   UNL     1       2.021   3.178  20.884  0.00  0.00    +0.000 A 
ATOM      8  C   UNL     1       1.273   4.232  20.419  0.00  0.00    +0.000 A 
ATOM      9  C   UNL     1       1.847   5.126  19.523  0.00  0.00    +0.000 A 
ATOM     10  C   UNL     1       3.180   5.009  19.026  0.00  0.00    +0.000 A 
ATOM     11  C   UNL     1       3.822   5.889  18.072  0.00  0.00    +0.000 A 
ENDROOT
BRANCH   1  12
ATOM     12  C   UNL     1       5.878   6.351  16.656  0.00  0.00    +0.000 C 
ATOM     13  O   UNL     1       6.534   7.359  16.871  0.00  0.00    +0.000 OA
BRANCH  12  14
ATOM     14  O   UNL     1       5.569   5.837  15.436  0.00  0.00    +0.000 OA
BRANCH  14  16
ATOM     15  C   UNL     1       6.115   3.836  14.254  0.00  0.00    +0.000 C 
ATOM     16  C   UNL     1       6.641   5.171  14.751  0.00  0.00    +0.000 C 
ENDBRANCH  14  16
ENDBRANCH  12  14
ENDBRANCH   1  12
BRANCH  11  17
ATOM     17  N   UNL     1       3.188   6.938  17.384  0.00  0.00    +0.000 N 
ATOM     18  H   UNL     1       3.102   6.788  16.369  0.00  0.00    +0.000 HD
BRANCH  17  19
ATOM     19  C   UNL     1       2.993   8.298  17.839  0.00  0.00    +0.000 C 
BRANCH  19  20
ATOM     20  C   UNL     1       1.533   8.737  17.904  0.00  0.00    +0.000 C 
BRANCH  20  21
ATOM     21  C   UNL     1       1.221   9.746  18.977  0.00  0.00    +0.000 A 
ATOM     22  C   UNL     1       1.000  11.090  18.677  0.00  0.00    +0.000 A 
ATOM     23  C   UNL     1       0.712  11.989  19.702  0.00  0.00    +0.000 A 
ATOM     24  C   UNL     1       0.621  11.568  21.036  0.00  0.00    +0.000 A 
ATOM     25  C   UNL     1       0.829  10.213  21.349  0.00  0.00    +0.000 A 
ATOM     26  C   UNL     1       1.122   9.319  20.309  0.00  0.00    +0.000 A 
BRANCH  24  27
ATOM     27  O   UNL     1       0.324  12.607  21.879  0.00  0.00    +0.000 OA
ATOM     28  C   UNL     1      -1.019  13.052  21.965  0.00  0.00    +0.000 C 
ENDBRANCH  24  27
BRANCH  25  29
ATOM     29  O   UNL     1       0.741   9.816  22.656  0.00  0.00    +0.000 OA
ATOM     30  C   UNL     1      -0.547   9.522  23.184  0.00  0.00    +0.000 C 
ENDBRANCH  25  29
ENDBRANCH  20  21
ENDBRANCH  19  20
ENDBRANCH  17  19
ENDBRANCH  11  17
TORSDOF 9
ENDMDL
MODEL 2
REMARK VINA RESULT:      -7.3      1.483      2.345
REMARK  Name = 
REMARK  13 active torsions:
REMARK  status: ('A' for Active; 'I' for Inactive)
REMARK    1  A    between atoms: C_1  and  C_2
REMARK    2  A    between atoms: C_2  and  O_3
REMARK    3  A    between atoms: O_3  and  C_4
REMARK    4  A    between atoms: C_4  and  C_6
REMARK    5  A    between atoms: C_10  and  C_11
REMARK    6  A    between atoms: C_16  and  N_17
REMARK    7  A    between atoms: N_17  and  C_18
REMARK    8  A    between atoms: C_18  and  C_19
REMARK    9  A    between atoms: C_19  and  C_20
REMARK   10  A    between atoms: C_23  and  O_24
REMARK   11  A    between atoms: O_24  and  C_25
REMARK   12  A    between atoms: C_26  and  O_27
REMARK   13  A    between atoms: O_27  and  C_28
REMARK                            x       y       z     vdW  Elec       q    Type
REMARK                         _______ _______ _______ _____ _____    ______ ____
ROOT
ATOM      1  C   UNL     1       4.456   5.534  17.052  0.00  0.00    +0.000 A 
ATOM      2  C   UNL     1       4.348   4.190  16.753  0.00  0.00    +0.000 A 
ATOM      3  N   UNL     1       3.548   3.334  17.419  0.00  0.00    +0.000 NA
ATOM      4  C   UNL     1       2.796   3.796  18.430  0.00  0.00    +0.000 A 
ATOM      5  C   UNL     1       1.945   2.885  19.079  0.00  0.00    +0.000 A 
ATOM      6  C   UNL     1       1.854   1.439  18.664  0.00  0.00    +0.000 C 
ATOM      7  C   UNL     1       1.125   3.278  20.145  0.00  0.00    +0.000 A 
ATOM      8  C   UNL     1       1.155   4.579  20.585  0.00  0.00    +0.000 A 
ATOM      9  C   UNL     1       1.999   5.486  19.957  0.00  0.00    +0.000 A 
ATOM     10  C   UNL     1       2.837   5.158  18.849  0.00  0.00    +0.000 A 
ATOM     11  C   UNL     1       3.714   6.065  18.137  0.00  0.00    +0.000 A 
ENDROOT
BRANCH   1  12
ATOM     12  C   UNL     1       5.304   6.387  16.184  0.00  0.00    +0.000 C 
ATOM     13  O   UNL     1       5.228   6.421  14.965  0.00  0.00    +0.000 OA
BRANCH  12  14
ATOM     14  O   UNL     1       6.251   6.994  16.948  0.00  0.00    +0.000 OA
BRANCH  14  16
ATOM     15  C   UNL     1       7.536   6.119  18.760  0.00  0.00    +0.000 C 
ATOM     16  C   UNL     1       7.410   6.203  17.249  0.00  0.00    +0.000 C 
ENDBRANCH  14  16
ENDBRANCH  12  14
ENDBRANCH   1  12
BRANCH  11  17
ATOM     17  N   UNL     1       3.787   7.453  18.346  0.00  0.00    +0.000 N 
ATOM     18  H   UNL     1       4.185   7.723  19.257  0.00  0.00    +0.000 HD
BRANCH  17  19
ATOM     19  C   UNL     1       3.060   8.488  17.643  0.00  0.00    +0.000 C 
BRANCH  19  20
ATOM     20  C   UNL     1       1.553   8.474  17.886  0.00  0.00    +0.000 C 
BRANCH  20  21
ATOM     21  C   UNL     1       1.093   9.287  19.066  0.00  0.00    +0.000 A 
ATOM     22  C   UNL     1       1.270   8.843  20.377  0.00  0.00    +0.000 A 
ATOM     23  C   UNL     1       0.831   9.631  21.440  0.00  0.00    +0.000 A 
ATOM     24  C   UNL     1       0.226  10.876  21.221  0.00  0.00    +0.000 A 
ATOM     25  C   UNL     1       0.054  11.341  19.905  0.00  0.00    +0.000 A 
ATOM     26  C   UNL     1       0.498  10.538  18.845  0.00  0.00    +0.000 A 
BRANCH  24  27
ATOM     27  O   UNL     1      -0.124  11.486  22.398  0.00  0.00    +0.000 OA
ATOM     28  C   UNL     1      -1.275  11.028  23.088  0.00  0.00    +0.000 C 
ENDBRANCH  24  27
BRANCH  25  29
ATOM     29  O   UNL     1      -0.541  12.558  19.706  0.00  0.00    +0.000 OA
ATOM     30  C   UNL     1       0.282  13.718  19.717  0.00  0.00    +0.000 C 
ENDBRANCH  25  29
ENDBRANCH  20  21
ENDBRANCH  19  20
ENDBRANCH  17  19
ENDBRANCH  11  17
TORSDOF 9
ENDMDL
MODEL 3
REMARK VINA RESULT:      -7.3      1.569      2.390
REMARK  Name = 
REMARK  13 active torsions:
REMARK  status: ('A' for Active; 'I' for Inactive)
REMARK    1  A    between atoms: C_1  and  C_2
REMARK    2  A    between atoms: C_2  and  O_3
REMARK    3  A    between atoms: O_3  and  C_4
REMARK    4  A    between atoms: C_4  and  C_6
REMARK    5  A    between atoms: C_10  and  C_11
REMARK    6  A    between atoms: C_16  and  N_17
REMARK    7  A    between atoms: N_17  and  C_18
REMARK    8  A    between atoms: C_18  and  C_19
REMARK    9  A    between atoms: C_19  and  C_20
REMARK   10  A    between atoms: C_23  and  O_24
REMARK   11  A    between atoms: O_24  and  C_25
REMARK   12  A    between atoms: C_26  and  O_27
REMARK   13  A    between atoms: O_27  and  C_28
REMARK                            x       y       z     vdW  Elec       q    Type
REMARK                         _______ _______ _______ _____ _____    ______ ____
ROOT
ATOM      1  C   UNL     1       5.147   5.694  17.514  0.00  0.00    +0.000 A 
ATOM      2  C   UNL     1       5.788   4.560  17.973  0.00  0.00    +0.000 A 
ATOM      3  N   UNL     1       5.273   3.730  18.902  0.00  0.00    +0.000 NA
ATOM      4  C   UNL     1       4.063   3.997  19.417  0.00  0.00    +0.000 A 
ATOM      5  C   UNL     1       3.539   3.091  20.355  0.00  0.00    +0.000 A 
ATOM      6  C   UNL     1       4.286   1.850  20.773  0.00  0.00    +0.000 C 
ATOM      7  C   UNL     1       2.284   3.289  20.945  0.00  0.00    +0.000 A 
ATOM      8  C   UNL     1       1.544   4.399  20.618  0.00  0.00    +0.000 A 
ATOM      9  C   UNL     1       2.056   5.306  19.699  0.00  0.00    +0.000 A 
ATOM     10  C   UNL     1       3.313   5.150  19.041  0.00  0.00    +0.000 A 
ATOM     11  C   UNL     1       3.884   6.043  18.055  0.00  0.00    +0.000 A 
ENDROOT
BRANCH   1  12
ATOM     12  C   UNL     1       5.781   6.474  16.424  0.00  0.00    +0.000 C 
ATOM     13  O   UNL     1       5.193   6.874  15.431  0.00  0.00    +0.000 OA
BRANCH  12  14
ATOM     14  O   UNL     1       7.121   6.536  16.644  0.00  0.00    +0.000 OA
BRANCH  14  16
ATOM     15  C   UNL     1       7.920   8.564  17.618  0.00  0.00    +0.000 C 
ATOM     16  C   UNL     1       7.522   7.124  17.890  0.00  0.00    +0.000 C 
ENDBRANCH  14  16
ENDBRANCH  12  14
ENDBRANCH   1  12
BRANCH  11  17
ATOM     17  N   UNL     1       3.230   7.154  17.493  0.00  0.00    +0.000 N 
ATOM     18  H   UNL     1       3.302   7.213  16.468  0.00  0.00    +0.000 HD
BRANCH  17  19
ATOM     19  C   UNL     1       2.818   8.366  18.168  0.00  0.00    +0.000 C 
BRANCH  19  20
ATOM     20  C   UNL     1       1.493   8.940  17.674  0.00  0.00    +0.000 C 
BRANCH  20  21
ATOM     21  C   UNL     1       0.687   9.664  18.719  0.00  0.00    +0.000 A 
ATOM     22  C   UNL     1       1.078   9.693  20.058  0.00  0.00    +0.000 A 
ATOM     23  C   UNL     1       0.302  10.377  20.991  0.00  0.00    +0.000 A 
ATOM     24  C   UNL     1      -0.863  11.058  20.610  0.00  0.00    +0.000 A 
ATOM     25  C   UNL     1      -1.261  11.047  19.261  0.00  0.00    +0.000 A 
ATOM     26  C   UNL     1      -0.473  10.352  18.333  0.00  0.00    +0.000 A 
BRANCH  24  27
ATOM     27  O   UNL     1      -1.469  11.666  21.678  0.00  0.00    +0.000 OA
ATOM     28  C   UNL     1      -1.220  11.165  22.981  0.00  0.00    +0.000 C 
ENDBRANCH  24  27
BRANCH  25  29
ATOM     29  O   UNL     1      -2.402  11.714  18.904  0.00  0.00    +0.000 OA
ATOM     30  C   UNL     1      -3.008  11.388  17.658  0.00  0.00    +0.000 C 
ENDBRANCH  25  29
ENDBRANCH  20  21
ENDBRANCH  19  20
ENDBRANCH  17  19
ENDBRANCH  11  17
TORSDOF 9
ENDMDL
MODEL 4
REMARK VINA RESULT:      -7.2      2.523      3.162
REMARK  Name = 
REMARK  13 active torsions:
REMARK  status: ('A' for Active; 'I' for Inactive)
REMARK    1  A    between atoms: C_1  and  C_2
REMARK    2  A    between atoms: C_2  and  O_3
REMARK    3  A    between atoms: O_3  and  C_4
REMARK    4  A    between atoms: C_4  and  C_6
REMARK    5  A    between atoms: C_10  and  C_11
REMARK    6  A    between atoms: C_16  and  N_17
REMARK    7  A    between atoms: N_17  and  C_18
REMARK    8  A    between atoms: C_18  and  C_19
REMARK    9  A    between atoms: C_19  and  C_20
REMARK   10  A    between atoms: C_23  and  O_24
REMARK   11  A    between atoms: O_24  and  C_25
REMARK   12  A    between atoms: C_26  and  O_27
REMARK   13  A    between atoms: O_27  and  C_28
REMARK                            x       y       z     vdW  Elec       q    Type
REMARK                         _______ _______ _______ _____ _____    ______ ____
ROOT
ATOM      1  C   UNL     1       4.513   5.675  17.113  0.00  0.00    +0.000 A 
ATOM      2  C   UNL     1       4.655   4.302  17.061  0.00  0.00    +0.000 A 
ATOM      3  N   UNL     1       3.929   3.443  17.802  0.00  0.00    +0.000 NA
ATOM      4  C   UNL     1       3.000   3.928  18.641  0.00  0.00    +0.000 A 
ATOM      5  C   UNL     1       2.235   3.003  19.372  0.00  0.00    +0.000 A 
ATOM      6  C   UNL     1       2.423   1.515  19.226  0.00  0.00    +0.000 C 
ATOM      7  C   UNL     1       1.245   3.418  20.272  0.00  0.00    +0.000 A 
ATOM      8  C   UNL     1       1.016   4.759  20.464  0.00  0.00    +0.000 A 
ATOM      9  C   UNL     1       1.773   5.683  19.753  0.00  0.00    +0.000 A 
ATOM     10  C   UNL     1       2.776   5.327  18.802  0.00  0.00    +0.000 A 
ATOM     11  C   UNL     1       3.575   6.241  18.012  0.00  0.00    +0.000 A 
ENDROOT
BRANCH   1  12
ATOM     12  C   UNL     1       5.310   6.506  16.178  0.00  0.00    +0.000 C 
ATOM     13  O   UNL     1       4.839   7.130  15.239  0.00  0.00    +0.000 OA
BRANCH  12  14
ATOM     14  O   UNL     1       6.631   6.338  16.451  0.00  0.00    +0.000 OA
BRANCH  14  16
ATOM     15  C   UNL     1       7.790   6.487  18.533  0.00  0.00    +0.000 C 
ATOM     16  C   UNL     1       7.201   7.275  17.377  0.00  0.00    +0.000 C 
ENDBRANCH  14  16
ENDBRANCH  12  14
ENDBRANCH   1  12
BRANCH  11  17
ATOM     17  N   UNL     1       3.401   7.635  17.966  0.00  0.00    +0.000 N 
ATOM     18  H   UNL     1       4.140   8.169  18.445  0.00  0.00    +0.000 HD
BRANCH  17  19
ATOM     19  C   UNL     1       2.184   8.361  17.678  0.00  0.00    +0.000 C 
BRANCH  19  20
ATOM     20  C   UNL     1       1.816   9.412  18.723  0.00  0.00    +0.000 C 
BRANCH  20  21
ATOM     21  C   UNL     1       0.481  10.073  18.515  0.00  0.00    +0.000 A 
ATOM     22  C   UNL     1       0.135  11.252  19.175  0.00  0.00    +0.000 A 
ATOM     23  C   UNL     1      -1.113  11.831  18.950  0.00  0.00    +0.000 A 
ATOM     24  C   UNL     1      -2.029  11.261  18.056  0.00  0.00    +0.000 A 
ATOM     25  C   UNL     1      -1.687  10.080  17.374  0.00  0.00    +0.000 A 
ATOM     26  C   UNL     1      -0.430   9.506  17.611  0.00  0.00    +0.000 A 
BRANCH  24  27
ATOM     27  O   UNL     1      -3.187  11.990  17.979  0.00  0.00    +0.000 OA
ATOM     28  C   UNL     1      -4.145  11.860  19.017  0.00  0.00    +0.000 C 
ENDBRANCH  24  27
BRANCH  25  29
ATOM     29  O   UNL     1      -2.593   9.532  16.505  0.00  0.00    +0.000 OA
ATOM     30  C   UNL     1      -2.729  10.120  15.217  0.00  0.00    +0.000 C 
ENDBRANCH  25  29
ENDBRANCH  20  21
ENDBRANCH  19  20
ENDBRANCH  17  19
ENDBRANCH  11  17
TORSDOF 9
ENDMDL
MODEL 5
REMARK VINA RESULT:      -7.2      1.398      1.706
REMARK  Name = 
REMARK  13 active torsions:
REMARK  status: ('A' for Active; 'I' for Inactive)
REMARK    1  A    between atoms: C_1  and  C_2
REMARK    2  A    between atoms: C_2  and  O_3
REMARK    3  A    between atoms: O_3  and  C_4
REMARK    4  A    between atoms: C_4  and  C_6
REMARK    5  A    between atoms: C_10  and  C_11
REMARK    6  A    between atoms: C_16  and  N_17
REMARK    7  A    between atoms: N_17  and  C_18
REMARK    8  A    between atoms: C_18  and  C_19
REMARK    9  A    between atoms: C_19  and  C_20
REMARK   10  A    between atoms: C_23  and  O_24
REMARK   11  A    between atoms: O_24  and  C_25
REMARK   12  A    between atoms: C_26  and  O_27
REMARK   13  A    between atoms: O_27  and  C_28
REMARK                            x       y       z     vdW  Elec       q    Type
REMARK                         _______ _______ _______ _____ _____    ______ ____
ROOT
ATOM      1  C   UNL     1       4.545   5.442  17.073  0.00  0.00    +0.000 A 
ATOM      2  C   UNL     1       4.443   4.076  16.897  0.00  0.00    +0.000 A 
ATOM      3  N   UNL     1       3.622   3.285  17.614  0.00  0.00    +0.000 NA
ATOM      4  C   UNL     1       2.839   3.839  18.554  0.00  0.00    +0.000 A 
ATOM      5  C   UNL     1       1.966   2.992  19.259  0.00  0.00    +0.000 A 
ATOM      6  C   UNL     1       1.885   1.513  18.976  0.00  0.00    +0.000 C 
ATOM      7  C   UNL     1       1.115   3.481  20.258  0.00  0.00    +0.000 A 
ATOM      8  C   UNL     1       1.135   4.817  20.576  0.00  0.00    +0.000 A 
ATOM      9  C   UNL     1       2.000   5.663  19.892  0.00  0.00    +0.000 A 
ATOM     10  C   UNL     1       2.871   5.234  18.846  0.00  0.00    +0.000 A 
ATOM     11  C   UNL     1       3.772   6.071  18.080  0.00  0.00    +0.000 A 
ENDROOT
BRANCH   1  12
ATOM     12  C   UNL     1       5.422   6.211  16.156  0.00  0.00    +0.000 C 
ATOM     13  O   UNL     1       5.015   6.930  15.256  0.00  0.00    +0.000 OA
BRANCH  12  14
ATOM     14  O   UNL     1       6.717   5.870  16.390  0.00  0.00    +0.000 OA
BRANCH  14  16
ATOM     15  C   UNL     1       7.645   7.777  17.487  0.00  0.00    +0.000 C 
ATOM     16  C   UNL     1       7.262   6.316  17.641  0.00  0.00    +0.000 C 
ENDBRANCH  14  16
ENDBRANCH  12  14
ENDBRANCH   1  12
BRANCH  11  17
ATOM     17  N   UNL     1       3.841   7.472  18.162  0.00  0.00    +0.000 N 
ATOM     18  H   UNL     1       4.352   7.823  18.985  0.00  0.00    +0.000 HD
BRANCH  17  19
ATOM     19  C   UNL     1       3.005   8.436  17.481  0.00  0.00    +0.000 C 
BRANCH  19  20
ATOM     20  C   UNL     1       1.567   8.492  17.990  0.00  0.00    +0.000 C 
BRANCH  20  21
ATOM     21  C   UNL     1       1.258   9.658  18.890  0.00  0.00    +0.000 A 
ATOM     22  C   UNL     1       1.638  10.959  18.562  0.00  0.00    +0.000 A 
ATOM     23  C   UNL     1       1.329  12.009  19.425  0.00  0.00    +0.000 A 
ATOM     24  C   UNL     1       0.625  11.788  20.617  0.00  0.00    +0.000 A 
ATOM     25  C   UNL     1       0.225  10.483  20.953  0.00  0.00    +0.000 A 
ATOM     26  C   UNL     1       0.545   9.435  20.077  0.00  0.00    +0.000 A 
BRANCH  24  27
ATOM     27  O   UNL     1       0.422  12.953  21.311  0.00  0.00    +0.000 OA
ATOM     28  C   UNL     1       0.237  14.156  20.586  0.00  0.00    +0.000 C 
ENDBRANCH  24  27
BRANCH  25  29
ATOM     29  O   UNL     1      -0.460  10.281  22.121  0.00  0.00    +0.000 OA
ATOM     30  C   UNL     1       0.153   9.485  23.129  0.00  0.00    +0.000 C 
ENDBRANCH  25  29
ENDBRANCH  20  21
ENDBRANCH  19  20
ENDBRANCH  17  19
ENDBRANCH  11  17
TORSDOF 9
ENDMDL
MODEL 6
REMARK VINA RESULT:      -7.2      2.049      2.643
REMARK  Name = 
REMARK  13 active torsions:
REMARK  status: ('A' for Active; 'I' for Inactive)
REMARK    1  A    between atoms: C_1  and  C_2
REMARK    2  A    between atoms: C_2  and  O_3
REMARK    3  A    between atoms: O_3  and  C_4
REMARK    4  A    between atoms: C_4  and  C_6
REMARK    5  A    between atoms: C_10  and  C_11
REMARK    6  A    between atoms: C_16  and  N_17
REMARK    7  A    between atoms: N_17  and  C_18
REMARK    8  A    between atoms: C_18  and  C_19
REMARK    9  A    between atoms: C_19  and  C_20
REMARK   10  A    between atoms: C_23  and  O_24
REMARK   11  A    between atoms: O_24  and  C_25
REMARK   12  A    between atoms: C_26  and  O_27
REMARK   13  A    between atoms: O_27  and  C_28
REMARK                            x       y       z     vdW  Elec       q    Type
REMARK                         _______ _______ _______ _____ _____    ______ ____
ROOT
ATOM      1  C   UNL     1       4.598   5.682  17.021  0.00  0.00    +0.000 A 
ATOM      2  C   UNL     1       4.726   4.308  16.959  0.00  0.00    +0.000 A 
ATOM      3  N   UNL     1       4.004   3.451  17.707  0.00  0.00    +0.000 NA
ATOM      4  C   UNL     1       3.093   3.939  18.563  0.00  0.00    +0.000 A 
ATOM      5  C   UNL     1       2.331   3.017  19.301  0.00  0.00    +0.000 A 
ATOM      6  C   UNL     1       2.504   1.528  19.143  0.00  0.00    +0.000 C 
ATOM      7  C   UNL     1       1.359   3.436  20.218  0.00  0.00    +0.000 A 
ATOM      8  C   UNL     1       1.146   4.778  20.421  0.00  0.00    +0.000 A 
ATOM      9  C   UNL     1       1.900   5.699  19.704  0.00  0.00    +0.000 A 
ATOM     10  C   UNL     1       2.885   5.339  18.736  0.00  0.00    +0.000 A 
ATOM     11  C   UNL     1       3.679   6.251  17.938  0.00  0.00    +0.000 A 
ENDROOT
BRANCH   1  12
ATOM     12  C   UNL     1       5.387   6.511  16.079  0.00  0.00    +0.000 C 
ATOM     13  O   UNL     1       4.915   7.106  15.122  0.00  0.00    +0.000 OA
BRANCH  12  14
ATOM     14  O   UNL     1       6.709   6.377  16.369  0.00  0.00    +0.000 OA
BRANCH  14  16
ATOM     15  C   UNL     1       7.785   6.452  18.500  0.00  0.00    +0.000 C 
ATOM     16  C   UNL     1       7.225   7.281  17.357  0.00  0.00    +0.000 C 
ENDBRANCH  14  16
ENDBRANCH  12  14
ENDBRANCH   1  12
BRANCH  11  17
ATOM     17  N   UNL     1       3.518   7.647  17.903  0.00  0.00    +0.000 N 
ATOM     18  H   UNL     1       4.290   8.173  18.336  0.00  0.00    +0.000 HD
BRANCH  17  19
ATOM     19  C   UNL     1       2.292   8.386  17.690  0.00  0.00    +0.000 C 
BRANCH  19  20
ATOM     20  C   UNL     1       1.882   9.274  18.862  0.00  0.00    +0.000 C 
BRANCH  20  21
ATOM     21  C   UNL     1       0.538   9.936  18.716  0.00  0.00    +0.000 A 
ATOM     22  C   UNL     1      -0.354   9.570  17.708  0.00  0.00    +0.000 A 
ATOM     23  C   UNL     1      -1.589  10.208  17.612  0.00  0.00    +0.000 A 
ATOM     24  C   UNL     1      -1.966  11.205  18.523  0.00  0.00    +0.000 A 
ATOM     25  C   UNL     1      -1.081  11.573  19.552  0.00  0.00    +0.000 A 
ATOM     26  C   UNL     1       0.160  10.926  19.635  0.00  0.00    +0.000 A 
BRANCH  24  27
ATOM     27  O   UNL     1      -3.218  11.694  18.253  0.00  0.00    +0.000 OA
ATOM     28  C   UNL     1      -4.192  10.816  17.716  0.00  0.00    +0.000 C 
ENDBRANCH  24  27
BRANCH  25  29
ATOM     29  O   UNL     1      -1.461  12.550  20.432  0.00  0.00    +0.000 OA
ATOM     30  C   UNL     1      -1.908  12.154  21.724  0.00  0.00    +0.000 C 
ENDBRANCH  25  29
ENDBRANCH  20  21
ENDBRANCH  19  20
ENDBRANCH  17  19
ENDBRANCH  11  17
TORSDOF 9
ENDMDL
MODEL 7
REMARK VINA RESULT:      -7.2      1.465      1.943
REMARK  Name = 
REMARK  13 active torsions:
REMARK  status: ('A' for Active; 'I' for Inactive)
REMARK    1  A    between atoms: C_1  and  C_2
REMARK    2  A    between atoms: C_2  and  O_3
REMARK    3  A    between atoms: O_3  and  C_4
REMARK    4  A    between atoms: C_4  and  C_6
REMARK    5  A    between atoms: C_10  and  C_11
REMARK    6  A    between atoms: C_16  and  N_17
REMARK    7  A    between atoms: N_17  and  C_18
REMARK    8  A    between atoms: C_18  and  C_19
REMARK    9  A    between atoms: C_19  and  C_20
REMARK   10  A    between atoms: C_23  and  O_24
REMARK   11  A    between atoms: O_24  and  C_25
REMARK   12  A    between atoms: C_26  and  O_27
REMARK   13  A    between atoms: O_27  and  C_28
REMARK                            x       y       z     vdW  Elec       q    Type
REMARK                         _______ _______ _______ _____ _____    ______ ____
ROOT
ATOM      1  C   UNL     1       4.563   5.777  17.098  0.00  0.00    +0.000 A 
ATOM      2  C   UNL     1       4.846   4.433  16.949  0.00  0.00    +0.000 A 
ATOM      3  N   UNL     1       4.216   3.453  17.624  0.00  0.00    +0.000 NA
ATOM      4  C   UNL     1       3.245   3.778  18.492  0.00  0.00    +0.000 A 
ATOM      5  C   UNL     1       2.582   2.729  19.153  0.00  0.00    +0.000 A 
ATOM      6  C   UNL     1       2.923   1.282  18.902  0.00  0.00    +0.000 C 
ATOM      7  C   UNL     1       1.558   2.974  20.077  0.00  0.00    +0.000 A 
ATOM      8  C   UNL     1       1.193   4.268  20.363  0.00  0.00    +0.000 A 
ATOM      9  C   UNL     1       1.847   5.313  19.722  0.00  0.00    +0.000 A 
ATOM     10  C   UNL     1       2.878   5.131  18.752  0.00  0.00    +0.000 A 
ATOM     11  C   UNL     1       3.575   6.177  18.032  0.00  0.00    +0.000 A 
ENDROOT
BRANCH   1  12
ATOM     12  C   UNL     1       5.266   6.750  16.228  0.00  0.00    +0.000 C 
ATOM     13  O   UNL     1       5.286   6.695  15.008  0.00  0.00    +0.000 OA
BRANCH  12  14
ATOM     14  O   UNL     1       5.986   7.602  17.006  0.00  0.00    +0.000 OA
BRANCH  14  16
ATOM     15  C   UNL     1       8.082   8.339  17.882  0.00  0.00    +0.000 C 
ATOM     16  C   UNL     1       7.285   7.138  17.401  0.00  0.00    +0.000 C 
ENDBRANCH  14  16
ENDBRANCH  12  14
ENDBRANCH   1  12
BRANCH  11  17
ATOM     17  N   UNL     1       3.258   7.546  18.085  0.00  0.00    +0.000 N 
ATOM     18  H   UNL     1       4.004   8.138  18.477  0.00  0.00    +0.000 HD
BRANCH  17  19
ATOM     19  C   UNL     1       1.944   8.148  18.018  0.00  0.00    +0.000 C 
BRANCH  19  20
ATOM     20  C   UNL     1       1.953   9.674  17.980  0.00  0.00    +0.000 C 
BRANCH  20  21
ATOM     21  C   UNL     1       0.897  10.335  18.824  0.00  0.00    +0.000 A 
ATOM     22  C   UNL     1      -0.211  10.962  18.254  0.00  0.00    +0.000 A 
ATOM     23  C   UNL     1      -1.166  11.560  19.075  0.00  0.00    +0.000 A 
ATOM     24  C   UNL     1      -1.046  11.531  20.471  0.00  0.00    +0.000 A 
ATOM     25  C   UNL     1       0.060  10.891  21.058  0.00  0.00    +0.000 A 
ATOM     26  C   UNL     1       1.014  10.296  20.221  0.00  0.00    +0.000 A 
BRANCH  24  27
ATOM     27  O   UNL     1      -2.092  12.170  21.085  0.00  0.00    +0.000 OA
ATOM     28  C   UNL     1      -3.197  12.582  20.298  0.00  0.00    +0.000 C 
ENDBRANCH  24  27
BRANCH  25  29
ATOM     29  O   UNL     1       0.166  10.873  22.423  0.00  0.00    +0.000 OA
ATOM     30  C   UNL     1      -0.362   9.752  23.123  0.00  0.00    +0.000 C 
ENDBRANCH  25  29
ENDBRANCH  20  21
ENDBRANCH  19  20
ENDBRANCH  17  19
ENDBRANCH  11  17
TORSDOF 9
ENDMDL
MODEL 8
REMARK VINA RESULT:      -7.2      3.412      8.646
REMARK  Name = 
REMARK  13 active torsions:
REMARK  status: ('A' for Active; 'I' for Inactive)
REMARK    1  A    between atoms: C_1  and  C_2
REMARK    2  A    between atoms: C_2  and  O_3
REMARK    3  A    between atoms: O_3  and  C_4
REMARK    4  A    between atoms: C_4  and  C_6
REMARK    5  A    between atoms: C_10  and  C_11
REMARK    6  A    between atoms: C_16  and  N_17
REMARK    7  A    between atoms: N_17  and  C_18
REMARK    8  A    between atoms: C_18  and  C_19
REMARK    9  A    between atoms: C_19  and  C_20
REMARK   10  A    between atoms: C_23  and  O_24
REMARK   11  A    between atoms: O_24  and  C_25
REMARK   12  A    between atoms: C_26  and  O_27
REMARK   13  A    between atoms: O_27  and  C_28
REMARK                            x       y       z     vdW  Elec       q    Type
REMARK                         _______ _______ _______ _____ _____    ______ ____
ROOT
ATOM      1  C   UNL     1      -0.600  11.727  19.864  0.00  0.00    +0.000 A 
ATOM      2  C   UNL     1      -1.761  12.238  20.409  0.00  0.00    +0.000 A 
ATOM      3  N   UNL     1      -2.958  12.209  19.790  0.00  0.00    +0.000 NA
ATOM      4  C   UNL     1      -3.051  11.647  18.575  0.00  0.00    +0.000 A 
ATOM      5  C   UNL     1      -4.320  11.599  17.973  0.00  0.00    +0.000 A 
ATOM      6  C   UNL     1      -5.550  12.143  18.654  0.00  0.00    +0.000 C 
ATOM      7  C   UNL     1      -4.511  11.033  16.706  0.00  0.00    +0.000 A 
ATOM      8  C   UNL     1      -3.438  10.519  16.019  0.00  0.00    +0.000 A 
ATOM      9  C   UNL     1      -2.177  10.568  16.601  0.00  0.00    +0.000 A 
ATOM     10  C   UNL     1      -1.919  11.106  17.897  0.00  0.00    +0.000 A 
ATOM     11  C   UNL     1      -0.635  11.158  18.566  0.00  0.00    +0.000 A 
ENDROOT
BRANCH   1  12
ATOM     12  C   UNL     1       0.634  11.739  20.687  0.00  0.00    +0.000 C 
ATOM     13  O   UNL     1       1.709  12.181  20.309  0.00  0.00    +0.000 OA
BRANCH  12  14
ATOM     14  O   UNL     1       0.405  11.060  21.841  0.00  0.00    +0.000 OA
BRANCH  14  16
ATOM     15  C   UNL     1      -0.216   8.756  21.742  0.00  0.00    +0.000 C 
ATOM     16  C   UNL     1       0.940   9.729  21.898  0.00  0.00    +0.000 C 
ENDBRANCH  14  16
ENDBRANCH  12  14
ENDBRANCH   1  12
BRANCH  11  17
ATOM     17  N   UNL     1       0.551  10.571  18.090  0.00  0.00    +0.000 N 
ATOM     18  H   UNL     1       0.993  11.082  17.313  0.00  0.00    +0.000 HD
BRANCH  17  19
ATOM     19  C   UNL     1       0.998   9.209  18.286  0.00  0.00    +0.000 C 
BRANCH  19  20
ATOM     20  C   UNL     1       2.409   8.931  17.774  0.00  0.00    +0.000 C 
BRANCH  20  21
ATOM     21  C   UNL     1       2.891   7.520  17.980  0.00  0.00    +0.000 A 
ATOM     22  C   UNL     1       4.082   7.063  17.416  0.00  0.00    +0.000 A 
ATOM     23  C   UNL     1       4.492   5.749  17.636  0.00  0.00    +0.000 A 
ATOM     24  C   UNL     1       3.737   4.874  18.429  0.00  0.00    +0.000 A 
ATOM     25  C   UNL     1       2.541   5.327  19.014  0.00  0.00    +0.000 A 
ATOM     26  C   UNL     1       2.139   6.650  18.783  0.00  0.00    +0.000 A 
BRANCH  24  27
ATOM     27  O   UNL     1       4.321   3.637  18.519  0.00  0.00    +0.000 OA
ATOM     28  C   UNL     1       3.751   2.560  17.794  0.00  0.00    +0.000 C 
ENDBRANCH  24  27
BRANCH  25  29
ATOM     29  O   UNL     1       1.813   4.461  19.784  0.00  0.00    +0.000 OA
ATOM     30  C   UNL     1       2.143   4.348  21.164  0.00  0.00    +0.000 C 
ENDBRANCH  25  29
ENDBRANCH  20  21
ENDBRANCH  19  20
ENDBRANCH  17  19
ENDBRANCH  11  17
TORSDOF 9
ENDMDL
MODEL 9
REMARK VINA RESULT:      -7.1      1.035      1.543
REMARK  Name = 
REMARK  13 active torsions:
REMARK  status: ('A' for Active; 'I' for Inactive)
REMARK    1  A    between atoms: C_1  and  C_2
REMARK    2  A    between atoms: C_2  and  O_3
REMARK    3  A    between atoms: O_3  and  C_4
REMARK    4  A    between atoms: C_4  and  C_6
REMARK    5  A    between atoms: C_10  and  C_11
REMARK    6  A    between atoms: C_16  and  N_17
REMARK    7  A    between atoms: N_17  and  C_18
REMARK    8  A    between atoms: C_18  and  C_19
REMARK    9  A    between atoms: C_19  and  C_20
REMARK   10  A    between atoms: C_23  and  O_24
REMARK   11  A    between atoms: O_24  and  C_25
REMARK   12  A    between atoms: C_26  and  O_27
REMARK   13  A    between atoms: O_27  and  C_28
REMARK                            x       y       z     vdW  Elec       q    Type
REMARK                         _______ _______ _______ _____ _____    ______ ____
ROOT
ATOM      1  C   UNL     1       4.975   5.740  17.471  0.00  0.00    +0.000 A 
ATOM      2  C   UNL     1       5.696   4.647  17.909  0.00  0.00    +0.000 A 
ATOM      3  N   UNL     1       5.250   3.772  18.831  0.00  0.00    +0.000 NA
ATOM      4  C   UNL     1       4.030   3.949  19.361  0.00  0.00    +0.000 A 
ATOM      5  C   UNL     1       3.578   2.998  20.293  0.00  0.00    +0.000 A 
ATOM      6  C   UNL     1       4.413   1.806  20.687  0.00  0.00    +0.000 C 
ATOM      7  C   UNL     1       2.320   3.103  20.898  0.00  0.00    +0.000 A 
ATOM      8  C   UNL     1       1.502   4.164  20.593  0.00  0.00    +0.000 A 
ATOM      9  C   UNL     1       1.941   5.115  19.681  0.00  0.00    +0.000 A 
ATOM     10  C   UNL     1       3.199   5.053  19.008  0.00  0.00    +0.000 A 
ATOM     11  C   UNL     1       3.698   5.996  18.028  0.00  0.00    +0.000 A 
ENDROOT
BRANCH   1  12
ATOM     12  C   UNL     1       5.543   6.575  16.384  0.00  0.00    +0.000 C 
ATOM     13  O   UNL     1       4.922   6.935  15.396  0.00  0.00    +0.000 OA
BRANCH  12  14
ATOM     14  O   UNL     1       6.875   6.739  16.601  0.00  0.00    +0.000 OA
BRANCH  14  16
ATOM     15  C   UNL     1       8.189   7.356  18.497  0.00  0.00    +0.000 C 
ATOM     16  C   UNL     1       7.240   7.858  17.423  0.00  0.00    +0.000 C 
ENDBRANCH  14  16
ENDBRANCH  12  14
ENDBRANCH   1  12
BRANCH  11  17
ATOM     17  N   UNL     1       2.963   7.066  17.488  0.00  0.00    +0.000 N 
ATOM     18  H   UNL     1       2.649   6.917  16.519  0.00  0.00    +0.000 HD
BRANCH  17  19
ATOM     19  C   UNL     1       2.924   8.433  17.961  0.00  0.00    +0.000 C 
BRANCH  19  20
ATOM     20  C   UNL     1       1.530   9.055  17.971  0.00  0.00    +0.000 C 
BRANCH  20  21
ATOM     21  C   UNL     1       1.345  10.181  18.951  0.00  0.00    +0.000 A 
ATOM     22  C   UNL     1       1.653  11.501  18.620  0.00  0.00    +0.000 A 
ATOM     23  C   UNL     1       1.464  12.513  19.560  0.00  0.00    +0.000 A 
ATOM     24  C   UNL     1       0.950  12.236  20.834  0.00  0.00    +0.000 A 
ATOM     25  C   UNL     1       0.622  10.911  21.175  0.00  0.00    +0.000 A 
ATOM     26  C   UNL     1       0.821   9.902  20.222  0.00  0.00    +0.000 A 
BRANCH  24  27
ATOM     27  O   UNL     1       0.838  13.370  21.595  0.00  0.00    +0.000 OA
ATOM     28  C   UNL     1      -0.083  14.371  21.196  0.00  0.00    +0.000 C 
ENDBRANCH  24  27
BRANCH  25  29
ATOM     29  O   UNL     1       0.124  10.655  22.425  0.00  0.00    +0.000 OA
ATOM     30  C   UNL     1       0.323   9.357  22.973  0.00  0.00    +0.000 C 
ENDBRANCH  25  29
ENDBRANCH  20  21
ENDBRANCH  19  20
ENDBRANCH  17  19
ENDBRANCH  11  17
TORSDOF 9
ENDMDL
