MODEL 1
REMARK VINA RESULT:      -7.7      0.000      0.000
REMARK  Name = 
REMARK  7 active torsions:
REMARK  status: ('A' for Active; 'I' for Inactive)
REMARK    1  A    between atoms: C_2  and  C_3
REMARK    2  A    between atoms: C_4  and  C_5
REMARK    3  A    between atoms: N_9  and  C_10
REMARK    4  A    between atoms: C_10  and  C_11
REMARK    5  A    between atoms: C_11  and  C_12
REMARK    6  A    between atoms: C_12  and  C_13
REMARK    7  A    between atoms: N_22  and  O_23
REMARK                            x       y       z     vdW  Elec       q    Type
REMARK                         _______ _______ _______ _____ _____    ______ ____
ROOT
ATOM      1  C   UNL     1       3.929   4.004  17.458  0.00  0.00    +0.000 A 
ATOM      2  C   UNL     1       2.809   3.378  17.048  0.00  0.00    +0.000 A 
ATOM      3  C   UNL     1       1.618   3.359  17.856  0.00  0.00    +0.000 A 
ATOM      4  C   UNL     1       1.600   3.987  19.036  0.00  0.00    +0.000 A 
ATOM      5  N   UNL     1       2.707   4.671  19.506  0.00  0.00    +0.000 N 
ATOM      6  C   UNL     1       3.898   4.755  18.770  0.00  0.00    +0.000 A 
ATOM      7  O   UNL     1       4.884   5.385  19.151  0.00  0.00    +0.000 OA
ENDROOT
BRANCH   1   9
ATOM      8  C   UNL     1       5.273   4.618  15.506  0.00  0.00    +0.000 C 
ATOM      9  C   UNL     1       5.158   3.988  16.685  0.00  0.00    +0.000 C 
BRANCH   8  11
ATOM     10  O   UNL     1       6.647   3.757  13.763  0.00  0.00    +0.000 OA
ATOM     11  C   UNL     1       6.520   4.532  14.704  0.00  0.00    +0.000 C 
ATOM     12  N   UNL     1       7.510   5.410  15.048  0.00  0.00    +0.000 N 
ATOM     13  H   UNL     1       8.430   5.221  14.661  0.00  0.00    +0.000 HD
BRANCH  12  14
ATOM     14  O   UNL     1       7.468   6.090  16.280  0.00  0.00    +0.000 OA
ATOM     15  H   UNL     1       8.292   6.614  16.246  0.00  0.00    +0.000 HD
ENDBRANCH  12  14
ENDBRANCH   8  11
ENDBRANCH   1   9
BRANCH   5  16
ATOM     16  C   UNL     1       2.611   5.399  20.771  0.00  0.00    +0.000 C 
BRANCH  16  17
ATOM     17  C   UNL     1       1.438   6.380  20.758  0.00  0.00    +0.000 C 
BRANCH  17  18
ATOM     18  C   UNL     1       1.843   7.751  20.213  0.00  0.00    +0.000 C 
BRANCH  18  19
ATOM     19  C   UNL     1       1.004   8.842  20.836  0.00  0.00    +0.000 A 
ATOM     20  C   UNL     1       0.650   9.978  20.094  0.00  0.00    +0.000 A 
ATOM     21  C   UNL     1      -0.061  11.022  20.692  0.00  0.00    +0.000 A 
ATOM     22  C   UNL     1      -0.419  10.933  22.035  0.00  0.00    +0.000 A 
ATOM     23 BR   UNL     1      -1.352  12.359  22.853  0.00  0.00    +0.000 Br
ATOM     24  C   UNL     1      -0.085   9.805  22.782  0.00  0.00    +0.000 A 
ATOM     25  C   UNL     1       0.626   8.763  22.183  0.00  0.00    +0.000 A 
ENDBRANCH  18  19
ENDBRANCH  17  18
ENDBRANCH  16  17
ENDBRANCH   5  16
TORSDOF 7
ENDMDL
MODEL 2
REMARK VINA RESULT:      -7.5      6.231      7.823
REMARK  Name = 
REMARK  7 active torsions:
REMARK  status: ('A' for Active; 'I' for Inactive)
REMARK    1  A    between atoms: C_2  and  C_3
REMARK    2  A    between atoms: C_4  and  C_5
REMARK    3  A    between atoms: N_9  and  C_10
REMARK    4  A    between atoms: C_10  and  C_11
REMARK    5  A    between atoms: C_11  and  C_12
REMARK    6  A    between atoms: C_12  and  C_13
REMARK    7  A    between atoms: N_22  and  O_23
REMARK                            x       y       z     vdW  Elec       q    Type
REMARK                         _______ _______ _______ _____ _____    ______ ____
ROOT
ATOM      1  C   UNL     1       4.957   5.235  18.436  0.00  0.00    +0.000 A 
ATOM      2  C   UNL     1       4.376   5.625  17.285  0.00  0.00    +0.000 A 
ATOM      3  C   UNL     1       4.993   6.599  16.423  0.00  0.00    +0.000 A 
ATOM      4  C   UNL     1       6.177   7.126  16.748  0.00  0.00    +0.000 A 
ATOM      5  N   UNL     1       6.840   6.750  17.903  0.00  0.00    +0.000 N 
ATOM      6  C   UNL     1       6.318   5.793  18.785  0.00  0.00    +0.000 A 
ATOM      7  O   UNL     1       6.904   5.418  19.799  0.00  0.00    +0.000 OA
ENDROOT
BRANCH   1   9
ATOM      8  C   UNL     1       3.053   3.898  19.201  0.00  0.00    +0.000 C 
ATOM      9  C   UNL     1       4.325   4.297  19.348  0.00  0.00    +0.000 C 
BRANCH   8  11
ATOM     10  O   UNL     1       2.531   3.135  21.394  0.00  0.00    +0.000 OA
ATOM     11  C   UNL     1       2.411   2.988  20.183  0.00  0.00    +0.000 C 
ATOM     12  N   UNL     1       1.632   1.997  19.655  0.00  0.00    +0.000 N 
ATOM     13  H   UNL     1       1.368   1.249  20.289  0.00  0.00    +0.000 HD
BRANCH  12  14
ATOM     14  O   UNL     1       1.721   1.667  18.289  0.00  0.00    +0.000 OA
ATOM     15  H   UNL     1       1.397   2.486  17.866  0.00  0.00    +0.000 HD
ENDBRANCH  12  14
ENDBRANCH   8  11
ENDBRANCH   1   9
BRANCH   5  16
ATOM     16  C   UNL     1       8.166   7.305  18.175  0.00  0.00    +0.000 C 
BRANCH  16  17
ATOM     17  C   UNL     1       8.173   8.826  18.023  0.00  0.00    +0.000 C 
BRANCH  17  18
ATOM     18  C   UNL     1       8.951   9.512  19.147  0.00  0.00    +0.000 C 
BRANCH  18  19
ATOM     19  C   UNL     1       9.483  10.850  18.690  0.00  0.00    +0.000 A 
ATOM     20  C   UNL     1       8.676  11.720  17.943  0.00  0.00    +0.000 A 
ATOM     21  C   UNL     1       9.192  12.923  17.456  0.00  0.00    +0.000 A 
ATOM     22  C   UNL     1      10.519  13.259  17.713  0.00  0.00    +0.000 A 
ATOM     23 BR   UNL     1      11.228  14.872  17.025  0.00  0.00    +0.000 Br
ATOM     24  C   UNL     1      11.331  12.412  18.463  0.00  0.00    +0.000 A 
ATOM     25  C   UNL     1      10.814  11.209  18.949  0.00  0.00    +0.000 A 
ENDBRANCH  18  19
ENDBRANCH  17  18
ENDBRANCH  16  17
ENDBRANCH   5  16
TORSDOF 7
ENDMDL
MODEL 3
REMARK VINA RESULT:      -7.5      0.581      1.519
REMARK  Name = 
REMARK  7 active torsions:
REMARK  status: ('A' for Active; 'I' for Inactive)
REMARK    1  A    between atoms: C_2  and  C_3
REMARK    2  A    between atoms: C_4  and  C_5
REMARK    3  A    between atoms: N_9  and  C_10
REMARK    4  A    between atoms: C_10  and  C_11
REMARK    5  A    between atoms: C_11  and  C_12
REMARK    6  A    between atoms: C_12  and  C_13
REMARK    7  A    between atoms: N_22  and  O_23
REMARK                            x       y       z     vdW  Elec       q    Type
REMARK                         _______ _______ _______ _____ _____    ______ ____
ROOT
ATOM      1  C   UNL     1       3.849   4.012  17.627  0.00  0.00    +0.000 A 
ATOM      2  C   UNL     1       2.782   3.311  17.199  0.00  0.00    +0.000 A 
ATOM      3  C   UNL     1       1.575   3.226  17.980  0.00  0.00    +0.000 A 
ATOM      4  C   UNL     1       1.488   3.865  19.150  0.00  0.00    +0.000 A 
ATOM      5  N   UNL     1       2.538   4.624  19.636  0.00  0.00    +0.000 N 
ATOM      6  C   UNL     1       3.739   4.775  18.927  0.00  0.00    +0.000 A 
ATOM      7  O   UNL     1       4.673   5.471  19.323  0.00  0.00    +0.000 OA
ENDROOT
BRANCH   1   9
ATOM      8  C   UNL     1       5.360   5.033  15.993  0.00  0.00    +0.000 C 
ATOM      9  C   UNL     1       5.096   4.065  16.883  0.00  0.00    +0.000 C 
BRANCH   8  11
ATOM     10  O   UNL     1       7.637   5.587  15.577  0.00  0.00    +0.000 OA
ATOM     11  C   UNL     1       6.614   5.029  15.198  0.00  0.00    +0.000 C 
ATOM     12  N   UNL     1       6.576   4.319  14.031  0.00  0.00    +0.000 N 
ATOM     13  H   UNL     1       7.340   4.483  13.382  0.00  0.00    +0.000 HD
BRANCH  12  14
ATOM     14  O   UNL     1       5.346   3.921  13.473  0.00  0.00    +0.000 OA
ATOM     15  H   UNL     1       5.531   2.995  13.224  0.00  0.00    +0.000 HD
ENDBRANCH  12  14
ENDBRANCH   8  11
ENDBRANCH   1   9
BRANCH   5  16
ATOM     16  C   UNL     1       2.365   5.360  20.888  0.00  0.00    +0.000 C 
BRANCH  16  17
ATOM     17  C   UNL     1       1.239   6.388  20.777  0.00  0.00    +0.000 C 
BRANCH  17  18
ATOM     18  C   UNL     1       1.757   7.761  20.345  0.00  0.00    +0.000 C 
BRANCH  18  19
ATOM     19  C   UNL     1       0.951   8.863  20.992  0.00  0.00    +0.000 A 
ATOM     20  C   UNL     1       0.681   8.834  22.368  0.00  0.00    +0.000 A 
ATOM     21  C   UNL     1      -0.128   9.812  22.952  0.00  0.00    +0.000 A 
ATOM     22  C   UNL     1      -0.669  10.823  22.161  0.00  0.00    +0.000 A 
ATOM     23 BR   UNL     1      -1.790  12.128  22.946  0.00  0.00    +0.000 Br
ATOM     24  C   UNL     1      -0.400  10.873  20.796  0.00  0.00    +0.000 A 
ATOM     25  C   UNL     1       0.407   9.894  20.212  0.00  0.00    +0.000 A 
ENDBRANCH  18  19
ENDBRANCH  17  18
ENDBRANCH  16  17
ENDBRANCH   5  16
TORSDOF 7
ENDMDL
MODEL 4
REMARK VINA RESULT:      -7.5      0.634      1.183
REMARK  Name = 
REMARK  7 active torsions:
REMARK  status: ('A' for Active; 'I' for Inactive)
REMARK    1  A    between atoms: C_2  and  C_3
REMARK    2  A    between atoms: C_4  and  C_5
REMARK    3  A    between atoms: N_9  and  C_10
REMARK    4  A    between atoms: C_10  and  C_11
REMARK    5  A    between atoms: C_11  and  C_12
REMARK    6  A    between atoms: C_12  and  C_13
REMARK    7  A    between atoms: N_22  and  O_23
REMARK                            x       y       z     vdW  Elec       q    Type
REMARK                         _______ _______ _______ _____ _____    ______ ____
ROOT
ATOM      1  C   UNL     1       4.102   3.972  17.437  0.00  0.00    +0.000 A 
ATOM      2  C   UNL     1       3.052   3.241  17.016  0.00  0.00    +0.000 A 
ATOM      3  C   UNL     1       1.852   3.126  17.803  0.00  0.00    +0.000 A 
ATOM      4  C   UNL     1       1.754   3.765  18.972  0.00  0.00    +0.000 A 
ATOM      5  N   UNL     1       2.786   4.553  19.451  0.00  0.00    +0.000 N 
ATOM      6  C   UNL     1       3.979   4.735  18.736  0.00  0.00    +0.000 A 
ATOM      7  O   UNL     1       4.895   5.457  19.125  0.00  0.00    +0.000 OA
ENDROOT
BRANCH   1   9
ATOM      8  C   UNL     1       5.443   4.745  15.539  0.00  0.00    +0.000 C 
ATOM      9  C   UNL     1       5.343   4.056  16.686  0.00  0.00    +0.000 C 
BRANCH   8  11
ATOM     10  O   UNL     1       7.639   5.507  15.030  0.00  0.00    +0.000 OA
ATOM     11  C   UNL     1       6.705   4.762  14.757  0.00  0.00    +0.000 C 
ATOM     12  N   UNL     1       6.785   3.857  13.736  0.00  0.00    +0.000 N 
ATOM     13  H   UNL     1       7.536   4.001  13.068  0.00  0.00    +0.000 HD
BRANCH  12  14
ATOM     14  O   UNL     1       5.628   3.211  13.260  0.00  0.00    +0.000 OA
ATOM     15  H   UNL     1       5.750   2.306  13.607  0.00  0.00    +0.000 HD
ENDBRANCH  12  14
ENDBRANCH   8  11
ENDBRANCH   1   9
BRANCH   5  16
ATOM     16  C   UNL     1       2.599   5.288  20.703  0.00  0.00    +0.000 C 
BRANCH  16  17
ATOM     17  C   UNL     1       1.430   6.267  20.602  0.00  0.00    +0.000 C 
BRANCH  17  18
ATOM     18  C   UNL     1       1.892   7.675  20.226  0.00  0.00    +0.000 C 
BRANCH  18  19
ATOM     19  C   UNL     1       0.992   8.718  20.849  0.00  0.00    +0.000 A 
ATOM     20  C   UNL     1       0.422   9.728  20.062  0.00  0.00    +0.000 A 
ATOM     21  C   UNL     1      -0.347  10.735  20.651  0.00  0.00    +0.000 A 
ATOM     22  C   UNL     1      -0.548  10.734  22.029  0.00  0.00    +0.000 A 
ATOM     23 BR   UNL     1      -1.562  12.115  22.830  0.00  0.00    +0.000 Br
ATOM     24  C   UNL     1       0.001   9.730  22.823  0.00  0.00    +0.000 A 
ATOM     25  C   UNL     1       0.771   8.724  22.234  0.00  0.00    +0.000 A 
ENDBRANCH  18  19
ENDBRANCH  17  18
ENDBRANCH  16  17
ENDBRANCH   5  16
TORSDOF 7
ENDMDL
MODEL 5
REMARK VINA RESULT:      -7.4      0.974      1.010
REMARK  Name = 
REMARK  7 active torsions:
REMARK  status: ('A' for Active; 'I' for Inactive)
REMARK    1  A    between atoms: C_2  and  C_3
REMARK    2  A    between atoms: C_4  and  C_5
REMARK    3  A    between atoms: N_9  and  C_10
REMARK    4  A    between atoms: C_10  and  C_11
REMARK    5  A    between atoms: C_11  and  C_12
REMARK    6  A    between atoms: C_12  and  C_13
REMARK    7  A    between atoms: N_22  and  O_23
REMARK                            x       y       z     vdW  Elec       q    Type
REMARK                         _______ _______ _______ _____ _____    ______ ____
ROOT
ATOM      1  C   UNL     1       3.353   4.443  17.579  0.00  0.00    +0.000 A 
ATOM      2  C   UNL     1       2.475   3.457  17.314  0.00  0.00    +0.000 A 
ATOM      3  C   UNL     1       1.425   3.115  18.238  0.00  0.00    +0.000 A 
ATOM      4  C   UNL     1       1.294   3.792  19.382  0.00  0.00    +0.000 A 
ATOM      5  N   UNL     1       2.146   4.833  19.705  0.00  0.00    +0.000 N 
ATOM      6  C   UNL     1       3.180   5.243  18.850  0.00  0.00    +0.000 A 
ATOM      7  O   UNL     1       3.928   6.187  19.100  0.00  0.00    +0.000 OA
ENDROOT
BRANCH   1   9
ATOM      8  C   UNL     1       5.469   3.920  16.464  0.00  0.00    +0.000 C 
ATOM      9  C   UNL     1       4.453   4.767  16.688  0.00  0.00    +0.000 C 
BRANCH   8  11
ATOM     10  O   UNL     1       6.502   4.459  14.389  0.00  0.00    +0.000 OA
ATOM     11  C   UNL     1       6.615   4.300  15.599  0.00  0.00    +0.000 C 
ATOM     12  N   UNL     1       7.802   4.512  16.242  0.00  0.00    +0.000 N 
ATOM     13  H   UNL     1       8.628   4.558  15.654  0.00  0.00    +0.000 HD
BRANCH  12  14
ATOM     14  O   UNL     1       7.990   4.067  17.565  0.00  0.00    +0.000 OA
ATOM     15  H   UNL     1       7.799   4.877  18.076  0.00  0.00    +0.000 HD
ENDBRANCH  12  14
ENDBRANCH   8  11
ENDBRANCH   1   9
BRANCH   5  16
ATOM     16  C   UNL     1       1.914   5.587  20.937  0.00  0.00    +0.000 C 
BRANCH  16  17
ATOM     17  C   UNL     1       1.051   6.822  20.678  0.00  0.00    +0.000 C 
BRANCH  17  18
ATOM     18  C   UNL     1       1.709   8.101  21.199  0.00  0.00    +0.000 C 
BRANCH  18  19
ATOM     19  C   UNL     1       0.665   9.139  21.538  0.00  0.00    +0.000 A 
ATOM     20  C   UNL     1       0.234  10.057  20.570  0.00  0.00    +0.000 A 
ATOM     21  C   UNL     1      -0.674  11.065  20.904  0.00  0.00    +0.000 A 
ATOM     22  C   UNL     1      -1.154  11.157  22.209  0.00  0.00    +0.000 A 
ATOM     23 BR   UNL     1      -2.358  12.541  22.669  0.00  0.00    +0.000 Br
ATOM     24  C   UNL     1      -0.745  10.245  23.178  0.00  0.00    +0.000 A 
ATOM     25  C   UNL     1       0.164   9.239  22.844  0.00  0.00    +0.000 A 
ENDBRANCH  18  19
ENDBRANCH  17  18
ENDBRANCH  16  17
ENDBRANCH   5  16
TORSDOF 7
ENDMDL
MODEL 6
REMARK VINA RESULT:      -7.4      0.853      1.392
REMARK  Name = 
REMARK  7 active torsions:
REMARK  status: ('A' for Active; 'I' for Inactive)
REMARK    1  A    between atoms: C_2  and  C_3
REMARK    2  A    between atoms: C_4  and  C_5
REMARK    3  A    between atoms: N_9  and  C_10
REMARK    4  A    between atoms: C_10  and  C_11
REMARK    5  A    between atoms: C_11  and  C_12
REMARK    6  A    between atoms: C_12  and  C_13
REMARK    7  A    between atoms: N_22  and  O_23
REMARK                            x       y       z     vdW  Elec       q    Type
REMARK                         _______ _______ _______ _____ _____    ______ ____
ROOT
ATOM      1  C   UNL     1       3.710   3.963  17.545  0.00  0.00    +0.000 A 
ATOM      2  C   UNL     1       2.551   3.424  17.121  0.00  0.00    +0.000 A 
ATOM      3  C   UNL     1       1.361   3.468  17.929  0.00  0.00    +0.000 A 
ATOM      4  C   UNL     1       1.383   4.069  19.122  0.00  0.00    +0.000 A 
ATOM      5  N   UNL     1       2.534   4.665  19.607  0.00  0.00    +0.000 N 
ATOM      6  C   UNL     1       3.729   4.685  18.873  0.00  0.00    +0.000 A 
ATOM      7  O   UNL     1       4.754   5.238  19.268  0.00  0.00    +0.000 OA
ENDROOT
BRANCH   1   9
ATOM      8  C   UNL     1       5.234   4.758  15.801  0.00  0.00    +0.000 C 
ATOM      9  C   UNL     1       4.937   3.881  16.771  0.00  0.00    +0.000 C 
BRANCH   8  11
ATOM     10  O   UNL     1       6.573   3.770  14.100  0.00  0.00    +0.000 OA
ATOM     11  C   UNL     1       6.463   4.614  14.981  0.00  0.00    +0.000 C 
ATOM     12  N   UNL     1       7.457   5.518  15.235  0.00  0.00    +0.000 N 
ATOM     13  H   UNL     1       8.369   5.302  14.844  0.00  0.00    +0.000 HD
BRANCH  12  14
ATOM     14  O   UNL     1       7.439   6.290  16.412  0.00  0.00    +0.000 OA
ATOM     15  H   UNL     1       8.312   6.726  16.377  0.00  0.00    +0.000 HD
ENDBRANCH  12  14
ENDBRANCH   8  11
ENDBRANCH   1   9
BRANCH   5  16
ATOM     16  C   UNL     1       2.485   5.370  20.888  0.00  0.00    +0.000 C 
BRANCH  16  17
ATOM     17  C   UNL     1       1.542   6.572  20.825  0.00  0.00    +0.000 C 
BRANCH  17  18
ATOM     18  C   UNL     1       2.004   7.610  19.801  0.00  0.00    +0.000 C 
BRANCH  18  19
ATOM     19  C   UNL     1       1.189   8.877  19.919  0.00  0.00    +0.000 A 
ATOM     20  C   UNL     1       0.427   9.128  21.069  0.00  0.00    +0.000 A 
ATOM     21  C   UNL     1      -0.385  10.262  21.147  0.00  0.00    +0.000 A 
ATOM     22  C   UNL     1      -0.438  11.148  20.073  0.00  0.00    +0.000 A 
ATOM     23 BR   UNL     1      -1.563  12.666  20.165  0.00  0.00    +0.000 Br
ATOM     24  C   UNL     1       0.323  10.919  18.929  0.00  0.00    +0.000 A 
ATOM     25  C   UNL     1       1.134   9.785  18.852  0.00  0.00    +0.000 A 
ENDBRANCH  18  19
ENDBRANCH  17  18
ENDBRANCH  16  17
ENDBRANCH   5  16
TORSDOF 7
ENDMDL
MODEL 7
REMARK VINA RESULT:      -7.4      5.650      7.503
REMARK  Name = 
REMARK  7 active torsions:
REMARK  status: ('A' for Active; 'I' for Inactive)
REMARK    1  A    between atoms: C_2  and  C_3
REMARK    2  A    between atoms: C_4  and  C_5
REMARK    3  A    between atoms: N_9  and  C_10
REMARK    4  A    between atoms: C_10  and  C_11
REMARK    5  A    between atoms: C_11  and  C_12
REMARK    6  A    between atoms: C_12  and  C_13
REMARK    7  A    between atoms: N_22  and  O_23
REMARK                            x       y       z     vdW  Elec       q    Type
REMARK                         _______ _______ _______ _____ _____    ______ ____
ROOT
ATOM      1  C   UNL     1       4.804   4.181  18.431  0.00  0.00    +0.000 A 
ATOM      2  C   UNL     1       4.461   4.239  17.130  0.00  0.00    +0.000 A 
ATOM      3  C   UNL     1       5.140   5.114  16.211  0.00  0.00    +0.000 A 
ATOM      4  C   UNL     1       6.147   5.881  16.637  0.00  0.00    +0.000 A 
ATOM      5  N   UNL     1       6.568   5.852  17.954  0.00  0.00    +0.000 N 
ATOM      6  C   UNL     1       5.974   5.012  18.908  0.00  0.00    +0.000 A 
ATOM      7  O   UNL     1       6.352   4.944  20.077  0.00  0.00    +0.000 OA
ENDROOT
BRANCH   1   9
ATOM      8  C   UNL     1       3.083   3.814  20.134  0.00  0.00    +0.000 C 
ATOM      9  C   UNL     1       4.095   3.348  19.387  0.00  0.00    +0.000 C 
BRANCH   8  11
ATOM     10  O   UNL     1       3.042   2.337  21.999  0.00  0.00    +0.000 OA
ATOM     11  C   UNL     1       2.417   2.961  21.150  0.00  0.00    +0.000 C 
ATOM     12  N   UNL     1       1.051   2.948  21.113  0.00  0.00    +0.000 N 
ATOM     13  H   UNL     1       0.595   2.215  21.649  0.00  0.00    +0.000 HD
BRANCH  12  14
ATOM     14  O   UNL     1       0.360   3.432  19.986  0.00  0.00    +0.000 OA
ATOM     15  H   UNL     1      -0.447   2.883  19.997  0.00  0.00    +0.000 HD
ENDBRANCH  12  14
ENDBRANCH   8  11
ENDBRANCH   1   9
BRANCH   5  16
ATOM     16  C   UNL     1       7.721   6.659  18.353  0.00  0.00    +0.000 C 
BRANCH  16  17
ATOM     17  C   UNL     1       7.981   7.786  17.352  0.00  0.00    +0.000 C 
BRANCH  17  18
ATOM     18  C   UNL     1       7.339   9.102  17.792  0.00  0.00    +0.000 C 
BRANCH  18  19
ATOM     19  C   UNL     1       8.395  10.100  18.209  0.00  0.00    +0.000 A 
ATOM     20  C   UNL     1       9.217   9.845  19.316  0.00  0.00    +0.000 A 
ATOM     21  C   UNL     1      10.141  10.799  19.747  0.00  0.00    +0.000 A 
ATOM     22  C   UNL     1      10.246  12.013  19.072  0.00  0.00    +0.000 A 
ATOM     23 BR   UNL     1      11.474  13.319  19.674  0.00  0.00    +0.000 Br
ATOM     24  C   UNL     1       9.446  12.276  17.963  0.00  0.00    +0.000 A 
ATOM     25  C   UNL     1       8.521  11.322  17.533  0.00  0.00    +0.000 A 
ENDBRANCH  18  19
ENDBRANCH  17  18
ENDBRANCH  16  17
ENDBRANCH   5  16
TORSDOF 7
ENDMDL
MODEL 8
REMARK VINA RESULT:      -7.4      4.807      8.271
REMARK  Name = 
REMARK  7 active torsions:
REMARK  status: ('A' for Active; 'I' for Inactive)
REMARK    1  A    between atoms: C_2  and  C_3
REMARK    2  A    between atoms: C_4  and  C_5
REMARK    3  A    between atoms: N_9  and  C_10
REMARK    4  A    between atoms: C_10  and  C_11
REMARK    5  A    between atoms: C_11  and  C_12
REMARK    6  A    between atoms: C_12  and  C_13
REMARK    7  A    between atoms: N_22  and  O_23
REMARK                            x       y       z     vdW  Elec       q    Type
REMARK                         _______ _______ _______ _____ _____    ______ ____
ROOT
ATOM      1  C   UNL     1       1.228   9.393  19.243  0.00  0.00    +0.000 A 
ATOM      2  C   UNL     1       1.832   9.303  18.043  0.00  0.00    +0.000 A 
ATOM      3  C   UNL     1       2.625   8.157  17.683  0.00  0.00    +0.000 A 
ATOM      4  C   UNL     1       2.762   7.141  18.541  0.00  0.00    +0.000 A 
ATOM      5  N   UNL     1       2.147   7.158  19.780  0.00  0.00    +0.000 N 
ATOM      6  C   UNL     1       1.341   8.226  20.199  0.00  0.00    +0.000 A 
ATOM      7  O   UNL     1       0.757   8.248  21.281  0.00  0.00    +0.000 OA
ENDROOT
BRANCH   1   9
ATOM      8  C   UNL     1      -0.800  10.765  19.268  0.00  0.00    +0.000 C 
ATOM      9  C   UNL     1       0.471  10.564  19.648  0.00  0.00    +0.000 C 
BRANCH   8  11
ATOM     10  O   UNL     1      -2.052  12.152  20.740  0.00  0.00    +0.000 OA
ATOM     11  C   UNL     1      -1.532  12.001  19.642  0.00  0.00    +0.000 C 
ATOM     12  N   UNL     1      -1.550  12.990  18.698  0.00  0.00    +0.000 N 
ATOM     13  H   UNL     1      -2.217  13.741  18.850  0.00  0.00    +0.000 HD
BRANCH  12  14
ATOM     14  O   UNL     1      -1.199  12.714  17.363  0.00  0.00    +0.000 OA
ATOM     15  H   UNL     1      -0.945  11.772  17.416  0.00  0.00    +0.000 HD
ENDBRANCH  12  14
ENDBRANCH   8  11
ENDBRANCH   1   9
BRANCH   5  16
ATOM     16  C   UNL     1       2.272   5.990  20.653  0.00  0.00    +0.000 C 
BRANCH  16  17
ATOM     17  C   UNL     1       1.703   4.737  19.987  0.00  0.00    +0.000 C 
BRANCH  17  18
ATOM     18  C   UNL     1       2.716   3.591  19.962  0.00  0.00    +0.000 C 
BRANCH  18  19
ATOM     19  C   UNL     1       3.756   3.819  18.889  0.00  0.00    +0.000 A 
ATOM     20  C   UNL     1       5.042   4.262  19.228  0.00  0.00    +0.000 A 
ATOM     21  C   UNL     1       5.979   4.546  18.231  0.00  0.00    +0.000 A 
ATOM     22  C   UNL     1       5.630   4.389  16.891  0.00  0.00    +0.000 A 
ATOM     23 BR   UNL     1       6.887   4.804  15.540  0.00  0.00    +0.000 Br
ATOM     24  C   UNL     1       4.360   3.938  16.539  0.00  0.00    +0.000 A 
ATOM     25  C   UNL     1       3.424   3.656  17.537  0.00  0.00    +0.000 A 
ENDBRANCH  18  19
ENDBRANCH  17  18
ENDBRANCH  16  17
ENDBRANCH   5  16
TORSDOF 7
ENDMDL
MODEL 9
REMARK VINA RESULT:      -7.3      1.990      2.911
REMARK  Name = 
REMARK  7 active torsions:
REMARK  status: ('A' for Active; 'I' for Inactive)
REMARK    1  A    between atoms: C_2  and  C_3
REMARK    2  A    between atoms: C_4  and  C_5
REMARK    3  A    between atoms: N_9  and  C_10
REMARK    4  A    between atoms: C_10  and  C_11
REMARK    5  A    between atoms: C_11  and  C_12
REMARK    6  A    between atoms: C_12  and  C_13
REMARK    7  A    between atoms: N_22  and  O_23
REMARK                            x       y       z     vdW  Elec       q    Type
REMARK                         _______ _______ _______ _____ _____    ______ ____
ROOT
ATOM      1  C   UNL     1       6.068   4.300  16.643  0.00  0.00    +0.000 A 
ATOM      2  C   UNL     1       7.126   4.848  17.271  0.00  0.00    +0.000 A 
ATOM      3  C   UNL     1       7.033   5.323  18.627  0.00  0.00    +0.000 A 
ATOM      4  C   UNL     1       5.884   5.208  19.299  0.00  0.00    +0.000 A 
ATOM      5  N   UNL     1       4.767   4.631  18.723  0.00  0.00    +0.000 N 
ATOM      6  C   UNL     1       4.780   4.124  17.415  0.00  0.00    +0.000 A 
ATOM      7  O   UNL     1       3.810   3.577  16.893  0.00  0.00    +0.000 OA
ENDROOT
BRANCH   1   9
ATOM      8  C   UNL     1       6.770   4.565  14.313  0.00  0.00    +0.000 C 
ATOM      9  C   UNL     1       6.124   3.867  15.258  0.00  0.00    +0.000 C 
BRANCH   8  11
ATOM     10  O   UNL     1       6.140   3.150  12.506  0.00  0.00    +0.000 OA
ATOM     11  C   UNL     1       6.758   4.135  12.891  0.00  0.00    +0.000 C 
ATOM     12  N   UNL     1       7.444   4.937  12.022  0.00  0.00    +0.000 N 
ATOM     13  H   UNL     1       7.625   4.547  11.102  0.00  0.00    +0.000 HD
BRANCH  12  14
ATOM     14  O   UNL     1       8.364   5.889  12.499  0.00  0.00    +0.000 OA
ATOM     15  H   UNL     1       8.864   6.105  11.688  0.00  0.00    +0.000 HD
ENDBRANCH  12  14
ENDBRANCH   8  11
ENDBRANCH   1   9
BRANCH   5  16
ATOM     16  C   UNL     1       3.555   4.466  19.526  0.00  0.00    +0.000 C 
BRANCH  16  17
ATOM     17  C   UNL     1       2.442   5.399  19.050  0.00  0.00    +0.000 C 
BRANCH  17  18
ATOM     18  C   UNL     1       2.993   6.725  18.521  0.00  0.00    +0.000 C 
BRANCH  18  19
ATOM     19  C   UNL     1       2.094   7.873  18.917  0.00  0.00    +0.000 A 
ATOM     20  C   UNL     1       1.741   8.856  17.982  0.00  0.00    +0.000 A 
ATOM     21  C   UNL     1       0.972   9.957  18.368  0.00  0.00    +0.000 A 
ATOM     22  C   UNL     1       0.556  10.079  19.691  0.00  0.00    +0.000 A 
ATOM     23 BR   UNL     1      -0.456  11.586  20.221  0.00  0.00    +0.000 Br
ATOM     24  C   UNL     1       0.888   9.105  20.629  0.00  0.00    +0.000 A 
ATOM     25  C   UNL     1       1.657   8.004  20.243  0.00  0.00    +0.000 A 
ENDBRANCH  18  19
ENDBRANCH  17  18
ENDBRANCH  16  17
ENDBRANCH   5  16
TORSDOF 7
ENDMDL
