MODEL 1
REMARK VINA RESULT:      -8.4      0.000      0.000
REMARK  Name = 
REMARK  8 active torsions:
REMARK  status: ('A' for Active; 'I' for Inactive)
REMARK    1  A    between atoms: C_1  and  C_2
REMARK    2  A    between atoms: C_2  and  C_3
REMARK    3  A    between atoms: C_2  and  C_4
REMARK    4  A    between atoms: C_11  and  O_12
REMARK    5  A    between atoms: O_12  and  C_13
REMARK    6  A    between atoms: C_15  and  N_16
REMARK    7  A    between atoms: C_21  and  S_22
REMARK    8  A    between atoms: S_22  and  C_23
REMARK                            x       y       z     vdW  Elec       q    Type
REMARK                         _______ _______ _______ _____ _____    ______ ____
ROOT
ATOM      1  C   UNL     1       4.349   4.431  18.616  0.00  0.00    +0.000 A 
ATOM      2  C   UNL     1       3.745   5.514  19.212  0.00  0.00    +0.000 A 
ATOM      3  C   UNL     1       2.397   5.691  18.971  0.00  0.00    +0.000 A 
ATOM      4  N   UNL     1       1.732   4.858  18.146  0.00  0.00    +0.000 NA
ATOM      5  C   UNL     1       2.422   3.837  17.615  0.00  0.00    +0.000 A 
ATOM      6  N   UNL     1       3.717   3.568  17.814  0.00  0.00    +0.000 NA
ENDROOT
BRANCH   3   7
ATOM      7  N   UNL     1       1.721   6.769  19.546  0.00  0.00    +0.000 N 
ATOM      8  C   UNL     1       1.450   6.730  20.992  0.00  0.00    +0.000 C 
ATOM      9  C   UNL     1       0.734   8.047  21.354  0.00  0.00    +0.000 C 
ATOM     10  C   UNL     1       1.145   8.926  20.217  0.00  0.00    +0.000 A 
ATOM     11  C   UNL     1       0.986  10.299  20.090  0.00  0.00    +0.000 A 
ATOM     12  C   UNL     1       1.443  10.895  18.911  0.00  0.00    +0.000 A 
ATOM     13  C   UNL     1       2.022  10.130  17.889  0.00  0.00    +0.000 A 
ATOM     14  C   UNL     1       2.161   8.744  18.036  0.00  0.00    +0.000 A 
ATOM     15  C   UNL     1       1.705   8.140  19.201  0.00  0.00    +0.000 A 
BRANCH  12  16
ATOM     16  S   UNL     1       1.219  12.641  18.661  0.00  0.00    +0.000 S 
ATOM     17  C   UNL     1       1.348  13.317  20.297  0.00  0.00    +0.000 C 
ATOM     18  O   UNL     1       2.341  13.124  17.885  0.00  0.00    +0.000 OA
ATOM     19  O   UNL     1      -0.144  12.845  18.202  0.00  0.00    +0.000 OA
ENDBRANCH  12  16
ENDBRANCH   3   7
BRANCH   1  20
ATOM     20  O   UNL     1       5.696   4.265  18.877  0.00  0.00    +0.000 OA
BRANCH  20  28
ATOM     21  C   UNL     1       9.106  10.115  18.506  0.00  0.00    +0.000 A 
ATOM     22  N   UNL     1       8.261  10.506  17.546  0.00  0.00    +0.000 NA
ATOM     23  O   UNL     1       7.516   9.353  17.292  0.00  0.00    +0.000 OA
ATOM     24  C   UNL     1       7.994   8.375  18.127  0.00  0.00    +0.000 A 
ATOM     25  N   UNL     1       7.478   7.130  18.023  0.00  0.00    +0.000 N 
ATOM     26  C   UNL     1       7.999   6.101  18.914  0.00  0.00    +0.000 C 
ATOM     27  C   UNL     1       7.988   4.779  18.152  0.00  0.00    +0.000 C 
ATOM     28  C   UNL     1       6.554   4.423  17.733  0.00  0.00    +0.000 C 
ATOM     29  C   UNL     1       5.981   5.570  16.879  0.00  0.00    +0.000 C 
ATOM     30  C   UNL     1       6.102   6.930  17.575  0.00  0.00    +0.000 C 
ATOM     31  N   UNL     1       8.975   8.802  18.889  0.00  0.00    +0.000 NA
BRANCH  21  33
ATOM     32  C   UNL     1      10.387  12.234  18.211  0.00  0.00    +0.000 C 
ATOM     33  C   UNL     1      10.105  11.035  19.118  0.00  0.00    +0.000 C 
ATOM     34  C   UNL     1       9.668  11.500  20.508  0.00  0.00    +0.000 C 
ENDBRANCH  21  33
ENDBRANCH  20  28
ENDBRANCH   1  20
TORSDOF 5
ENDMDL
MODEL 2
REMARK VINA RESULT:      -8.3      3.565      5.878
REMARK  Name = 
REMARK  8 active torsions:
REMARK  status: ('A' for Active; 'I' for Inactive)
REMARK    1  A    between atoms: C_1  and  C_2
REMARK    2  A    between atoms: C_2  and  C_3
REMARK    3  A    between atoms: C_2  and  C_4
REMARK    4  A    between atoms: C_11  and  O_12
REMARK    5  A    between atoms: O_12  and  C_13
REMARK    6  A    between atoms: C_15  and  N_16
REMARK    7  A    between atoms: C_21  and  S_22
REMARK    8  A    between atoms: S_22  and  C_23
REMARK                            x       y       z     vdW  Elec       q    Type
REMARK                         _______ _______ _______ _____ _____    ______ ____
ROOT
ATOM      1  C   UNL     1       3.963   5.705  19.443  0.00  0.00    +0.000 A 
ATOM      2  C   UNL     1       3.429   6.956  19.240  0.00  0.00    +0.000 A 
ATOM      3  C   UNL     1       2.212   7.222  19.837  0.00  0.00    +0.000 A 
ATOM      4  N   UNL     1       1.569   6.268  20.541  0.00  0.00    +0.000 NA
ATOM      5  C   UNL     1       2.181   5.081  20.669  0.00  0.00    +0.000 A 
ATOM      6  N   UNL     1       3.369   4.742  20.156  0.00  0.00    +0.000 NA
ENDROOT
BRANCH   3   7
ATOM      7  N   UNL     1       1.613   8.473  19.674  0.00  0.00    +0.000 N 
ATOM      8  C   UNL     1       1.179   8.866  18.325  0.00  0.00    +0.000 C 
ATOM      9  C   UNL     1       0.529  10.259  18.446  0.00  0.00    +0.000 C 
ATOM     10  C   UNL     1       0.168  10.289  19.897  0.00  0.00    +0.000 A 
ATOM     11  C   UNL     1      -0.634  11.203  20.565  0.00  0.00    +0.000 A 
ATOM     12  C   UNL     1      -0.807  11.024  21.941  0.00  0.00    +0.000 A 
ATOM     13  C   UNL     1      -0.177   9.972  22.621  0.00  0.00    +0.000 A 
ATOM     14  C   UNL     1       0.638   9.070  21.925  0.00  0.00    +0.000 A 
ATOM     15  C   UNL     1       0.822   9.240  20.559  0.00  0.00    +0.000 A 
BRANCH  12  16
ATOM     16  S   UNL     1      -1.778  12.191  22.866  0.00  0.00    +0.000 S 
ATOM     17  C   UNL     1      -2.622  13.120  21.611  0.00  0.00    +0.000 C 
ATOM     18  O   UNL     1      -2.766  11.447  23.617  0.00  0.00    +0.000 OA
ATOM     19  O   UNL     1      -0.855  13.089  23.539  0.00  0.00    +0.000 OA
ENDBRANCH  12  16
ENDBRANCH   3   7
BRANCH   1  20
ATOM     20  O   UNL     1       5.186   5.461  18.846  0.00  0.00    +0.000 OA
BRANCH  20  28
ATOM     21  C   UNL     1       5.983   3.417  12.430  0.00  0.00    +0.000 A 
ATOM     22  N   UNL     1       7.307   3.466  12.615  0.00  0.00    +0.000 NA
ATOM     23  O   UNL     1       7.428   4.057  13.875  0.00  0.00    +0.000 OA
ATOM     24  C   UNL     1       6.156   4.310  14.322  0.00  0.00    +0.000 A 
ATOM     25  N   UNL     1       6.003   4.952  15.501  0.00  0.00    +0.000 N 
ATOM     26  C   UNL     1       4.646   5.217  15.961  0.00  0.00    +0.000 C 
ATOM     27  C   UNL     1       4.661   6.549  16.706  0.00  0.00    +0.000 C 
ATOM     28  C   UNL     1       5.610   6.469  17.911  0.00  0.00    +0.000 C 
ATOM     29  C   UNL     1       7.017   6.084  17.419  0.00  0.00    +0.000 C 
ATOM     30  C   UNL     1       7.005   4.817  16.556  0.00  0.00    +0.000 C 
ATOM     31  N   UNL     1       5.238   3.933  13.461  0.00  0.00    +0.000 NA
BRANCH  21  33
ATOM     32  C   UNL     1       5.657   1.339  11.090  0.00  0.00    +0.000 C 
ATOM     33  C   UNL     1       5.367   2.837  11.203  0.00  0.00    +0.000 C 
ATOM     34  C   UNL     1       3.862   3.102  11.147  0.00  0.00    +0.000 C 
ENDBRANCH  21  33
ENDBRANCH  20  28
ENDBRANCH   1  20
TORSDOF 5
ENDMDL
MODEL 3
REMARK VINA RESULT:      -8.2      2.993      5.202
REMARK  Name = 
REMARK  8 active torsions:
REMARK  status: ('A' for Active; 'I' for Inactive)
REMARK    1  A    between atoms: C_1  and  C_2
REMARK    2  A    between atoms: C_2  and  C_3
REMARK    3  A    between atoms: C_2  and  C_4
REMARK    4  A    between atoms: C_11  and  O_12
REMARK    5  A    between atoms: O_12  and  C_13
REMARK    6  A    between atoms: C_15  and  N_16
REMARK    7  A    between atoms: C_21  and  S_22
REMARK    8  A    between atoms: S_22  and  C_23
REMARK                            x       y       z     vdW  Elec       q    Type
REMARK                         _______ _______ _______ _____ _____    ______ ____
ROOT
ATOM      1  C   UNL     1       4.310   5.342  19.232  0.00  0.00    +0.000 A 
ATOM      2  C   UNL     1       3.559   6.460  19.510  0.00  0.00    +0.000 A 
ATOM      3  C   UNL     1       2.268   6.252  19.957  0.00  0.00    +0.000 A 
ATOM      4  N   UNL     1       1.771   5.003  20.061  0.00  0.00    +0.000 NA
ATOM      5  C   UNL     1       2.592   3.986  19.759  0.00  0.00    +0.000 A 
ATOM      6  N   UNL     1       3.861   4.087  19.350  0.00  0.00    +0.000 NA
ENDROOT
BRANCH   3   7
ATOM      7  N   UNL     1       1.450   7.343  20.259  0.00  0.00    +0.000 N 
ATOM      8  C   UNL     1       0.927   7.462  21.629  0.00  0.00    +0.000 C 
ATOM      9  C   UNL     1       0.096   8.760  21.684  0.00  0.00    +0.000 C 
ATOM     10  C   UNL     1       0.662   9.520  20.528  0.00  0.00    +0.000 A 
ATOM     11  C   UNL     1       0.463  10.852  20.194  0.00  0.00    +0.000 A 
ATOM     12  C   UNL     1       1.095  11.329  19.042  0.00  0.00    +0.000 A 
ATOM     13  C   UNL     1       1.883  10.487  18.245  0.00  0.00    +0.000 A 
ATOM     14  C   UNL     1       2.059   9.143  18.597  0.00  0.00    +0.000 A 
ATOM     15  C   UNL     1       1.432   8.656  19.736  0.00  0.00    +0.000 A 
BRANCH  12  16
ATOM     16  S   UNL     1       0.837  13.012  18.527  0.00  0.00    +0.000 S 
ATOM     17  C   UNL     1       0.820  13.917  20.053  0.00  0.00    +0.000 C 
ATOM     18  O   UNL     1       1.999  13.425  17.771  0.00  0.00    +0.000 OA
ATOM     19  O   UNL     1      -0.493  13.091  17.948  0.00  0.00    +0.000 OA
ENDBRANCH  12  16
ENDBRANCH   3   7
BRANCH   1  20
ATOM     20  O   UNL     1       5.603   5.570  18.797  0.00  0.00    +0.000 OA
BRANCH  20  28
ATOM     21  C   UNL     1       6.052   3.527  12.346  0.00  0.00    +0.000 A 
ATOM     22  N   UNL     1       7.356   3.820  12.380  0.00  0.00    +0.000 NA
ATOM     23  O   UNL     1       7.504   4.458  13.614  0.00  0.00    +0.000 OA
ATOM     24  C   UNL     1       6.265   4.489  14.200  0.00  0.00    +0.000 A 
ATOM     25  N   UNL     1       6.127   5.125  15.385  0.00  0.00    +0.000 N 
ATOM     26  C   UNL     1       4.803   5.153  15.993  0.00  0.00    +0.000 C 
ATOM     27  C   UNL     1       4.655   6.486  16.721  0.00  0.00    +0.000 C 
ATOM     28  C   UNL     1       5.729   6.612  17.812  0.00  0.00    +0.000 C 
ATOM     29  C   UNL     1       7.121   6.474  17.167  0.00  0.00    +0.000 C 
ATOM     30  C   UNL     1       7.246   5.203  16.321  0.00  0.00    +0.000 C 
ATOM     31  N   UNL     1       5.342   3.929  13.452  0.00  0.00    +0.000 NA
BRANCH  21  33
ATOM     32  C   UNL     1       5.751   1.318  11.229  0.00  0.00    +0.000 C 
ATOM     33  C   UNL     1       5.421   2.812  11.201  0.00  0.00    +0.000 C 
ATOM     34  C   UNL     1       3.908   3.031  11.162  0.00  0.00    +0.000 C 
ENDBRANCH  21  33
ENDBRANCH  20  28
ENDBRANCH   1  20
TORSDOF 5
ENDMDL
MODEL 4
REMARK VINA RESULT:      -8.2      4.136      7.838
REMARK  Name = 
REMARK  8 active torsions:
REMARK  status: ('A' for Active; 'I' for Inactive)
REMARK    1  A    between atoms: C_1  and  C_2
REMARK    2  A    between atoms: C_2  and  C_3
REMARK    3  A    between atoms: C_2  and  C_4
REMARK    4  A    between atoms: C_11  and  O_12
REMARK    5  A    between atoms: O_12  and  C_13
REMARK    6  A    between atoms: C_15  and  N_16
REMARK    7  A    between atoms: C_21  and  S_22
REMARK    8  A    between atoms: S_22  and  C_23
REMARK                            x       y       z     vdW  Elec       q    Type
REMARK                         _______ _______ _______ _____ _____    ______ ____
ROOT
ATOM      1  C   UNL     1       0.943  13.922  19.198  0.00  0.00    +0.000 A 
ATOM      2  C   UNL     1       1.412  12.757  19.761  0.00  0.00    +0.000 A 
ATOM      3  C   UNL     1       0.758  11.589  19.418  0.00  0.00    +0.000 A 
ATOM      4  N   UNL     1      -0.319  11.618  18.608  0.00  0.00    +0.000 NA
ATOM      5  C   UNL     1      -0.692  12.811  18.121  0.00  0.00    +0.000 A 
ATOM      6  N   UNL     1      -0.105  13.986  18.369  0.00  0.00    +0.000 NA
ENDROOT
BRANCH   3   7
ATOM      7  N   UNL     1       1.182  10.370  19.952  0.00  0.00    +0.000 N 
ATOM      8  C   UNL     1       0.536   9.886  21.182  0.00  0.00    +0.000 C 
ATOM      9  C   UNL     1       1.168   8.520  21.518  0.00  0.00    +0.000 C 
ATOM     10  C   UNL     1       1.707   8.111  20.184  0.00  0.00    +0.000 A 
ATOM     11  C   UNL     1       2.204   6.874  19.801  0.00  0.00    +0.000 A 
ATOM     12  C   UNL     1       2.669   6.744  18.489  0.00  0.00    +0.000 A 
ATOM     13  C   UNL     1       2.652   7.830  17.603  0.00  0.00    +0.000 A 
ATOM     14  C   UNL     1       2.155   9.072  18.017  0.00  0.00    +0.000 A 
ATOM     15  C   UNL     1       1.695   9.215  19.320  0.00  0.00    +0.000 A 
BRANCH  12  16
ATOM     16  S   UNL     1       3.371   5.201  17.951  0.00  0.00    +0.000 S 
ATOM     17  C   UNL     1       4.298   4.650  19.360  0.00  0.00    +0.000 C 
ATOM     18  O   UNL     1       2.282   4.272  17.737  0.00  0.00    +0.000 OA
ATOM     19  O   UNL     1       4.313   5.498  16.886  0.00  0.00    +0.000 OA
ENDBRANCH  12  16
ENDBRANCH   3   7
BRANCH   1  20
ATOM     20  O   UNL     1       1.617  15.079  19.544  0.00  0.00    +0.000 OA
BRANCH  20  28
ATOM     21  C   UNL     1       8.137  16.714  18.645  0.00  0.00    +0.000 A 
ATOM     22  N   UNL     1       7.866  17.924  19.147  0.00  0.00    +0.000 NA
ATOM     23  O   UNL     1       6.475  17.914  19.263  0.00  0.00    +0.000 OA
ATOM     24  C   UNL     1       6.044  16.693  18.812  0.00  0.00    +0.000 A 
ATOM     25  N   UNL     1       4.714  16.458  18.756  0.00  0.00    +0.000 N 
ATOM     26  C   UNL     1       4.271  15.157  18.270  0.00  0.00    +0.000 C 
ATOM     27  C   UNL     1       2.966  15.366  17.509  0.00  0.00    +0.000 C 
ATOM     28  C   UNL     1       1.900  15.961  18.442  0.00  0.00    +0.000 C 
ATOM     29  C   UNL     1       2.427  17.283  19.030  0.00  0.00    +0.000 C 
ATOM     30  C   UNL     1       3.802  17.121  19.686  0.00  0.00    +0.000 C 
ATOM     31  N   UNL     1       7.035  15.925  18.420  0.00  0.00    +0.000 NA
BRANCH  21  33
ATOM     32  C   UNL     1      10.559  17.253  18.891  0.00  0.00    +0.000 C 
ATOM     33  C   UNL     1       9.526  16.256  18.362  0.00  0.00    +0.000 C 
ATOM     34  C   UNL     1       9.786  14.858  18.925  0.00  0.00    +0.000 C 
ENDBRANCH  21  33
ENDBRANCH  20  28
ENDBRANCH   1  20
TORSDOF 5
ENDMDL
MODEL 5
REMARK VINA RESULT:      -7.8      4.411      7.995
REMARK  Name = 
REMARK  8 active torsions:
REMARK  status: ('A' for Active; 'I' for Inactive)
REMARK    1  A    between atoms: C_1  and  C_2
REMARK    2  A    between atoms: C_2  and  C_3
REMARK    3  A    between atoms: C_2  and  C_4
REMARK    4  A    between atoms: C_11  and  O_12
REMARK    5  A    between atoms: O_12  and  C_13
REMARK    6  A    between atoms: C_15  and  N_16
REMARK    7  A    between atoms: C_21  and  S_22
REMARK    8  A    between atoms: S_22  and  C_23
REMARK                            x       y       z     vdW  Elec       q    Type
REMARK                         _______ _______ _______ _____ _____    ______ ____
ROOT
ATOM      1  C   UNL     1       1.229  13.298  18.492  0.00  0.00    +0.000 A 
ATOM      2  C   UNL     1       1.694  12.116  19.020  0.00  0.00    +0.000 A 
ATOM      3  C   UNL     1       0.749  11.166  19.354  0.00  0.00    +0.000 A 
ATOM      4  N   UNL     1      -0.566  11.423  19.208  0.00  0.00    +0.000 NA
ATOM      5  C   UNL     1      -0.907  12.612  18.688  0.00  0.00    +0.000 A 
ATOM      6  N   UNL     1      -0.066  13.580  18.306  0.00  0.00    +0.000 NA
ENDROOT
BRANCH   3   7
ATOM      7  N   UNL     1       1.151   9.942  19.895  0.00  0.00    +0.000 N 
ATOM      8  C   UNL     1       0.391   9.400  21.032  0.00  0.00    +0.000 C 
ATOM      9  C   UNL     1       1.026   8.042  21.394  0.00  0.00    +0.000 C 
ATOM     10  C   UNL     1       1.719   7.692  20.116  0.00  0.00    +0.000 A 
ATOM     11  C   UNL     1       2.294   6.483  19.753  0.00  0.00    +0.000 A 
ATOM     12  C   UNL     1       2.903   6.410  18.497  0.00  0.00    +0.000 A 
ATOM     13  C   UNL     1       2.948   7.524  17.646  0.00  0.00    +0.000 A 
ATOM     14  C   UNL     1       2.370   8.737  18.041  0.00  0.00    +0.000 A 
ATOM     15  C   UNL     1       1.766   8.823  19.289  0.00  0.00    +0.000 A 
BRANCH  12  16
ATOM     16  S   UNL     1       3.708   4.907  17.993  0.00  0.00    +0.000 S 
ATOM     17  C   UNL     1       4.886   5.450  16.782  0.00  0.00    +0.000 C 
ATOM     18  O   UNL     1       4.438   4.393  19.133  0.00  0.00    +0.000 OA
ATOM     19  O   UNL     1       2.718   4.088  17.315  0.00  0.00    +0.000 OA
ENDBRANCH  12  16
ENDBRANCH   3   7
BRANCH   1  20
ATOM     20  O   UNL     1       2.189  14.233  18.153  0.00  0.00    +0.000 OA
BRANCH  20  28
ATOM     21  C   UNL     1       7.700  17.876  19.685  0.00  0.00    +0.000 A 
ATOM     22  N   UNL     1       7.444  17.655  20.979  0.00  0.00    +0.000 NA
ATOM     23  O   UNL     1       6.193  17.036  20.952  0.00  0.00    +0.000 OA
ATOM     24  C   UNL     1       5.817  16.950  19.636  0.00  0.00    +0.000 A 
ATOM     25  N   UNL     1       4.596  16.447  19.345  0.00  0.00    +0.000 N 
ATOM     26  C   UNL     1       4.210  16.367  17.942  0.00  0.00    +0.000 C 
ATOM     27  C   UNL     1       2.707  16.619  17.860  0.00  0.00    +0.000 C 
ATOM     28  C   UNL     1       1.949  15.555  18.669  0.00  0.00    +0.000 C 
ATOM     29  C   UNL     1       2.446  15.582  20.126  0.00  0.00    +0.000 C 
ATOM     30  C   UNL     1       3.970  15.462  20.223  0.00  0.00    +0.000 C 
ATOM     31  N   UNL     1       6.715  17.458  18.823  0.00  0.00    +0.000 NA
BRANCH  21  33
ATOM     32  C   UNL     1       9.982  18.630  20.350  0.00  0.00    +0.000 C 
ATOM     33  C   UNL     1       8.961  18.517  19.216  0.00  0.00    +0.000 C 
ATOM     34  C   UNL     1       9.561  17.777  18.020  0.00  0.00    +0.000 C 
ENDBRANCH  21  33
ENDBRANCH  20  28
ENDBRANCH   1  20
TORSDOF 5
ENDMDL
MODEL 6
REMARK VINA RESULT:      -7.8      5.581     11.107
REMARK  Name = 
REMARK  8 active torsions:
REMARK  status: ('A' for Active; 'I' for Inactive)
REMARK    1  A    between atoms: C_1  and  C_2
REMARK    2  A    between atoms: C_2  and  C_3
REMARK    3  A    between atoms: C_2  and  C_4
REMARK    4  A    between atoms: C_11  and  O_12
REMARK    5  A    between atoms: O_12  and  C_13
REMARK    6  A    between atoms: C_15  and  N_16
REMARK    7  A    between atoms: C_21  and  S_22
REMARK    8  A    between atoms: S_22  and  C_23
REMARK                            x       y       z     vdW  Elec       q    Type
REMARK                         _______ _______ _______ _____ _____    ______ ____
ROOT
ATOM      1  C   UNL     1       0.091  11.359  21.622  0.00  0.00    +0.000 A 
ATOM      2  C   UNL     1       0.632  10.722  20.530  0.00  0.00    +0.000 A 
ATOM      3  C   UNL     1       0.860   9.364  20.647  0.00  0.00    +0.000 A 
ATOM      4  N   UNL     1       0.603   8.722  21.803  0.00  0.00    +0.000 NA
ATOM      5  C   UNL     1       0.080   9.445  22.806  0.00  0.00    +0.000 A 
ATOM      6  N   UNL     1      -0.203  10.751  22.777  0.00  0.00    +0.000 NA
ENDROOT
BRANCH   3   7
ATOM      7  N   UNL     1       1.406   8.654  19.575  0.00  0.00    +0.000 N 
ATOM      8  C   UNL     1       2.006   9.415  18.469  0.00  0.00    +0.000 C 
ATOM      9  C   UNL     1       2.555   8.388  17.458  0.00  0.00    +0.000 C 
ATOM     10  C   UNL     1       2.703   7.177  18.321  0.00  0.00    +0.000 A 
ATOM     11  C   UNL     1       3.350   5.986  18.028  0.00  0.00    +0.000 A 
ATOM     12  C   UNL     1       3.335   4.986  19.005  0.00  0.00    +0.000 A 
ATOM     13  C   UNL     1       2.673   5.175  20.226  0.00  0.00    +0.000 A 
ATOM     14  C   UNL     1       2.016   6.383  20.494  0.00  0.00    +0.000 A 
ATOM     15  C   UNL     1       2.020   7.381  19.528  0.00  0.00    +0.000 A 
BRANCH  12  16
ATOM     16  S   UNL     1       4.098   3.415  18.671  0.00  0.00    +0.000 S 
ATOM     17  C   UNL     1       2.829   2.241  19.073  0.00  0.00    +0.000 C 
ATOM     18  O   UNL     1       4.346   3.339  17.247  0.00  0.00    +0.000 OA
ATOM     19  O   UNL     1       5.181   3.244  19.623  0.00  0.00    +0.000 OA
ENDBRANCH  12  16
ENDBRANCH   3   7
BRANCH   1  20
ATOM     20  O   UNL     1      -0.140  12.716  21.483  0.00  0.00    +0.000 OA
BRANCH  20  28
ATOM     21  C   UNL     1      -5.390  16.359  23.753  0.00  0.00    +0.000 A 
ATOM     22  N   UNL     1      -6.140  15.254  23.688  0.00  0.00    +0.000 NA
ATOM     23  O   UNL     1      -5.300  14.338  23.051  0.00  0.00    +0.000 OA
ATOM     24  C   UNL     1      -4.122  14.990  22.791  0.00  0.00    +0.000 A 
ATOM     25  N   UNL     1      -3.158  14.333  22.107  0.00  0.00    +0.000 N 
ATOM     26  C   UNL     1      -1.913  15.041  21.834  0.00  0.00    +0.000 C 
ATOM     27  C   UNL     1      -1.401  14.571  20.476  0.00  0.00    +0.000 C 
ATOM     28  C   UNL     1      -1.140  13.057  20.506  0.00  0.00    +0.000 C 
ATOM     29  C   UNL     1      -2.440  12.331  20.900  0.00  0.00    +0.000 C 
ATOM     30  C   UNL     1      -3.043  12.879  22.197  0.00  0.00    +0.000 C 
ATOM     31  N   UNL     1      -4.136  16.237  23.204  0.00  0.00    +0.000 NA
BRANCH  21  33
ATOM     32  C   UNL     1      -4.737  18.631  24.547  0.00  0.00    +0.000 C 
ATOM     33  C   UNL     1      -5.874  17.621  24.381  0.00  0.00    +0.000 C 
ATOM     34  C   UNL     1      -7.032  18.235  23.594  0.00  0.00    +0.000 C 
ENDBRANCH  21  33
ENDBRANCH  20  28
ENDBRANCH   1  20
TORSDOF 5
ENDMDL
MODEL 7
REMARK VINA RESULT:      -7.8      4.939      8.620
REMARK  Name = 
REMARK  8 active torsions:
REMARK  status: ('A' for Active; 'I' for Inactive)
REMARK    1  A    between atoms: C_1  and  C_2
REMARK    2  A    between atoms: C_2  and  C_3
REMARK    3  A    between atoms: C_2  and  C_4
REMARK    4  A    between atoms: C_11  and  O_12
REMARK    5  A    between atoms: O_12  and  C_13
REMARK    6  A    between atoms: C_15  and  N_16
REMARK    7  A    between atoms: C_21  and  S_22
REMARK    8  A    between atoms: S_22  and  C_23
REMARK                            x       y       z     vdW  Elec       q    Type
REMARK                         _______ _______ _______ _____ _____    ______ ____
ROOT
ATOM      1  C   UNL     1       1.333  12.553  20.711  0.00  0.00    +0.000 A 
ATOM      2  C   UNL     1       0.120  12.479  21.357  0.00  0.00    +0.000 A 
ATOM      3  C   UNL     1      -0.230  13.549  22.157  0.00  0.00    +0.000 A 
ATOM      4  N   UNL     1       0.615  14.587  22.323  0.00  0.00    +0.000 NA
ATOM      5  C   UNL     1       1.774  14.552  21.649  0.00  0.00    +0.000 A 
ATOM      6  N   UNL     1       2.185  13.578  20.830  0.00  0.00    +0.000 NA
ENDROOT
BRANCH   3   7
ATOM      7  N   UNL     1      -1.447  13.540  22.841  0.00  0.00    +0.000 N 
ATOM      8  C   UNL     1      -1.597  14.424  24.008  0.00  0.00    +0.000 C 
ATOM      9  C   UNL     1      -3.033  14.236  24.537  0.00  0.00    +0.000 C 
ATOM     10  C   UNL     1      -3.722  13.693  23.326  0.00  0.00    +0.000 A 
ATOM     11  C   UNL     1      -5.083  13.521  23.116  0.00  0.00    +0.000 A 
ATOM     12  C   UNL     1      -5.482  12.971  21.894  0.00  0.00    +0.000 A 
ATOM     13  C   UNL     1      -4.541  12.591  20.927  0.00  0.00    +0.000 A 
ATOM     14  C   UNL     1      -3.172  12.765  21.168  0.00  0.00    +0.000 A 
ATOM     15  C   UNL     1      -2.763  13.304  22.381  0.00  0.00    +0.000 A 
BRANCH  12  16
ATOM     16  S   UNL     1      -7.207  12.672  21.584  0.00  0.00    +0.000 S 
ATOM     17  C   UNL     1      -7.266  12.336  19.842  0.00  0.00    +0.000 C 
ATOM     18  O   UNL     1      -7.580  11.464  22.288  0.00  0.00    +0.000 OA
ATOM     19  O   UNL     1      -7.916  13.918  21.820  0.00  0.00    +0.000 OA
ENDBRANCH  12  16
ENDBRANCH   3   7
BRANCH   1  20
ATOM     20  O   UNL     1       1.661  11.478  19.906  0.00  0.00    +0.000 OA
BRANCH  20  28
ATOM     21  C   UNL     1       2.756   4.793  19.587  0.00  0.00    +0.000 A 
ATOM     22  N   UNL     1       2.785   4.896  18.254  0.00  0.00    +0.000 NA
ATOM     23  O   UNL     1       2.393   6.218  18.031  0.00  0.00    +0.000 OA
ATOM     24  C   UNL     1       2.162   6.780  19.261  0.00  0.00    +0.000 A 
ATOM     25  N   UNL     1       1.697   8.048  19.314  0.00  0.00    +0.000 N 
ATOM     26  C   UNL     1       1.452   8.629  20.628  0.00  0.00    +0.000 C 
ATOM     27  C   UNL     1       0.248   9.558  20.507  0.00  0.00    +0.000 C 
ATOM     28  C   UNL     1       0.541  10.674  19.493  0.00  0.00    +0.000 C 
ATOM     29  C   UNL     1       0.902  10.040  18.137  0.00  0.00    +0.000 C 
ATOM     30  C   UNL     1       2.025   9.004  18.259  0.00  0.00    +0.000 C 
ATOM     31  N   UNL     1       2.371   5.936  20.246  0.00  0.00    +0.000 NA
BRANCH  21  33
ATOM     32  C   UNL     1       2.213   3.297  21.507  0.00  0.00    +0.000 C 
ATOM     33  C   UNL     1       3.124   3.538  20.301  0.00  0.00    +0.000 C 
ATOM     34  C   UNL     1       3.110   2.330  19.364  0.00  0.00    +0.000 C 
ENDBRANCH  21  33
ENDBRANCH  20  28
ENDBRANCH   1  20
TORSDOF 5
ENDMDL
MODEL 8
REMARK VINA RESULT:      -7.7      4.897      8.508
REMARK  Name = 
REMARK  8 active torsions:
REMARK  status: ('A' for Active; 'I' for Inactive)
REMARK    1  A    between atoms: C_1  and  C_2
REMARK    2  A    between atoms: C_2  and  C_3
REMARK    3  A    between atoms: C_2  and  C_4
REMARK    4  A    between atoms: C_11  and  O_12
REMARK    5  A    between atoms: O_12  and  C_13
REMARK    6  A    between atoms: C_15  and  N_16
REMARK    7  A    between atoms: C_21  and  S_22
REMARK    8  A    between atoms: S_22  and  C_23
REMARK                            x       y       z     vdW  Elec       q    Type
REMARK                         _______ _______ _______ _____ _____    ______ ____
ROOT
ATOM      1  C   UNL     1       1.427  12.295  20.501  0.00  0.00    +0.000 A 
ATOM      2  C   UNL     1       0.342  12.322  21.346  0.00  0.00    +0.000 A 
ATOM      3  C   UNL     1      -0.045  13.558  21.827  0.00  0.00    +0.000 A 
ATOM      4  N   UNL     1       0.652  14.667  21.511  0.00  0.00    +0.000 NA
ATOM      5  C   UNL     1       1.697  14.522  20.682  0.00  0.00    +0.000 A 
ATOM      6  N   UNL     1       2.127  13.377  20.143  0.00  0.00    +0.000 NA
ENDROOT
BRANCH   3   7
ATOM      7  N   UNL     1      -1.140  13.659  22.689  0.00  0.00    +0.000 N 
ATOM      8  C   UNL     1      -1.078  14.643  23.781  0.00  0.00    +0.000 C 
ATOM      9  C   UNL     1      -2.418  14.562  24.539  0.00  0.00    +0.000 C 
ATOM     10  C   UNL     1      -3.305  13.949  23.504  0.00  0.00    +0.000 A 
ATOM     11  C   UNL     1      -4.685  13.818  23.523  0.00  0.00    +0.000 A 
ATOM     12  C   UNL     1      -5.288  13.185  22.432  0.00  0.00    +0.000 A 
ATOM     13  C   UNL     1      -4.522  12.684  21.369  0.00  0.00    +0.000 A 
ATOM     14  C   UNL     1      -3.128  12.819  21.379  0.00  0.00    +0.000 A 
ATOM     15  C   UNL     1      -2.518  13.441  22.461  0.00  0.00    +0.000 A 
BRANCH  12  16
ATOM     16  S   UNL     1      -7.049  12.935  22.419  0.00  0.00    +0.000 S 
ATOM     17  C   UNL     1      -7.516  13.173  24.115  0.00  0.00    +0.000 C 
ATOM     18  O   UNL     1      -7.640  13.998  21.636  0.00  0.00    +0.000 OA
ATOM     19  O   UNL     1      -7.290  11.543  22.083  0.00  0.00    +0.000 OA
ENDBRANCH  12  16
ENDBRANCH   3   7
BRANCH   1  20
ATOM     20  O   UNL     1       1.794  11.051  20.021  0.00  0.00    +0.000 OA
BRANCH  20  28
ATOM     21  C   UNL     1       2.740   4.363  19.414  0.00  0.00    +0.000 A 
ATOM     22  N   UNL     1       2.987   4.551  18.113  0.00  0.00    +0.000 NA
ATOM     23  O   UNL     1       2.672   5.899  17.924  0.00  0.00    +0.000 OA
ATOM     24  C   UNL     1       2.261   6.388  19.137  0.00  0.00    +0.000 A 
ATOM     25  N   UNL     1       1.830   7.668  19.204  0.00  0.00    +0.000 N 
ATOM     26  C   UNL     1       1.392   8.172  20.499  0.00  0.00    +0.000 C 
ATOM     27  C   UNL     1       0.249   9.152  20.253  0.00  0.00    +0.000 C 
ATOM     28  C   UNL     1       0.734  10.319  19.379  0.00  0.00    +0.000 C 
ATOM     29  C   UNL     1       1.291   9.760  18.057  0.00  0.00    +0.000 C 
ATOM     30  C   UNL     1       2.350   8.676  18.283  0.00  0.00    +0.000 C 
ATOM     31  N   UNL     1       2.286   5.475  20.081  0.00  0.00    +0.000 NA
BRANCH  21  33
ATOM     32  C   UNL     1       4.425   2.638  20.050  0.00  0.00    +0.000 C 
ATOM     33  C   UNL     1       2.952   3.051  20.088  0.00  0.00    +0.000 C 
ATOM     34  C   UNL     1       2.432   3.064  21.526  0.00  0.00    +0.000 C 
ENDBRANCH  21  33
ENDBRANCH  20  28
ENDBRANCH   1  20
TORSDOF 5
ENDMDL
MODEL 9
REMARK VINA RESULT:      -7.7      4.986     10.204
REMARK  Name = 
REMARK  8 active torsions:
REMARK  status: ('A' for Active; 'I' for Inactive)
REMARK    1  A    between atoms: C_1  and  C_2
REMARK    2  A    between atoms: C_2  and  C_3
REMARK    3  A    between atoms: C_2  and  C_4
REMARK    4  A    between atoms: C_11  and  O_12
REMARK    5  A    between atoms: O_12  and  C_13
REMARK    6  A    between atoms: C_15  and  N_16
REMARK    7  A    between atoms: C_21  and  S_22
REMARK    8  A    between atoms: S_22  and  C_23
REMARK                            x       y       z     vdW  Elec       q    Type
REMARK                         _______ _______ _______ _____ _____    ______ ____
ROOT
ATOM      1  C   UNL     1       0.146   9.956  19.856  0.00  0.00    +0.000 A 
ATOM      2  C   UNL     1       0.897   8.823  20.068  0.00  0.00    +0.000 A 
ATOM      3  C   UNL     1       1.782   8.462  19.071  0.00  0.00    +0.000 A 
ATOM      4  N   UNL     1       1.855   9.173  17.928  0.00  0.00    +0.000 NA
ATOM      5  C   UNL     1       1.072  10.258  17.826  0.00  0.00    +0.000 A 
ATOM      6  N   UNL     1       0.211  10.702  18.747  0.00  0.00    +0.000 NA
ENDROOT
BRANCH   3   7
ATOM      7  N   UNL     1       2.576   7.323  19.222  0.00  0.00    +0.000 N 
ATOM      8  C   UNL     1       2.059   6.218  20.043  0.00  0.00    +0.000 C 
ATOM      9  C   UNL     1       3.114   5.094  20.005  0.00  0.00    +0.000 C 
ATOM     10  C   UNL     1       3.861   5.435  18.756  0.00  0.00    +0.000 A 
ATOM     11  C   UNL     1       4.797   4.669  18.077  0.00  0.00    +0.000 A 
ATOM     12  C   UNL     1       5.374   5.221  16.930  0.00  0.00    +0.000 A 
ATOM     13  C   UNL     1       5.032   6.509  16.494  0.00  0.00    +0.000 A 
ATOM     14  C   UNL     1       4.092   7.268  17.203  0.00  0.00    +0.000 A 
ATOM     15  C   UNL     1       3.516   6.731  18.348  0.00  0.00    +0.000 A 
BRANCH  12  16
ATOM     16  S   UNL     1       6.622   4.314  16.046  0.00  0.00    +0.000 S 
ATOM     17  C   UNL     1       6.896   5.292  14.590  0.00  0.00    +0.000 C 
ATOM     18  O   UNL     1       7.832   4.340  16.839  0.00  0.00    +0.000 OA
ATOM     19  O   UNL     1       6.033   3.053  15.630  0.00  0.00    +0.000 OA
ENDBRANCH  12  16
ENDBRANCH   3   7
BRANCH   1  20
ATOM     20  O   UNL     1      -0.726  10.308  20.870  0.00  0.00    +0.000 OA
BRANCH  20  28
ATOM     21  C   UNL     1      -4.051  15.680  23.334  0.00  0.00    +0.000 A 
ATOM     22  N   UNL     1      -3.139  16.468  22.753  0.00  0.00    +0.000 NA
ATOM     23  O   UNL     1      -2.184  15.558  22.292  0.00  0.00    +0.000 OA
ATOM     24  C   UNL     1      -2.618  14.307  22.649  0.00  0.00    +0.000 A 
ATOM     25  N   UNL     1      -1.825  13.247  22.376  0.00  0.00    +0.000 N 
ATOM     26  C   UNL     1      -2.298  11.925  22.765  0.00  0.00    +0.000 C 
ATOM     27  C   UNL     1      -1.081  11.098  23.171  0.00  0.00    +0.000 C 
ATOM     28  C   UNL     1      -0.109  10.974  21.987  0.00  0.00    +0.000 C 
ATOM     29  C   UNL     1       0.298  12.383  21.520  0.00  0.00    +0.000 C 
ATOM     30  C   UNL     1      -0.915  13.274  21.233  0.00  0.00    +0.000 C 
ATOM     31  N   UNL     1      -3.762  14.338  23.294  0.00  0.00    +0.000 NA
BRANCH  21  33
ATOM     32  C   UNL     1      -4.956  17.207  25.085  0.00  0.00    +0.000 C 
ATOM     33  C   UNL     1      -5.288  16.218  23.966  0.00  0.00    +0.000 C 
ATOM     34  C   UNL     1      -6.216  16.861  22.935  0.00  0.00    +0.000 C 
ENDBRANCH  21  33
ENDBRANCH  20  28
ENDBRANCH   1  20
TORSDOF 5
ENDMDL
