MODEL 1
REMARK VINA RESULT:      -9.1      0.000      0.000
REMARK  Name = 
REMARK  3 active torsions:
REMARK  status: ('A' for Active; 'I' for Inactive)
REMARK    1  A    between atoms: C_10  and  C_11
REMARK    2  A    between atoms: C_18  and  C_19
REMARK    3  A    between atoms: C_21  and  C_22
REMARK                            x       y       z     vdW  Elec       q    Type
REMARK                         _______ _______ _______ _____ _____    ______ ____
ROOT
ATOM      1  C   UNL     1       0.313   9.824  19.699  0.00  0.00    +0.000 A 
ATOM      2  C   UNL     1       0.780  10.113  18.419  0.00  0.00    +0.000 A 
ATOM      3  C   UNL     1       1.767   9.321  17.818  0.00  0.00    +0.000 A 
ATOM      4  C   UNL     1       2.288   8.220  18.524  0.00  0.00    +0.000 A 
ATOM      5  C   UNL     1       3.210   7.183  18.224  0.00  0.00    +0.000 A 
ATOM      6  C   UNL     1       3.271   6.335  19.307  0.00  0.00    +0.000 A 
ATOM      7  N   UNL     1       2.539   6.910  20.312  0.00  0.00    +0.000 N 
ATOM      8  C   UNL     1       1.833   7.986  19.821  0.00  0.00    +0.000 A 
ATOM      9  C   UNL     1       0.838   8.757  20.434  0.00  0.00    +0.000 A 
ATOM     10  C   UNL     1       4.019   5.040  19.403  0.00  0.00    +0.000 C 
ATOM     11  N   UNL     1       4.892   4.816  18.226  0.00  0.00    +0.000 NA
ATOM     12  C   UNL     1       5.211   5.997  17.384  0.00  0.00    +0.000 C 
ATOM     13  C   UNL     1       3.990   6.881  17.002  0.00  0.00    +0.000 C 
ATOM     14  H   UNL     1       2.447   6.562  21.254  0.00  0.00    +0.000 HD
ATOM     15  H   UNL     1       4.463   4.140  17.596  0.00  0.00    +0.000 HD
ENDROOT
BRANCH  10  16
ATOM     16  C   UNL     1       3.072   3.800  19.577  0.00  0.00    +0.000 C 
ATOM     17  C   UNL     1       1.975   3.698  18.493  0.00  0.00    +0.000 C 
ATOM     18  C   UNL     1       1.023   2.538  18.759  0.00  0.00    +0.000 C 
ATOM     19  O   UNL     1       0.465   2.621  20.067  0.00  0.00    +0.000 OA
ATOM     20  C   UNL     1       1.465   2.533  21.077  0.00  0.00    +0.000 C 
ATOM     21  C   UNL     1       2.422   3.711  20.972  0.00  0.00    +0.000 C 
ENDBRANCH  10  16
BRANCH  12  22
ATOM     22  C   UNL     1       5.847   5.490  16.112  0.00  0.00    +0.000 A 
ATOM     23  N   UNL     1       5.258   4.742  15.194  0.00  0.00    +0.000 NA
ATOM     24  C   UNL     1       6.218   4.486  14.238  0.00  0.00    +0.000 A 
ATOM     25  C   UNL     1       7.402   5.103  14.581  0.00  0.00    +0.000 A 
ATOM     26  N   UNL     1       7.155   5.732  15.772  0.00  0.00    +0.000 N 
ATOM     27  H   UNL     1       7.820   6.263  16.317  0.00  0.00    +0.000 HD
BRANCH  24  28
ATOM     28  C   UNL     1       5.986   3.667  13.062  0.00  0.00    +0.000 A 
ATOM     29  C   UNL     1       4.709   3.561  12.516  0.00  0.00    +0.000 A 
ATOM     30  N   UNL     1       4.427   2.795  11.429  0.00  0.00    +0.000 NA
ATOM     31  C   UNL     1       5.482   2.133  10.910  0.00  0.00    +0.000 A 
ATOM     32  C   UNL     1       6.757   2.232  11.444  0.00  0.00    +0.000 A 
ATOM     33  N   UNL     1       7.041   2.997  12.524  0.00  0.00    +0.000 NA
ENDBRANCH  24  28
ENDBRANCH  12  22
TORSDOF 3
ENDMDL
MODEL 2
REMARK VINA RESULT:      -8.9      1.270      1.881
REMARK  Name = 
REMARK  3 active torsions:
REMARK  status: ('A' for Active; 'I' for Inactive)
REMARK    1  A    between atoms: C_10  and  C_11
REMARK    2  A    between atoms: C_18  and  C_19
REMARK    3  A    between atoms: C_21  and  C_22
REMARK                            x       y       z     vdW  Elec       q    Type
REMARK                         _______ _______ _______ _____ _____    ______ ____
ROOT
ATOM      1  C   UNL     1      -0.391  10.662  19.239  0.00  0.00    +0.000 A 
ATOM      2  C   UNL     1       0.404  10.782  18.102  0.00  0.00    +0.000 A 
ATOM      3  C   UNL     1       1.465   9.897  17.870  0.00  0.00    +0.000 A 
ATOM      4  C   UNL     1       1.722   8.874  18.804  0.00  0.00    +0.000 A 
ATOM      5  C   UNL     1       2.629   7.783  18.869  0.00  0.00    +0.000 A 
ATOM      6  C   UNL     1       2.360   7.070  20.016  0.00  0.00    +0.000 A 
ATOM      7  N   UNL     1       1.430   7.782  20.726  0.00  0.00    +0.000 N 
ATOM      8  C   UNL     1       0.937   8.810  19.954  0.00  0.00    +0.000 A 
ATOM      9  C   UNL     1      -0.136   9.677  20.196  0.00  0.00    +0.000 A 
ATOM     10  C   UNL     1       2.982   5.776  20.444  0.00  0.00    +0.000 C 
ATOM     11  N   UNL     1       4.114   5.388  19.570  0.00  0.00    +0.000 NA
ATOM     12  C   UNL     1       4.706   6.450  18.717  0.00  0.00    +0.000 C 
ATOM     13  C   UNL     1       3.678   7.315  17.935  0.00  0.00    +0.000 C 
ATOM     14  H   UNL     1       1.078   7.552  21.642  0.00  0.00    +0.000 HD
ATOM     15  H   UNL     1       3.822   4.654  18.926  0.00  0.00    +0.000 HD
ENDROOT
BRANCH  10  16
ATOM     16  C   UNL     1       1.952   4.592  20.498  0.00  0.00    +0.000 C 
ATOM     17  C   UNL     1       2.395   3.423  21.407  0.00  0.00    +0.000 C 
ATOM     18  C   UNL     1       1.413   2.259  21.350  0.00  0.00    +0.000 C 
ATOM     19  O   UNL     1       1.200   1.832  20.008  0.00  0.00    +0.000 OA
ATOM     20  C   UNL     1       0.620   2.859  19.210  0.00  0.00    +0.000 C 
ATOM     21  C   UNL     1       1.569   4.044  19.109  0.00  0.00    +0.000 C 
ENDBRANCH  10  16
BRANCH  12  22
ATOM     22  C   UNL     1       5.617   5.777  17.719  0.00  0.00    +0.000 A 
ATOM     23  N   UNL     1       5.478   5.796  16.404  0.00  0.00    +0.000 NA
ATOM     24  C   UNL     1       6.503   5.024  15.901  0.00  0.00    +0.000 A 
ATOM     25  C   UNL     1       7.282   4.543  16.932  0.00  0.00    +0.000 A 
ATOM     26  N   UNL     1       6.708   5.024  18.078  0.00  0.00    +0.000 N 
ATOM     27  H   UNL     1       7.016   4.842  19.023  0.00  0.00    +0.000 HD
BRANCH  24  28
ATOM     28  C   UNL     1       6.695   4.762  14.486  0.00  0.00    +0.000 A 
ATOM     29  C   UNL     1       5.842   3.895  13.806  0.00  0.00    +0.000 A 
ATOM     30  N   UNL     1       5.985   3.596  12.488  0.00  0.00    +0.000 NA
ATOM     31  C   UNL     1       7.023   4.201  11.875  0.00  0.00    +0.000 A 
ATOM     32  C   UNL     1       7.877   5.065  12.541  0.00  0.00    +0.000 A 
ATOM     33  N   UNL     1       7.736   5.369  13.854  0.00  0.00    +0.000 NA
ENDBRANCH  24  28
ENDBRANCH  12  22
TORSDOF 3
ENDMDL
MODEL 3
REMARK VINA RESULT:      -8.8      4.558      7.918
REMARK  Name = 
REMARK  3 active torsions:
REMARK  status: ('A' for Active; 'I' for Inactive)
REMARK    1  A    between atoms: C_10  and  C_11
REMARK    2  A    between atoms: C_18  and  C_19
REMARK    3  A    between atoms: C_21  and  C_22
REMARK                            x       y       z     vdW  Elec       q    Type
REMARK                         _______ _______ _______ _____ _____    ______ ____
ROOT
ATOM      1  C   UNL     1       1.651   2.842  18.431  0.00  0.00    +0.000 A 
ATOM      2  C   UNL     1       1.682   4.046  19.130  0.00  0.00    +0.000 A 
ATOM      3  C   UNL     1       2.769   4.921  19.006  0.00  0.00    +0.000 A 
ATOM      4  C   UNL     1       3.839   4.572  18.159  0.00  0.00    +0.000 A 
ATOM      5  C   UNL     1       5.033   5.215  17.737  0.00  0.00    +0.000 A 
ATOM      6  C   UNL     1       5.665   4.394  16.830  0.00  0.00    +0.000 A 
ATOM      7  N   UNL     1       4.977   3.209  16.809  0.00  0.00    +0.000 N 
ATOM      8  C   UNL     1       3.798   3.339  17.510  0.00  0.00    +0.000 A 
ATOM      9  C   UNL     1       2.715   2.457  17.610  0.00  0.00    +0.000 A 
ATOM     10  C   UNL     1       6.894   4.703  16.031  0.00  0.00    +0.000 C 
ATOM     11  N   UNL     1       7.523   5.977  16.454  0.00  0.00    +0.000 NA
ATOM     12  C   UNL     1       7.134   6.518  17.780  0.00  0.00    +0.000 C 
ATOM     13  C   UNL     1       5.603   6.543  18.057  0.00  0.00    +0.000 C 
ATOM     14  H   UNL     1       5.233   2.382  16.292  0.00  0.00    +0.000 HD
ATOM     15  H   UNL     1       7.304   6.713  15.784  0.00  0.00    +0.000 HD
ENDROOT
BRANCH  10  16
ATOM     16  C   UNL     1       6.620   4.758  14.486  0.00  0.00    +0.000 C 
ATOM     17  C   UNL     1       6.098   3.427  13.899  0.00  0.00    +0.000 C 
ATOM     18  C   UNL     1       5.941   3.499  12.385  0.00  0.00    +0.000 C 
ATOM     19  O   UNL     1       7.154   3.910  11.762  0.00  0.00    +0.000 OA
ATOM     20  C   UNL     1       7.543   5.219  12.168  0.00  0.00    +0.000 C 
ATOM     21  C   UNL     1       7.830   5.241  13.662  0.00  0.00    +0.000 C 
ENDBRANCH  10  16
BRANCH  12  22
ATOM     22  C   UNL     1       7.655   7.933  17.865  0.00  0.00    +0.000 A 
ATOM     23  N   UNL     1       8.611   8.360  18.673  0.00  0.00    +0.000 NA
ATOM     24  C   UNL     1       8.729   9.714  18.440  0.00  0.00    +0.000 A 
ATOM     25  C   UNL     1       7.837  10.105  17.463  0.00  0.00    +0.000 A 
ATOM     26  N   UNL     1       7.160   8.968  17.111  0.00  0.00    +0.000 N 
ATOM     27  H   UNL     1       6.414   8.902  16.432  0.00  0.00    +0.000 HD
BRANCH  24  28
ATOM     28  C   UNL     1       9.656  10.577  19.149  0.00  0.00    +0.000 A 
ATOM     29  C   UNL     1       9.387  10.981  20.455  0.00  0.00    +0.000 A 
ATOM     30  N   UNL     1      10.207  11.803  21.161  0.00  0.00    +0.000 NA
ATOM     31  C   UNL     1      11.312  12.208  20.503  0.00  0.00    +0.000 A 
ATOM     32  C   UNL     1      11.591  11.812  19.205  0.00  0.00    +0.000 A 
ATOM     33  N   UNL     1      10.778  10.990  18.499  0.00  0.00    +0.000 NA
ENDBRANCH  24  28
ENDBRANCH  12  22
TORSDOF 3
ENDMDL
MODEL 4
REMARK VINA RESULT:      -8.5      4.658      8.052
REMARK  Name = 
REMARK  3 active torsions:
REMARK  status: ('A' for Active; 'I' for Inactive)
REMARK    1  A    between atoms: C_10  and  C_11
REMARK    2  A    between atoms: C_18  and  C_19
REMARK    3  A    between atoms: C_21  and  C_22
REMARK                            x       y       z     vdW  Elec       q    Type
REMARK                         _______ _______ _______ _____ _____    ______ ____
ROOT
ATOM      1  C   UNL     1       1.149  17.119  18.749  0.00  0.00    +0.000 A 
ATOM      2  C   UNL     1       2.355  16.424  18.691  0.00  0.00    +0.000 A 
ATOM      3  C   UNL     1       2.381  15.024  18.744  0.00  0.00    +0.000 A 
ATOM      4  C   UNL     1       1.168  14.319  18.856  0.00  0.00    +0.000 A 
ATOM      5  C   UNL     1       0.805  12.946  18.863  0.00  0.00    +0.000 A 
ATOM      6  C   UNL     1      -0.568  12.864  18.931  0.00  0.00    +0.000 A 
ATOM      7  N   UNL     1      -1.039  14.136  19.127  0.00  0.00    +0.000 N 
ATOM      8  C   UNL     1      -0.017  15.045  18.959  0.00  0.00    +0.000 A 
ATOM      9  C   UNL     1      -0.066  16.443  18.893  0.00  0.00    +0.000 A 
ATOM     10  C   UNL     1      -1.407  11.627  18.846  0.00  0.00    +0.000 C 
ATOM     11  N   UNL     1      -0.583  10.395  18.864  0.00  0.00    +0.000 NA
ATOM     12  C   UNL     1       0.814  10.522  19.353  0.00  0.00    +0.000 C 
ATOM     13  C   UNL     1       1.615  11.712  18.752  0.00  0.00    +0.000 C 
ATOM     14  H   UNL     1      -2.000  14.397  19.283  0.00  0.00    +0.000 HD
ATOM     15  H   UNL     1      -0.508  10.011  17.923  0.00  0.00    +0.000 HD
ENDROOT
BRANCH  10  16
ATOM     16  C   UNL     1      -2.331  11.602  17.576  0.00  0.00    +0.000 C 
ATOM     17  C   UNL     1      -3.841  11.643  17.904  0.00  0.00    +0.000 C 
ATOM     18  C   UNL     1      -4.696  11.518  16.649  0.00  0.00    +0.000 C 
ATOM     19  O   UNL     1      -4.350  10.353  15.906  0.00  0.00    +0.000 OA
ATOM     20  C   UNL     1      -3.003  10.397  15.447  0.00  0.00    +0.000 C 
ATOM     21  C   UNL     1      -2.046  10.419  16.629  0.00  0.00    +0.000 C 
ENDBRANCH  10  16
BRANCH  12  22
ATOM     22  C   UNL     1       1.534   9.241  19.008  0.00  0.00    +0.000 A 
ATOM     23  N   UNL     1       1.555   8.141  19.742  0.00  0.00    +0.000 NA
ATOM     24  C   UNL     1       2.360   7.248  19.067  0.00  0.00    +0.000 A 
ATOM     25  C   UNL     1       2.819   7.817  17.898  0.00  0.00    +0.000 A 
ATOM     26  N   UNL     1       2.292   9.080  17.875  0.00  0.00    +0.000 N 
ATOM     27  H   UNL     1       2.448   9.780  17.163  0.00  0.00    +0.000 HD
BRANCH  24  28
ATOM     28  C   UNL     1       2.672   5.915  19.553  0.00  0.00    +0.000 A 
ATOM     29  C   UNL     1       1.895   5.328  20.549  0.00  0.00    +0.000 A 
ATOM     30  N   UNL     1       2.150   4.094  21.057  0.00  0.00    +0.000 NA
ATOM     31  C   UNL     1       3.221   3.469  20.526  0.00  0.00    +0.000 A 
ATOM     32  C   UNL     1       4.000   4.043  19.535  0.00  0.00    +0.000 A 
ATOM     33  N   UNL     1       3.747   5.272  19.024  0.00  0.00    +0.000 NA
ENDBRANCH  24  28
ENDBRANCH  12  22
TORSDOF 3
ENDMDL
MODEL 5
REMARK VINA RESULT:      -8.4      2.474      8.154
REMARK  Name = 
REMARK  3 active torsions:
REMARK  status: ('A' for Active; 'I' for Inactive)
REMARK    1  A    between atoms: C_10  and  C_11
REMARK    2  A    between atoms: C_18  and  C_19
REMARK    3  A    between atoms: C_21  and  C_22
REMARK                            x       y       z     vdW  Elec       q    Type
REMARK                         _______ _______ _______ _____ _____    ______ ____
ROOT
ATOM      1  C   UNL     1       7.085   4.386  15.206  0.00  0.00    +0.000 A 
ATOM      2  C   UNL     1       7.223   5.713  15.606  0.00  0.00    +0.000 A 
ATOM      3  C   UNL     1       6.223   6.345  16.357  0.00  0.00    +0.000 A 
ATOM      4  C   UNL     1       5.067   5.621  16.708  0.00  0.00    +0.000 A 
ATOM      5  C   UNL     1       3.917   5.891  17.496  0.00  0.00    +0.000 A 
ATOM      6  C   UNL     1       3.145   4.752  17.534  0.00  0.00    +0.000 A 
ATOM      7  N   UNL     1       3.708   3.853  16.667  0.00  0.00    +0.000 N 
ATOM      8  C   UNL     1       4.940   4.309  16.253  0.00  0.00    +0.000 A 
ATOM      9  C   UNL     1       5.933   3.656  15.514  0.00  0.00    +0.000 A 
ATOM     10  C   UNL     1       1.900   4.528  18.337  0.00  0.00    +0.000 C 
ATOM     11  N   UNL     1       1.432   5.772  18.993  0.00  0.00    +0.000 NA
ATOM     12  C   UNL     1       1.965   7.056  18.470  0.00  0.00    +0.000 C 
ATOM     13  C   UNL     1       3.505   7.091  18.260  0.00  0.00    +0.000 C 
ATOM     14  H   UNL     1       3.336   2.948  16.425  0.00  0.00    +0.000 HD
ATOM     15  H   UNL     1       1.676   5.759  19.982  0.00  0.00    +0.000 HD
ENDROOT
BRANCH  10  16
ATOM     16  C   UNL     1       2.070   3.411  19.428  0.00  0.00    +0.000 C 
ATOM     17  C   UNL     1       1.122   3.573  20.638  0.00  0.00    +0.000 C 
ATOM     18  C   UNL     1       1.391   2.526  21.712  0.00  0.00    +0.000 C 
ATOM     19  O   UNL     1       2.758   2.539  22.110  0.00  0.00    +0.000 OA
ATOM     20  C   UNL     1       3.628   2.210  21.031  0.00  0.00    +0.000 C 
ATOM     21  C   UNL     1       3.519   3.256  19.932  0.00  0.00    +0.000 C 
ENDBRANCH  10  16
BRANCH  12  22
ATOM     22  C   UNL     1       1.595   8.137  19.456  0.00  0.00    +0.000 A 
ATOM     23  N   UNL     1       1.105   9.328  19.154  0.00  0.00    +0.000 NA
ATOM     24  C   UNL     1       0.957   9.994  20.352  0.00  0.00    +0.000 A 
ATOM     25  C   UNL     1       1.351   9.182  21.395  0.00  0.00    +0.000 A 
ATOM     26  N   UNL     1       1.757   8.011  20.814  0.00  0.00    +0.000 N 
ATOM     27  H   UNL     1       2.130   7.203  21.292  0.00  0.00    +0.000 HD
BRANCH  24  28
ATOM     28  C   UNL     1       0.468  11.357  20.463  0.00  0.00    +0.000 A 
ATOM     29  C   UNL     1      -0.230  11.944  19.410  0.00  0.00    +0.000 A 
ATOM     30  N   UNL     1      -0.693  13.221  19.448  0.00  0.00    +0.000 NA
ATOM     31  C   UNL     1      -0.425  13.891  20.588  0.00  0.00    +0.000 A 
ATOM     32  C   UNL     1       0.267  13.316  21.641  0.00  0.00    +0.000 A 
ATOM     33  N   UNL     1       0.727  12.043  21.609  0.00  0.00    +0.000 NA
ENDBRANCH  24  28
ENDBRANCH  12  22
TORSDOF 3
ENDMDL
MODEL 6
REMARK VINA RESULT:      -8.3      0.804      1.373
REMARK  Name = 
REMARK  3 active torsions:
REMARK  status: ('A' for Active; 'I' for Inactive)
REMARK    1  A    between atoms: C_10  and  C_11
REMARK    2  A    between atoms: C_18  and  C_19
REMARK    3  A    between atoms: C_21  and  C_22
REMARK                            x       y       z     vdW  Elec       q    Type
REMARK                         _______ _______ _______ _____ _____    ______ ____
ROOT
ATOM      1  C   UNL     1       0.151  10.380  19.593  0.00  0.00    +0.000 A 
ATOM      2  C   UNL     1       0.737  10.623  18.353  0.00  0.00    +0.000 A 
ATOM      3  C   UNL     1       1.724   9.768  17.843  0.00  0.00    +0.000 A 
ATOM      4  C   UNL     1       2.121   8.650  18.601  0.00  0.00    +0.000 A 
ATOM      5  C   UNL     1       3.004   7.558  18.388  0.00  0.00    +0.000 A 
ATOM      6  C   UNL     1       2.927   6.724  19.481  0.00  0.00    +0.000 A 
ATOM      7  N   UNL     1       2.149   7.354  20.417  0.00  0.00    +0.000 N 
ATOM      8  C   UNL     1       1.549   8.461  19.858  0.00  0.00    +0.000 A 
ATOM      9  C   UNL     1       0.552   9.296  20.379  0.00  0.00    +0.000 A 
ATOM     10  C   UNL     1       3.589   5.391  19.651  0.00  0.00    +0.000 C 
ATOM     11  N   UNL     1       4.542   5.102  18.554  0.00  0.00    +0.000 NA
ATOM     12  C   UNL     1       4.996   6.250  17.729  0.00  0.00    +0.000 C 
ATOM     13  C   UNL     1       3.863   7.196  17.238  0.00  0.00    +0.000 C 
ATOM     14  H   UNL     1       1.960   7.026  21.351  0.00  0.00    +0.000 HD
ATOM     15  H   UNL     1       4.128   4.442  17.896  0.00  0.00    +0.000 HD
ENDROOT
BRANCH  10  16
ATOM     16  C   UNL     1       2.562   4.209  19.759  0.00  0.00    +0.000 C 
ATOM     17  C   UNL     1       3.166   2.911  20.342  0.00  0.00    +0.000 C 
ATOM     18  C   UNL     1       2.161   1.766  20.335  0.00  0.00    +0.000 C 
ATOM     19  O   UNL     1       1.626   1.559  19.031  0.00  0.00    +0.000 OA
ATOM     20  C   UNL     1       0.910   2.698  18.564  0.00  0.00    +0.000 C 
ATOM     21  C   UNL     1       1.848   3.889  18.430  0.00  0.00    +0.000 C 
ENDBRANCH  10  16
BRANCH  12  22
ATOM     22  C   UNL     1       5.704   5.689  16.519  0.00  0.00    +0.000 A 
ATOM     23  N   UNL     1       5.133   5.049  15.513  0.00  0.00    +0.000 NA
ATOM     24  C   UNL     1       6.156   4.686  14.663  0.00  0.00    +0.000 A 
ATOM     25  C   UNL     1       7.363   5.129  15.160  0.00  0.00    +0.000 A 
ATOM     26  N   UNL     1       7.063   5.760  16.338  0.00  0.00    +0.000 N 
ATOM     27  H   UNL     1       7.724   6.184  16.975  0.00  0.00    +0.000 HD
BRANCH  24  28
ATOM     28  C   UNL     1       5.958   3.932  13.438  0.00  0.00    +0.000 A 
ATOM     29  C   UNL     1       7.050   3.441  12.727  0.00  0.00    +0.000 A 
ATOM     30  N   UNL     1       6.928   2.746  11.565  0.00  0.00    +0.000 NA
ATOM     31  C   UNL     1       5.660   2.565  11.140  0.00  0.00    +0.000 A 
ATOM     32  C   UNL     1       4.566   3.049  11.840  0.00  0.00    +0.000 A 
ATOM     33  N   UNL     1       4.684   3.737  13.000  0.00  0.00    +0.000 NA
ENDBRANCH  24  28
ENDBRANCH  12  22
TORSDOF 3
ENDMDL
MODEL 7
REMARK VINA RESULT:      -8.3      4.237      7.723
REMARK  Name = 
REMARK  3 active torsions:
REMARK  status: ('A' for Active; 'I' for Inactive)
REMARK    1  A    between atoms: C_10  and  C_11
REMARK    2  A    between atoms: C_18  and  C_19
REMARK    3  A    between atoms: C_21  and  C_22
REMARK                            x       y       z     vdW  Elec       q    Type
REMARK                         _______ _______ _______ _____ _____    ______ ____
ROOT
ATOM      1  C   UNL     1       1.207  16.966  18.619  0.00  0.00    +0.000 A 
ATOM      2  C   UNL     1       2.371  16.232  18.829  0.00  0.00    +0.000 A 
ATOM      3  C   UNL     1       2.319  14.849  19.049  0.00  0.00    +0.000 A 
ATOM      4  C   UNL     1       1.068  14.201  19.055  0.00  0.00    +0.000 A 
ATOM      5  C   UNL     1       0.640  12.852  19.167  0.00  0.00    +0.000 A 
ATOM      6  C   UNL     1      -0.731  12.824  19.033  0.00  0.00    +0.000 A 
ATOM      7  N   UNL     1      -1.160  14.124  19.004  0.00  0.00    +0.000 N 
ATOM      8  C   UNL     1      -0.081  14.972  18.889  0.00  0.00    +0.000 A 
ATOM      9  C   UNL     1      -0.049  16.352  18.654  0.00  0.00    +0.000 A 
ATOM     10  C   UNL     1      -1.609  11.612  18.965  0.00  0.00    +0.000 C 
ATOM     11  N   UNL     1      -0.859  10.367  19.254  0.00  0.00    +0.000 NA
ATOM     12  C   UNL     1       0.454  10.508  19.932  0.00  0.00    +0.000 C 
ATOM     13  C   UNL     1       1.394  11.588  19.326  0.00  0.00    +0.000 C 
ATOM     14  H   UNL     1      -2.120  14.433  18.979  0.00  0.00    +0.000 HD
ATOM     15  H   UNL     1      -0.665   9.867  18.387  0.00  0.00    +0.000 HD
ENDROOT
BRANCH  10  16
ATOM     16  C   UNL     1      -2.334  11.461  17.581  0.00  0.00    +0.000 C 
ATOM     17  C   UNL     1      -3.876  11.507  17.678  0.00  0.00    +0.000 C 
ATOM     18  C   UNL     1      -4.536  11.258  16.327  0.00  0.00    +0.000 C 
ATOM     19  O   UNL     1      -4.080  10.038  15.750  0.00  0.00    +0.000 OA
ATOM     20  C   UNL     1      -2.680  10.063  15.492  0.00  0.00    +0.000 C 
ATOM     21  C   UNL     1      -1.908  10.204  16.795  0.00  0.00    +0.000 C 
ENDBRANCH  10  16
BRANCH  12  22
ATOM     22  C   UNL     1       1.152   9.172  19.854  0.00  0.00    +0.000 A 
ATOM     23  N   UNL     1       1.833   8.712  18.818  0.00  0.00    +0.000 NA
ATOM     24  C   UNL     1       2.257   7.448  19.171  0.00  0.00    +0.000 A 
ATOM     25  C   UNL     1       1.835   7.149  20.449  0.00  0.00    +0.000 A 
ATOM     26  N   UNL     1       1.132   8.247  20.869  0.00  0.00    +0.000 N 
ATOM     27  H   UNL     1       0.664   8.354  21.757  0.00  0.00    +0.000 HD
BRANCH  24  28
ATOM     28  C   UNL     1       3.021   6.579  18.294  0.00  0.00    +0.000 A 
ATOM     29  C   UNL     1       2.748   5.214  18.241  0.00  0.00    +0.000 A 
ATOM     30  N   UNL     1       3.442   4.349  17.455  0.00  0.00    +0.000 NA
ATOM     31  C   UNL     1       4.428   4.908  16.724  0.00  0.00    +0.000 A 
ATOM     32  C   UNL     1       4.707   6.265  16.769  0.00  0.00    +0.000 A 
ATOM     33  N   UNL     1       4.015   7.130  17.547  0.00  0.00    +0.000 NA
ENDBRANCH  24  28
ENDBRANCH  12  22
TORSDOF 3
ENDMDL
MODEL 8
REMARK VINA RESULT:      -8.2      3.370      6.153
REMARK  Name = 
REMARK  3 active torsions:
REMARK  status: ('A' for Active; 'I' for Inactive)
REMARK    1  A    between atoms: C_10  and  C_11
REMARK    2  A    between atoms: C_18  and  C_19
REMARK    3  A    between atoms: C_21  and  C_22
REMARK                            x       y       z     vdW  Elec       q    Type
REMARK                         _______ _______ _______ _____ _____    ______ ____
ROOT
ATOM      1  C   UNL     1      -4.421  11.091  15.736  0.00  0.00    +0.000 A 
ATOM      2  C   UNL     1      -3.803  10.033  15.075  0.00  0.00    +0.000 A 
ATOM      3  C   UNL     1      -2.576   9.524  15.522  0.00  0.00    +0.000 A 
ATOM      4  C   UNL     1      -1.967  10.096  16.655  0.00  0.00    +0.000 A 
ATOM      5  C   UNL     1      -0.804   9.810  17.418  0.00  0.00    +0.000 A 
ATOM      6  C   UNL     1      -0.760  10.689  18.478  0.00  0.00    +0.000 A 
ATOM      7  N   UNL     1      -1.768  11.598  18.292  0.00  0.00    +0.000 N 
ATOM      8  C   UNL     1      -2.588  11.184  17.265  0.00  0.00    +0.000 A 
ATOM      9  C   UNL     1      -3.820  11.698  16.843  0.00  0.00    +0.000 A 
ATOM     10  C   UNL     1       0.220  10.691  19.612  0.00  0.00    +0.000 C 
ATOM     11  N   UNL     1       1.319   9.721  19.397  0.00  0.00    +0.000 NA
ATOM     12  C   UNL     1       1.523   9.224  18.012  0.00  0.00    +0.000 C 
ATOM     13  C   UNL     1       0.230   8.760  17.283  0.00  0.00    +0.000 C 
ATOM     14  H   UNL     1      -1.953  12.406  18.865  0.00  0.00    +0.000 HD
ATOM     15  H   UNL     1       1.167   8.889  19.965  0.00  0.00    +0.000 HD
ENDROOT
BRANCH  10  16
ATOM     16  C   UNL     1      -0.454  10.398  21.000  0.00  0.00    +0.000 C 
ATOM     17  C   UNL     1      -0.720  11.667  21.842  0.00  0.00    +0.000 C 
ATOM     18  C   UNL     1      -1.282  11.326  23.216  0.00  0.00    +0.000 C 
ATOM     19  O   UNL     1      -0.438  10.406  23.902  0.00  0.00    +0.000 OA
ATOM     20  C   UNL     1      -0.335   9.164  23.213  0.00  0.00    +0.000 C 
ATOM     21  C   UNL     1       0.315   9.370  21.854  0.00  0.00    +0.000 C 
ENDBRANCH  10  16
BRANCH  12  22
ATOM     22  C   UNL     1       2.474   8.053  18.085  0.00  0.00    +0.000 A 
ATOM     23  N   UNL     1       3.403   7.752  17.194  0.00  0.00    +0.000 NA
ATOM     24  C   UNL     1       3.999   6.592  17.643  0.00  0.00    +0.000 A 
ATOM     25  C   UNL     1       3.426   6.197  18.833  0.00  0.00    +0.000 A 
ATOM     26  N   UNL     1       2.459   7.129  19.100  0.00  0.00    +0.000 N 
ATOM     27  H   UNL     1       1.830   7.128  19.891  0.00  0.00    +0.000 HD
BRANCH  24  28
ATOM     28  C   UNL     1       5.061   5.903  16.931  0.00  0.00    +0.000 A 
ATOM     29  C   UNL     1       6.324   6.481  16.818  0.00  0.00    +0.000 A 
ATOM     30  N   UNL     1       7.350   5.893  16.148  0.00  0.00    +0.000 NA
ATOM     31  C   UNL     1       7.059   4.700  15.591  0.00  0.00    +0.000 A 
ATOM     32  C   UNL     1       5.807   4.116  15.699  0.00  0.00    +0.000 A 
ATOM     33  N   UNL     1       4.783   4.696  16.369  0.00  0.00    +0.000 NA
ENDBRANCH  24  28
ENDBRANCH  12  22
TORSDOF 3
ENDMDL
MODEL 9
REMARK VINA RESULT:      -8.2      3.311      6.202
REMARK  Name = 
REMARK  3 active torsions:
REMARK  status: ('A' for Active; 'I' for Inactive)
REMARK    1  A    between atoms: C_10  and  C_11
REMARK    2  A    between atoms: C_18  and  C_19
REMARK    3  A    between atoms: C_21  and  C_22
REMARK                            x       y       z     vdW  Elec       q    Type
REMARK                         _______ _______ _______ _____ _____    ______ ____
ROOT
ATOM      1  C   UNL     1      -4.551  11.356  16.800  0.00  0.00    +0.000 A 
ATOM      2  C   UNL     1      -4.139  10.171  16.196  0.00  0.00    +0.000 A 
ATOM      3  C   UNL     1      -2.871   9.634  16.457  0.00  0.00    +0.000 A 
ATOM      4  C   UNL     1      -2.010  10.307  17.345  0.00  0.00    +0.000 A 
ATOM      5  C   UNL     1      -0.727  10.039  17.892  0.00  0.00    +0.000 A 
ATOM      6  C   UNL     1      -0.417  11.049  18.776  0.00  0.00    +0.000 A 
ATOM      7  N   UNL     1      -1.397  12.000  18.662  0.00  0.00    +0.000 N 
ATOM      8  C   UNL     1      -2.434  11.515  17.896  0.00  0.00    +0.000 A 
ATOM      9  C   UNL     1      -3.702  12.060  17.659  0.00  0.00    +0.000 A 
ATOM     10  C   UNL     1       0.778  11.130  19.675  0.00  0.00    +0.000 C 
ATOM     11  N   UNL     1       1.759  10.056  19.391  0.00  0.00    +0.000 NA
ATOM     12  C   UNL     1       1.642   9.359  18.086  0.00  0.00    +0.000 C 
ATOM     13  C   UNL     1       0.204   8.902  17.711  0.00  0.00    +0.000 C 
ATOM     14  H   UNL     1      -1.417  12.891  19.132  0.00  0.00    +0.000 HD
ATOM     15  H   UNL     1       1.690   9.325  20.098  0.00  0.00    +0.000 HD
ENDROOT
BRANCH  10  16
ATOM     16  C   UNL     1       0.400  11.085  21.198  0.00  0.00    +0.000 C 
ATOM     17  C   UNL     1       0.248   9.653  21.759  0.00  0.00    +0.000 C 
ATOM     18  C   UNL     1      -0.214   9.660  23.211  0.00  0.00    +0.000 C 
ATOM     19  O   UNL     1      -1.412  10.416  23.365  0.00  0.00    +0.000 OA
ATOM     20  C   UNL     1      -1.224  11.784  23.017  0.00  0.00    +0.000 C 
ATOM     21  C   UNL     1      -0.858  11.907  21.546  0.00  0.00    +0.000 C 
ENDBRANCH  10  16
BRANCH  12  22
ATOM     22  C   UNL     1       2.529   8.138  18.141  0.00  0.00    +0.000 A 
ATOM     23  N   UNL     1       3.475   7.826  17.271  0.00  0.00    +0.000 NA
ATOM     24  C   UNL     1       3.994   6.619  17.690  0.00  0.00    +0.000 A 
ATOM     25  C   UNL     1       3.358   6.206  18.841  0.00  0.00    +0.000 A 
ATOM     26  N   UNL     1       2.430   7.174  19.114  0.00  0.00    +0.000 N 
ATOM     27  H   UNL     1       1.772   7.174  19.881  0.00  0.00    +0.000 HD
BRANCH  24  28
ATOM     28  C   UNL     1       5.047   5.907  16.988  0.00  0.00    +0.000 A 
ATOM     29  C   UNL     1       6.304   6.485  16.826  0.00  0.00    +0.000 A 
ATOM     30  N   UNL     1       7.321   5.875  16.162  0.00  0.00    +0.000 NA
ATOM     31  C   UNL     1       7.025   4.658  15.660  0.00  0.00    +0.000 A 
ATOM     32  C   UNL     1       5.779   4.073  15.816  0.00  0.00    +0.000 A 
ATOM     33  N   UNL     1       4.764   4.676  16.481  0.00  0.00    +0.000 NA
ENDBRANCH  24  28
ENDBRANCH  12  22
TORSDOF 3
ENDMDL
