MODEL 1
REMARK VINA RESULT:      -7.5      0.000      0.000
REMARK  Name = 
REMARK  12 active torsions:
REMARK  status: ('A' for Active; 'I' for Inactive)
REMARK    1  A    between atoms: C_1  and  O_2
REMARK    2  A    between atoms: O_2  and  C_3
REMARK    3  A    between atoms: C_4  and  C_5
REMARK    4  A    between atoms: C_6  and  C_7
REMARK    5  A    between atoms: C_7  and  C_8
REMARK    6  A    between atoms: C_7  and  C_9
REMARK    7  A    between atoms: C_10  and  O_11
REMARK    8  A    between atoms: C_19  and  O_20
REMARK    9  A    between atoms: C_24  and  C_25
REMARK   10  A    between atoms: C_25  and  C_26
REMARK   11  A    between atoms: C_27  and  C_28
REMARK   12  A    between atoms: C_27  and  C_29
REMARK                            x       y       z     vdW  Elec       q    Type
REMARK                         _______ _______ _______ _____ _____    ______ ____
ROOT
ATOM      1  C   UNL     1       3.000   6.442  18.913  0.00  0.00    +0.000 A 
ATOM      2  C   UNL     1       3.206   7.428  17.912  0.00  0.00    +0.000 A 
ATOM      3  C   UNL     1       2.606   8.694  18.058  0.00  0.00    +0.000 A 
ATOM      4  C   UNL     1       1.815   8.989  19.185  0.00  0.00    +0.000 A 
ATOM      5  C   UNL     1       1.159  10.333  19.381  0.00  0.00    +0.000 A 
ATOM      6  O   UNL     1       1.287  11.263  18.592  0.00  0.00    +0.000 OA
ATOM      7  C   UNL     1       0.317  10.563  20.584  0.00  0.00    +0.000 A 
ATOM      8  C   UNL     1      -0.299  11.801  20.810  0.00  0.00    +0.000 A 
ATOM      9  C   UNL     1      -1.088  11.998  21.945  0.00  0.00    +0.000 A 
ATOM     10  C   UNL     1      -1.264  10.955  22.862  0.00  0.00    +0.000 A 
ATOM     11  C   UNL     1      -0.646   9.730  22.629  0.00  0.00    +0.000 A 
ATOM     12  C   UNL     1       0.160   9.525  21.499  0.00  0.00    +0.000 A 
ATOM     13  N   UNL     1       0.738   8.275  21.251  0.00  0.00    +0.000 N 
ATOM     14  C   UNL     1       1.597   7.998  20.172  0.00  0.00    +0.000 A 
ATOM     15  C   UNL     1       2.151   6.696  20.017  0.00  0.00    +0.000 A 
ATOM     16  H   UNL     1       0.724   7.662  22.060  0.00  0.00    +0.000 HD
ENDROOT
BRANCH   1  18
ATOM     17  C   UNL     1       4.691   4.858  19.442  0.00  0.00    +0.000 C 
ATOM     18  O   UNL     1       3.542   5.196  18.667  0.00  0.00    +0.000 OA
ENDBRANCH   1  18
BRANCH   2  19
ATOM     19  C   UNL     1       4.065   7.115  16.745  0.00  0.00    +0.000 C 
ATOM     20  C   UNL     1       4.682   5.932  16.569  0.00  0.00    +0.000 C 
BRANCH  20  21
ATOM     21  C   UNL     1       5.700   5.681  15.476  0.00  0.00    +0.000 C 
ATOM     22  C   UNL     1       7.079   5.449  16.099  0.00  0.00    +0.000 C 
ATOM     23  C   UNL     1       5.330   4.491  14.588  0.00  0.00    +0.000 C 
ENDBRANCH  20  21
ENDBRANCH   2  19
BRANCH   3  24
ATOM     24  O   UNL     1       2.786   9.655  17.094  0.00  0.00    +0.000 OA
ATOM     25  H   UNL     1       1.926   9.981  16.783  0.00  0.00    +0.000 HD
ENDBRANCH   3  24
BRANCH  11  26
ATOM     26  O   UNL     1      -0.803   8.689  23.508  0.00  0.00    +0.000 OA
ATOM     27  H   UNL     1       0.042   8.544  23.966  0.00  0.00    +0.000 HD
ENDBRANCH  11  26
BRANCH  15  28
ATOM     28  C   UNL     1       1.766   5.600  21.000  0.00  0.00    +0.000 C 
BRANCH  28  29
ATOM     29  C   UNL     1       1.130   4.396  20.339  0.00  0.00    +0.000 C 
ATOM     30  C   UNL     1       1.469   3.106  20.544  0.00  0.00    +0.000 C 
ATOM     31  C   UNL     1       2.561   2.646  21.468  0.00  0.00    +0.000 C 
ATOM     32  C   UNL     1       0.755   1.989  19.826  0.00  0.00    +0.000 C 
ENDBRANCH  28  29
ENDBRANCH  15  28
TORSDOF 7
ENDMDL
MODEL 2
REMARK VINA RESULT:      -7.5      3.058      9.579
REMARK  Name = 
REMARK  12 active torsions:
REMARK  status: ('A' for Active; 'I' for Inactive)
REMARK    1  A    between atoms: C_1  and  O_2
REMARK    2  A    between atoms: O_2  and  C_3
REMARK    3  A    between atoms: C_4  and  C_5
REMARK    4  A    between atoms: C_6  and  C_7
REMARK    5  A    between atoms: C_7  and  C_8
REMARK    6  A    between atoms: C_7  and  C_9
REMARK    7  A    between atoms: C_10  and  O_11
REMARK    8  A    between atoms: C_19  and  O_20
REMARK    9  A    between atoms: C_24  and  C_25
REMARK   10  A    between atoms: C_25  and  C_26
REMARK   11  A    between atoms: C_27  and  C_28
REMARK   12  A    between atoms: C_27  and  C_29
REMARK                            x       y       z     vdW  Elec       q    Type
REMARK                         _______ _______ _______ _____ _____    ______ ____
ROOT
ATOM      1  C   UNL     1      -1.079  13.644  21.180  0.00  0.00    +0.000 A 
ATOM      2  C   UNL     1      -1.346  12.963  22.397  0.00  0.00    +0.000 A 
ATOM      3  C   UNL     1      -0.894  11.639  22.560  0.00  0.00    +0.000 A 
ATOM      4  C   UNL     1      -0.178  10.993  21.534  0.00  0.00    +0.000 A 
ATOM      5  C   UNL     1       0.326   9.578  21.670  0.00  0.00    +0.000 A 
ATOM      6  O   UNL     1       0.171   8.905  22.684  0.00  0.00    +0.000 OA
ATOM      7  C   UNL     1       1.053   8.952  20.535  0.00  0.00    +0.000 A 
ATOM      8  C   UNL     1       1.550   7.645  20.625  0.00  0.00    +0.000 A 
ATOM      9  C   UNL     1       2.228   7.074  19.548  0.00  0.00    +0.000 A 
ATOM     10  C   UNL     1       2.414   7.808  18.372  0.00  0.00    +0.000 A 
ATOM     11  C   UNL     1       1.919   9.107  18.293  0.00  0.00    +0.000 A 
ATOM     12  C   UNL     1       1.247   9.696  19.374  0.00  0.00    +0.000 A 
ATOM     13  N   UNL     1       0.714  10.985  19.266  0.00  0.00    +0.000 N 
ATOM     14  C   UNL     1       0.071  11.668  20.315  0.00  0.00    +0.000 A 
ATOM     15  C   UNL     1      -0.423  12.987  20.112  0.00  0.00    +0.000 A 
ATOM     16  H   UNL     1       1.074  11.501  18.469  0.00  0.00    +0.000 HD
ENDROOT
BRANCH   1  18
ATOM     17  C   UNL     1      -3.019  14.948  20.747  0.00  0.00    +0.000 C 
ATOM     18  O   UNL     1      -1.625  14.906  21.051  0.00  0.00    +0.000 OA
ENDBRANCH   1  18
BRANCH   2  19
ATOM     19  C   UNL     1      -2.075  13.665  23.481  0.00  0.00    +0.000 C 
ATOM     20  C   UNL     1      -1.518  14.601  24.270  0.00  0.00    +0.000 C 
BRANCH  20  21
ATOM     21  C   UNL     1      -2.208  15.179  25.489  0.00  0.00    +0.000 C 
ATOM     22  C   UNL     1      -1.199  15.966  26.329  0.00  0.00    +0.000 C 
ATOM     23  C   UNL     1      -3.389  16.082  25.124  0.00  0.00    +0.000 C 
ENDBRANCH  20  21
ENDBRANCH   2  19
BRANCH   3  24
ATOM     24  O   UNL     1      -1.154  10.962  23.726  0.00  0.00    +0.000 OA
ATOM     25  H   UNL     1      -0.439  11.113  24.365  0.00  0.00    +0.000 HD
ENDBRANCH   3  24
BRANCH  11  26
ATOM     26  O   UNL     1       2.085   9.850  17.152  0.00  0.00    +0.000 OA
ATOM     27  H   UNL     1       1.209  10.135  16.841  0.00  0.00    +0.000 HD
ENDBRANCH  11  26
BRANCH  15  28
ATOM     28  C   UNL     1      -0.292  13.628  18.737  0.00  0.00    +0.000 C 
BRANCH  28  29
ATOM     29  C   UNL     1       0.630  14.828  18.720  0.00  0.00    +0.000 C 
ATOM     30  C   UNL     1       1.964  14.803  18.520  0.00  0.00    +0.000 C 
ATOM     31  C   UNL     1       2.770  13.555  18.291  0.00  0.00    +0.000 C 
ATOM     32  C   UNL     1       2.777  16.072  18.520  0.00  0.00    +0.000 C 
ENDBRANCH  28  29
ENDBRANCH  15  28
TORSDOF 7
ENDMDL
MODEL 3
REMARK VINA RESULT:      -7.4      4.307      7.496
REMARK  Name = 
REMARK  12 active torsions:
REMARK  status: ('A' for Active; 'I' for Inactive)
REMARK    1  A    between atoms: C_1  and  O_2
REMARK    2  A    between atoms: O_2  and  C_3
REMARK    3  A    between atoms: C_4  and  C_5
REMARK    4  A    between atoms: C_6  and  C_7
REMARK    5  A    between atoms: C_7  and  C_8
REMARK    6  A    between atoms: C_7  and  C_9
REMARK    7  A    between atoms: C_10  and  O_11
REMARK    8  A    between atoms: C_19  and  O_20
REMARK    9  A    between atoms: C_24  and  C_25
REMARK   10  A    between atoms: C_25  and  C_26
REMARK   11  A    between atoms: C_27  and  C_28
REMARK   12  A    between atoms: C_27  and  C_29
REMARK                            x       y       z     vdW  Elec       q    Type
REMARK                         _______ _______ _______ _____ _____    ______ ____
ROOT
ATOM      1  C   UNL     1      -0.523  11.700  20.175  0.00  0.00    +0.000 A 
ATOM      2  C   UNL     1      -0.507  10.878  19.017  0.00  0.00    +0.000 A 
ATOM      3  C   UNL     1      -1.659  10.802  18.210  0.00  0.00    +0.000 A 
ATOM      4  C   UNL     1      -2.816  11.534  18.537  0.00  0.00    +0.000 A 
ATOM      5  C   UNL     1      -4.068  11.482  17.698  0.00  0.00    +0.000 A 
ATOM      6  O   UNL     1      -4.157  10.824  16.666  0.00  0.00    +0.000 OA
ATOM      7  C   UNL     1      -5.260  12.263  18.119  0.00  0.00    +0.000 A 
ATOM      8  C   UNL     1      -6.438  12.253  17.361  0.00  0.00    +0.000 A 
ATOM      9  C   UNL     1      -7.548  12.992  17.774  0.00  0.00    +0.000 A 
ATOM     10  C   UNL     1      -7.485  13.746  18.951  0.00  0.00    +0.000 A 
ATOM     11  C   UNL     1      -6.309  13.751  19.696  0.00  0.00    +0.000 A 
ATOM     12  C   UNL     1      -5.183  13.023  19.284  0.00  0.00    +0.000 A 
ATOM     13  N   UNL     1      -4.023  12.999  20.065  0.00  0.00    +0.000 N 
ATOM     14  C   UNL     1      -2.835  12.337  19.702  0.00  0.00    +0.000 A 
ATOM     15  C   UNL     1      -1.700  12.387  20.559  0.00  0.00    +0.000 A 
ATOM     16  H   UNL     1      -4.004  13.726  20.774  0.00  0.00    +0.000 HD
ENDROOT
BRANCH   1  18
ATOM     17  C   UNL     1       1.555  12.703  20.743  0.00  0.00    +0.000 C 
ATOM     18  O   UNL     1       0.606  11.662  20.970  0.00  0.00    +0.000 OA
ENDBRANCH   1  18
BRANCH   2  19
ATOM     19  C   UNL     1       0.727  10.136  18.667  0.00  0.00    +0.000 C 
ATOM     20  C   UNL     1       1.020   8.911  19.141  0.00  0.00    +0.000 C 
BRANCH  20  21
ATOM     21  C   UNL     1       2.360   8.236  18.928  0.00  0.00    +0.000 C 
ATOM     22  C   UNL     1       2.364   6.868  19.615  0.00  0.00    +0.000 C 
ATOM     23  C   UNL     1       2.708   8.070  17.447  0.00  0.00    +0.000 C 
ENDBRANCH  20  21
ENDBRANCH   2  19
BRANCH   3  24
ATOM     24  O   UNL     1      -1.663  10.003  17.093  0.00  0.00    +0.000 OA
ATOM     25  H   UNL     1      -2.488  10.128  16.597  0.00  0.00    +0.000 HD
ENDBRANCH   3  24
BRANCH  11  26
ATOM     26  O   UNL     1      -6.219  14.479  20.856  0.00  0.00    +0.000 OA
ATOM     27  H   UNL     1      -5.284  14.530  21.114  0.00  0.00    +0.000 HD
ENDBRANCH  11  26
BRANCH  15  28
ATOM     28  C   UNL     1      -1.801  13.120  21.889  0.00  0.00    +0.000 C 
BRANCH  28  29
ATOM     29  C   UNL     1      -2.729  12.447  22.876  0.00  0.00    +0.000 C 
ATOM     30  C   UNL     1      -3.484  13.067  23.807  0.00  0.00    +0.000 C 
ATOM     31  C   UNL     1      -3.517  14.554  24.029  0.00  0.00    +0.000 C 
ATOM     32  C   UNL     1      -4.378  12.284  24.735  0.00  0.00    +0.000 C 
ENDBRANCH  28  29
ENDBRANCH  15  28
TORSDOF 7
ENDMDL
MODEL 4
REMARK VINA RESULT:      -7.4      2.658      8.825
REMARK  Name = 
REMARK  12 active torsions:
REMARK  status: ('A' for Active; 'I' for Inactive)
REMARK    1  A    between atoms: C_1  and  O_2
REMARK    2  A    between atoms: O_2  and  C_3
REMARK    3  A    between atoms: C_4  and  C_5
REMARK    4  A    between atoms: C_6  and  C_7
REMARK    5  A    between atoms: C_7  and  C_8
REMARK    6  A    between atoms: C_7  and  C_9
REMARK    7  A    between atoms: C_10  and  O_11
REMARK    8  A    between atoms: C_19  and  O_20
REMARK    9  A    between atoms: C_24  and  C_25
REMARK   10  A    between atoms: C_25  and  C_26
REMARK   11  A    between atoms: C_27  and  C_28
REMARK   12  A    between atoms: C_27  and  C_29
REMARK                            x       y       z     vdW  Elec       q    Type
REMARK                         _______ _______ _______ _____ _____    ______ ____
ROOT
ATOM      1  C   UNL     1      -1.220  12.487  20.811  0.00  0.00    +0.000 A 
ATOM      2  C   UNL     1      -1.306  11.898  22.100  0.00  0.00    +0.000 A 
ATOM      3  C   UNL     1      -0.649  10.676  22.344  0.00  0.00    +0.000 A 
ATOM      4  C   UNL     1       0.093  10.043  21.329  0.00  0.00    +0.000 A 
ATOM      5  C   UNL     1       0.814   8.737  21.551  0.00  0.00    +0.000 A 
ATOM      6  O   UNL     1       0.826   8.152  22.629  0.00  0.00    +0.000 OA
ATOM      7  C   UNL     1       1.558   8.115  20.424  0.00  0.00    +0.000 A 
ATOM      8  C   UNL     1       2.251   6.910  20.592  0.00  0.00    +0.000 A 
ATOM      9  C   UNL     1       2.942   6.340  19.521  0.00  0.00    +0.000 A 
ATOM     10  C   UNL     1       2.942   6.974  18.274  0.00  0.00    +0.000 A 
ATOM     11  C   UNL     1       2.251   8.173  18.118  0.00  0.00    +0.000 A 
ATOM     12  C   UNL     1       1.565   8.761  19.191  0.00  0.00    +0.000 A 
ATOM     13  N   UNL     1       0.835   9.942  19.010  0.00  0.00    +0.000 N 
ATOM     14  C   UNL     1       0.161  10.624  20.040  0.00  0.00    +0.000 A 
ATOM     15  C   UNL     1      -0.538  11.830  19.758  0.00  0.00    +0.000 A 
ATOM     16  H   UNL     1       1.064  10.423  18.146  0.00  0.00    +0.000 HD
ENDROOT
BRANCH   1  18
ATOM     17  C   UNL     1      -1.220  14.858  20.638  0.00  0.00    +0.000 C 
ATOM     18  O   UNL     1      -1.959  13.637  20.612  0.00  0.00    +0.000 OA
ENDBRANCH   1  18
BRANCH   2  19
ATOM     19  C   UNL     1      -2.065  12.589  23.169  0.00  0.00    +0.000 C 
ATOM     20  C   UNL     1      -3.310  12.240  23.544  0.00  0.00    +0.000 C 
BRANCH  20  21
ATOM     21  C   UNL     1      -4.149  13.060  24.504  0.00  0.00    +0.000 C 
ATOM     22  C   UNL     1      -3.646  14.505  24.525  0.00  0.00    +0.000 C 
ATOM     23  C   UNL     1      -5.638  13.037  24.152  0.00  0.00    +0.000 C 
ENDBRANCH  20  21
ENDBRANCH   2  19
BRANCH   3  24
ATOM     24  O   UNL     1      -0.731  10.087  23.582  0.00  0.00    +0.000 OA
ATOM     25  H   UNL     1      -1.095   9.191  23.502  0.00  0.00    +0.000 HD
ENDBRANCH   3  24
BRANCH  11  26
ATOM     26  O   UNL     1       2.231   8.816  16.907  0.00  0.00    +0.000 OA
ATOM     27  H   UNL     1       1.637   8.329  16.311  0.00  0.00    +0.000 HD
ENDBRANCH  11  26
BRANCH  15  28
ATOM     28  C   UNL     1      -0.591  12.345  18.327  0.00  0.00    +0.000 C 
BRANCH  28  29
ATOM     29  C   UNL     1      -1.963  12.239  17.700  0.00  0.00    +0.000 C 
ATOM     30  C   UNL     1      -2.486  11.141  17.114  0.00  0.00    +0.000 C 
ATOM     31  C   UNL     1      -1.773   9.825  16.974  0.00  0.00    +0.000 C 
ATOM     32  C   UNL     1      -3.874  11.156  16.526  0.00  0.00    +0.000 C 
ENDBRANCH  28  29
ENDBRANCH  15  28
TORSDOF 7
ENDMDL
MODEL 5
REMARK VINA RESULT:      -7.4      2.973      9.124
REMARK  Name = 
REMARK  12 active torsions:
REMARK  status: ('A' for Active; 'I' for Inactive)
REMARK    1  A    between atoms: C_1  and  O_2
REMARK    2  A    between atoms: O_2  and  C_3
REMARK    3  A    between atoms: C_4  and  C_5
REMARK    4  A    between atoms: C_6  and  C_7
REMARK    5  A    between atoms: C_7  and  C_8
REMARK    6  A    between atoms: C_7  and  C_9
REMARK    7  A    between atoms: C_10  and  O_11
REMARK    8  A    between atoms: C_19  and  O_20
REMARK    9  A    between atoms: C_24  and  C_25
REMARK   10  A    between atoms: C_25  and  C_26
REMARK   11  A    between atoms: C_27  and  C_28
REMARK   12  A    between atoms: C_27  and  C_29
REMARK                            x       y       z     vdW  Elec       q    Type
REMARK                         _______ _______ _______ _____ _____    ______ ____
ROOT
ATOM      1  C   UNL     1      -1.604  13.185  20.759  0.00  0.00    +0.000 A 
ATOM      2  C   UNL     1      -1.662  12.686  22.088  0.00  0.00    +0.000 A 
ATOM      3  C   UNL     1      -1.008  11.478  22.400  0.00  0.00    +0.000 A 
ATOM      4  C   UNL     1      -0.295  10.771  21.413  0.00  0.00    +0.000 A 
ATOM      5  C   UNL     1       0.422   9.477  21.707  0.00  0.00    +0.000 A 
ATOM      6  O   UNL     1       0.455   8.967  22.822  0.00  0.00    +0.000 OA
ATOM      7  C   UNL     1       1.133   8.773  20.608  0.00  0.00    +0.000 A 
ATOM      8  C   UNL     1       1.823   7.576  20.841  0.00  0.00    +0.000 A 
ATOM      9  C   UNL     1       2.483   6.929  19.796  0.00  0.00    +0.000 A 
ATOM     10  C   UNL     1       2.458   7.476  18.509  0.00  0.00    +0.000 A 
ATOM     11  C   UNL     1       1.772   8.668  18.287  0.00  0.00    +0.000 A 
ATOM     12  C   UNL     1       1.115   9.334  19.333  0.00  0.00    +0.000 A 
ATOM     13  N   UNL     1       0.390  10.506  19.089  0.00  0.00    +0.000 N 
ATOM     14  C   UNL     1      -0.254  11.262  20.086  0.00  0.00    +0.000 A 
ATOM     15  C   UNL     1      -0.952  12.452  19.739  0.00  0.00    +0.000 A 
ATOM     16  H   UNL     1       0.601  10.925  18.189  0.00  0.00    +0.000 HD
ENDROOT
BRANCH   1  18
ATOM     17  C   UNL     1      -1.596  15.543  20.463  0.00  0.00    +0.000 C 
ATOM     18  O   UNL     1      -2.339  14.325  20.500  0.00  0.00    +0.000 OA
ENDBRANCH   1  18
BRANCH   2  19
ATOM     19  C   UNL     1      -2.391  13.455  23.125  0.00  0.00    +0.000 C 
ATOM     20  C   UNL     1      -1.788  14.270  24.010  0.00  0.00    +0.000 C 
BRANCH  20  21
ATOM     21  C   UNL     1      -2.512  14.907  25.179  0.00  0.00    +0.000 C 
ATOM     22  C   UNL     1      -1.556  15.833  25.935  0.00  0.00    +0.000 C 
ATOM     23  C   UNL     1      -3.754  15.690  24.747  0.00  0.00    +0.000 C 
ENDBRANCH  20  21
ENDBRANCH   2  19
BRANCH   3  24
ATOM     24  O   UNL     1      -1.064  10.976  23.676  0.00  0.00    +0.000 OA
ATOM     25  H   UNL     1      -0.237  11.167  24.147  0.00  0.00    +0.000 HD
ENDBRANCH   3  24
BRANCH  11  26
ATOM     26  O   UNL     1       1.727   9.227  17.036  0.00  0.00    +0.000 OA
ATOM     27  H   UNL     1       2.391   9.935  16.992  0.00  0.00    +0.000 HD
ENDBRANCH  11  26
BRANCH  15  28
ATOM     28  C   UNL     1      -1.035  12.869  18.277  0.00  0.00    +0.000 C 
BRANCH  28  29
ATOM     29  C   UNL     1      -1.617  11.799  17.380  0.00  0.00    +0.000 C 
ATOM     30  C   UNL     1      -2.889  11.349  17.403  0.00  0.00    +0.000 C 
ATOM     31  C   UNL     1      -3.951  11.834  18.350  0.00  0.00    +0.000 C 
ATOM     32  C   UNL     1      -3.355  10.277  16.450  0.00  0.00    +0.000 C 
ENDBRANCH  28  29
ENDBRANCH  15  28
TORSDOF 7
ENDMDL
MODEL 6
REMARK VINA RESULT:      -7.3      3.172      9.831
REMARK  Name = 
REMARK  12 active torsions:
REMARK  status: ('A' for Active; 'I' for Inactive)
REMARK    1  A    between atoms: C_1  and  O_2
REMARK    2  A    between atoms: O_2  and  C_3
REMARK    3  A    between atoms: C_4  and  C_5
REMARK    4  A    between atoms: C_6  and  C_7
REMARK    5  A    between atoms: C_7  and  C_8
REMARK    6  A    between atoms: C_7  and  C_9
REMARK    7  A    between atoms: C_10  and  O_11
REMARK    8  A    between atoms: C_19  and  O_20
REMARK    9  A    between atoms: C_24  and  C_25
REMARK   10  A    between atoms: C_25  and  C_26
REMARK   11  A    between atoms: C_27  and  C_28
REMARK   12  A    between atoms: C_27  and  C_29
REMARK                            x       y       z     vdW  Elec       q    Type
REMARK                         _______ _______ _______ _____ _____    ______ ____
ROOT
ATOM      1  C   UNL     1      -0.922  13.708  21.215  0.00  0.00    +0.000 A 
ATOM      2  C   UNL     1      -1.251  12.990  22.395  0.00  0.00    +0.000 A 
ATOM      3  C   UNL     1      -0.850  11.644  22.517  0.00  0.00    +0.000 A 
ATOM      4  C   UNL     1      -0.125  11.015  21.487  0.00  0.00    +0.000 A 
ATOM      5  C   UNL     1       0.326   9.578  21.581  0.00  0.00    +0.000 A 
ATOM      6  O   UNL     1       0.116   8.871  22.561  0.00  0.00    +0.000 OA
ATOM      7  C   UNL     1       1.067   8.973  20.443  0.00  0.00    +0.000 A 
ATOM      8  C   UNL     1       1.515   7.647  20.494  0.00  0.00    +0.000 A 
ATOM      9  C   UNL     1       2.207   7.095  19.415  0.00  0.00    +0.000 A 
ATOM     10  C   UNL     1       2.455   7.868  18.276  0.00  0.00    +0.000 A 
ATOM     11  C   UNL     1       2.008   9.186  18.236  0.00  0.00    +0.000 A 
ATOM     12  C   UNL     1       1.323   9.755  19.320  0.00  0.00    +0.000 A 
ATOM     13  N   UNL     1       0.837  11.066  19.249  0.00  0.00    +0.000 N 
ATOM     14  C   UNL     1       0.186  11.729  20.305  0.00  0.00    +0.000 A 
ATOM     15  C   UNL     1      -0.255  13.071  20.141  0.00  0.00    +0.000 A 
ATOM     16  H   UNL     1       1.240  11.600  18.485  0.00  0.00    +0.000 HD
ENDROOT
BRANCH   1  18
ATOM     17  C   UNL     1      -0.650  16.003  21.773  0.00  0.00    +0.000 C 
ATOM     18  O   UNL     1      -1.420  14.993  21.122  0.00  0.00    +0.000 OA
ENDBRANCH   1  18
BRANCH   2  19
ATOM     19  C   UNL     1      -1.989  13.673  23.484  0.00  0.00    +0.000 C 
ATOM     20  C   UNL     1      -3.331  13.755  23.538  0.00  0.00    +0.000 C 
BRANCH  20  21
ATOM     21  C   UNL     1      -4.071  14.607  24.549  0.00  0.00    +0.000 C 
ATOM     22  C   UNL     1      -3.081  15.514  25.283  0.00  0.00    +0.000 C 
ATOM     23  C   UNL     1      -5.172  15.457  23.909  0.00  0.00    +0.000 C 
ENDBRANCH  20  21
ENDBRANCH   2  19
BRANCH   3  24
ATOM     24  O   UNL     1      -1.169  10.932  23.646  0.00  0.00    +0.000 OA
ATOM     25  H   UNL     1      -0.386  10.465  23.979  0.00  0.00    +0.000 HD
ENDBRANCH   3  24
BRANCH  11  26
ATOM     26  O   UNL     1       2.234   9.968  17.132  0.00  0.00    +0.000 OA
ATOM     27  H   UNL     1       2.424   9.385  16.377  0.00  0.00    +0.000 HD
ENDBRANCH  11  26
BRANCH  15  28
ATOM     28  C   UNL     1      -0.059  13.762  18.799  0.00  0.00    +0.000 C 
BRANCH  28  29
ATOM     29  C   UNL     1       1.116  14.715  18.780  0.00  0.00    +0.000 C 
ATOM     30  C   UNL     1       1.058  16.043  18.548  0.00  0.00    +0.000 C 
ATOM     31  C   UNL     1      -0.204  16.805  18.252  0.00  0.00    +0.000 C 
ATOM     32  C   UNL     1       2.304  16.892  18.560  0.00  0.00    +0.000 C 
ENDBRANCH  28  29
ENDBRANCH  15  28
TORSDOF 7
ENDMDL
MODEL 7
REMARK VINA RESULT:      -7.3      2.856      9.392
REMARK  Name = 
REMARK  12 active torsions:
REMARK  status: ('A' for Active; 'I' for Inactive)
REMARK    1  A    between atoms: C_1  and  O_2
REMARK    2  A    between atoms: O_2  and  C_3
REMARK    3  A    between atoms: C_4  and  C_5
REMARK    4  A    between atoms: C_6  and  C_7
REMARK    5  A    between atoms: C_7  and  C_8
REMARK    6  A    between atoms: C_7  and  C_9
REMARK    7  A    between atoms: C_10  and  O_11
REMARK    8  A    between atoms: C_19  and  O_20
REMARK    9  A    between atoms: C_24  and  C_25
REMARK   10  A    between atoms: C_25  and  C_26
REMARK   11  A    between atoms: C_27  and  C_28
REMARK   12  A    between atoms: C_27  and  C_29
REMARK                            x       y       z     vdW  Elec       q    Type
REMARK                         _______ _______ _______ _____ _____    ______ ____
ROOT
ATOM      1  C   UNL     1      -1.055  13.371  21.022  0.00  0.00    +0.000 A 
ATOM      2  C   UNL     1      -1.322  12.710  22.251  0.00  0.00    +0.000 A 
ATOM      3  C   UNL     1      -0.856  11.394  22.442  0.00  0.00    +0.000 A 
ATOM      4  C   UNL     1      -0.127  10.737  21.433  0.00  0.00    +0.000 A 
ATOM      5  C   UNL     1       0.392   9.331  21.600  0.00  0.00    +0.000 A 
ATOM      6  O   UNL     1       0.239   8.676  22.625  0.00  0.00    +0.000 OA
ATOM      7  C   UNL     1       1.134   8.692  20.481  0.00  0.00    +0.000 A 
ATOM      8  C   UNL     1       1.644   7.393  20.599  0.00  0.00    +0.000 A 
ATOM      9  C   UNL     1       2.336   6.808  19.537  0.00  0.00    +0.000 A 
ATOM     10  C   UNL     1       2.521   7.522  18.348  0.00  0.00    +0.000 A 
ATOM     11  C   UNL     1       2.012   8.813  18.241  0.00  0.00    +0.000 A 
ATOM     12  C   UNL     1       1.327   9.416  19.307  0.00  0.00    +0.000 A 
ATOM     13  N   UNL     1       0.779  10.696  19.171  0.00  0.00    +0.000 N 
ATOM     14  C   UNL     1       0.122  11.392  20.203  0.00  0.00    +0.000 A 
ATOM     15  C   UNL     1      -0.385  12.701  19.971  0.00  0.00    +0.000 A 
ATOM     16  H   UNL     1       1.138  11.200  18.367  0.00  0.00    +0.000 HD
ENDROOT
BRANCH   1  18
ATOM     17  C   UNL     1      -0.834  15.714  21.354  0.00  0.00    +0.000 C 
ATOM     18  O   UNL     1      -1.615  14.624  20.866  0.00  0.00    +0.000 OA
ENDBRANCH   1  18
BRANCH   2  19
ATOM     19  C   UNL     1      -2.066  13.424  23.316  0.00  0.00    +0.000 C 
ATOM     20  C   UNL     1      -3.400  13.348  23.474  0.00  0.00    +0.000 C 
BRANCH  20  21
ATOM     21  C   UNL     1      -4.174  14.218  24.443  0.00  0.00    +0.000 C 
ATOM     22  C   UNL     1      -3.222  15.204  25.124  0.00  0.00    +0.000 C 
ATOM     23  C   UNL     1      -5.313  14.985  23.767  0.00  0.00    +0.000 C 
ENDBRANCH  20  21
ENDBRANCH   2  19
BRANCH   3  24
ATOM     24  O   UNL     1      -1.116  10.738  23.619  0.00  0.00    +0.000 OA
ATOM     25  H   UNL     1      -2.073  10.700  23.777  0.00  0.00    +0.000 HD
ENDBRANCH   3  24
BRANCH  11  26
ATOM     26  O   UNL     1       2.176   9.536  17.087  0.00  0.00    +0.000 OA
ATOM     27  H   UNL     1       2.936  10.131  17.203  0.00  0.00    +0.000 HD
ENDBRANCH  11  26
BRANCH  15  28
ATOM     28  C   UNL     1      -0.253  13.317  18.585  0.00  0.00    +0.000 C 
BRANCH  28  29
ATOM     29  C   UNL     1       0.766  14.434  18.520  0.00  0.00    +0.000 C 
ATOM     30  C   UNL     1       2.093  14.288  18.324  0.00  0.00    +0.000 C 
ATOM     31  C   UNL     1       2.792  12.968  18.151  0.00  0.00    +0.000 C 
ATOM     32  C   UNL     1       3.010  15.484  18.273  0.00  0.00    +0.000 C 
ENDBRANCH  28  29
ENDBRANCH  15  28
TORSDOF 7
ENDMDL
MODEL 8
REMARK VINA RESULT:      -7.3      1.171      1.707
REMARK  Name = 
REMARK  12 active torsions:
REMARK  status: ('A' for Active; 'I' for Inactive)
REMARK    1  A    between atoms: C_1  and  O_2
REMARK    2  A    between atoms: O_2  and  C_3
REMARK    3  A    between atoms: C_4  and  C_5
REMARK    4  A    between atoms: C_6  and  C_7
REMARK    5  A    between atoms: C_7  and  C_8
REMARK    6  A    between atoms: C_7  and  C_9
REMARK    7  A    between atoms: C_10  and  O_11
REMARK    8  A    between atoms: C_19  and  O_20
REMARK    9  A    between atoms: C_24  and  C_25
REMARK   10  A    between atoms: C_25  and  C_26
REMARK   11  A    between atoms: C_27  and  C_28
REMARK   12  A    between atoms: C_27  and  C_29
REMARK                            x       y       z     vdW  Elec       q    Type
REMARK                         _______ _______ _______ _____ _____    ______ ____
ROOT
ATOM      1  C   UNL     1       3.930   5.410  18.677  0.00  0.00    +0.000 A 
ATOM      2  C   UNL     1       4.246   6.189  17.532  0.00  0.00    +0.000 A 
ATOM      3  C   UNL     1       3.633   7.446  17.362  0.00  0.00    +0.000 A 
ATOM      4  C   UNL     1       2.721   7.935  18.316  0.00  0.00    +0.000 A 
ATOM      5  C   UNL     1       2.047   9.277  18.173  0.00  0.00    +0.000 A 
ATOM      6  O   UNL     1       2.262  10.040  17.238  0.00  0.00    +0.000 OA
ATOM      7  C   UNL     1       1.075   9.717  19.209  0.00  0.00    +0.000 A 
ATOM      8  C   UNL     1       0.437  10.961  19.121  0.00  0.00    +0.000 A 
ATOM      9  C   UNL     1      -0.474  11.356  20.102  0.00  0.00    +0.000 A 
ATOM     10  C   UNL     1      -0.752  10.507  21.178  0.00  0.00    +0.000 A 
ATOM     11  C   UNL     1      -0.111   9.274  21.258  0.00  0.00    +0.000 A 
ATOM     12  C   UNL     1       0.816   8.872  20.285  0.00  0.00    +0.000 A 
ATOM     13  N   UNL     1       1.419   7.611  20.350  0.00  0.00    +0.000 N 
ATOM     14  C   UNL     1       2.394   7.149  19.447  0.00  0.00    +0.000 A 
ATOM     15  C   UNL     1       2.962   5.855  19.610  0.00  0.00    +0.000 A 
ATOM     16  H   UNL     1       1.314   7.165  21.257  0.00  0.00    +0.000 HD
ENDROOT
BRANCH   1  18
ATOM     17  C   UNL     1       5.794   4.087  19.329  0.00  0.00    +0.000 C 
ATOM     18  O   UNL     1       4.496   4.152  18.738  0.00  0.00    +0.000 OA
ENDBRANCH   1  18
BRANCH   2  19
ATOM     19  C   UNL     1       5.231   5.675  16.550  0.00  0.00    +0.000 C 
ATOM     20  C   UNL     1       4.950   4.724  15.640  0.00  0.00    +0.000 C 
BRANCH  20  21
ATOM     21  C   UNL     1       6.003   4.074  14.765  0.00  0.00    +0.000 C 
ATOM     22  C   UNL     1       5.439   3.848  13.361  0.00  0.00    +0.000 C 
ATOM     23  C   UNL     1       7.288   4.901  14.677  0.00  0.00    +0.000 C 
ENDBRANCH  20  21
ENDBRANCH   2  19
BRANCH   3  24
ATOM     24  O   UNL     1       3.920   8.206  16.256  0.00  0.00    +0.000 OA
ATOM     25  H   UNL     1       4.338   9.040  16.523  0.00  0.00    +0.000 HD
ENDBRANCH   3  24
BRANCH  11  26
ATOM     26  O   UNL     1      -0.366   8.419  22.300  0.00  0.00    +0.000 OA
ATOM     27  H   UNL     1       0.435   8.356  22.848  0.00  0.00    +0.000 HD
ENDBRANCH  11  26
BRANCH  15  28
ATOM     28  C   UNL     1       2.469   4.960  20.739  0.00  0.00    +0.000 C 
BRANCH  28  29
ATOM     29  C   UNL     1       1.325   4.057  20.333  0.00  0.00    +0.000 C 
ATOM     30  C   UNL     1       1.438   2.820  19.805  0.00  0.00    +0.000 C 
ATOM     31  C   UNL     1       2.742   2.131  19.514  0.00  0.00    +0.000 C 
ATOM     32  C   UNL     1       0.218   2.011  19.445  0.00  0.00    +0.000 C 
ENDBRANCH  28  29
ENDBRANCH  15  28
TORSDOF 7
ENDMDL
MODEL 9
REMARK VINA RESULT:      -7.3      4.131      7.004
REMARK  Name = 
REMARK  12 active torsions:
REMARK  status: ('A' for Active; 'I' for Inactive)
REMARK    1  A    between atoms: C_1  and  O_2
REMARK    2  A    between atoms: O_2  and  C_3
REMARK    3  A    between atoms: C_4  and  C_5
REMARK    4  A    between atoms: C_6  and  C_7
REMARK    5  A    between atoms: C_7  and  C_8
REMARK    6  A    between atoms: C_7  and  C_9
REMARK    7  A    between atoms: C_10  and  O_11
REMARK    8  A    between atoms: C_19  and  O_20
REMARK    9  A    between atoms: C_24  and  C_25
REMARK   10  A    between atoms: C_25  and  C_26
REMARK   11  A    between atoms: C_27  and  C_28
REMARK   12  A    between atoms: C_27  and  C_29
REMARK                            x       y       z     vdW  Elec       q    Type
REMARK                         _______ _______ _______ _____ _____    ______ ____
ROOT
ATOM      1  C   UNL     1      -0.121  11.102  19.496  0.00  0.00    +0.000 A 
ATOM      2  C   UNL     1       1.204  11.066  18.985  0.00  0.00    +0.000 A 
ATOM      3  C   UNL     1       1.815  12.265  18.568  0.00  0.00    +0.000 A 
ATOM      4  C   UNL     1       1.130  13.491  18.662  0.00  0.00    +0.000 A 
ATOM      5  C   UNL     1       1.751  14.796  18.231  0.00  0.00    +0.000 A 
ATOM      6  O   UNL     1       2.894  14.885  17.796  0.00  0.00    +0.000 OA
ATOM      7  C   UNL     1       0.958  16.049  18.336  0.00  0.00    +0.000 A 
ATOM      8  C   UNL     1       1.500  17.284  17.959  0.00  0.00    +0.000 A 
ATOM      9  C   UNL     1       0.739  18.449  18.063  0.00  0.00    +0.000 A 
ATOM     10  C   UNL     1      -0.572  18.385  18.545  0.00  0.00    +0.000 A 
ATOM     11  C   UNL     1      -1.102  17.153  18.919  0.00  0.00    +0.000 A 
ATOM     12  C   UNL     1      -0.342  15.978  18.832  0.00  0.00    +0.000 A 
ATOM     13  N   UNL     1      -0.901  14.739  19.167  0.00  0.00    +0.000 N 
ATOM     14  C   UNL     1      -0.196  13.521  19.155  0.00  0.00    +0.000 A 
ATOM     15  C   UNL     1      -0.850  12.315  19.532  0.00  0.00    +0.000 A 
ATOM     16  H   UNL     1      -1.766  14.821  19.691  0.00  0.00    +0.000 HD
ENDROOT
BRANCH   1  18
ATOM     17  C   UNL     1      -0.443   9.399  21.122  0.00  0.00    +0.000 C 
ATOM     18  O   UNL     1      -0.693   9.884  19.803  0.00  0.00    +0.000 OA
ENDBRANCH   1  18
BRANCH   2  19
ATOM     19  C   UNL     1       1.925   9.772  18.919  0.00  0.00    +0.000 C 
ATOM     20  C   UNL     1       1.793   8.896  17.907  0.00  0.00    +0.000 C 
BRANCH  20  21
ATOM     21  C   UNL     1       2.387   7.502  17.932  0.00  0.00    +0.000 C 
ATOM     22  C   UNL     1       3.800   7.532  17.346  0.00  0.00    +0.000 C 
ATOM     23  C   UNL     1       2.426   6.903  19.340  0.00  0.00    +0.000 C 
ENDBRANCH  20  21
ENDBRANCH   2  19
BRANCH   3  24
ATOM     24  O   UNL     1       3.091  12.245  18.061  0.00  0.00    +0.000 OA
ATOM     25  H   UNL     1       3.534  11.416  18.303  0.00  0.00    +0.000 HD
ENDBRANCH   3  24
BRANCH  11  26
ATOM     26  O   UNL     1      -2.386  17.059  19.393  0.00  0.00    +0.000 OA
ATOM     27  H   UNL     1      -2.891  17.823  19.066  0.00  0.00    +0.000 HD
ENDBRANCH  11  26
BRANCH  15  28
ATOM     28  C   UNL     1      -2.327  12.350  19.897  0.00  0.00    +0.000 C 
BRANCH  28  29
ATOM     29  C   UNL     1      -3.234  11.883  18.779  0.00  0.00    +0.000 C 
ATOM     30  C   UNL     1      -4.583  11.882  18.799  0.00  0.00    +0.000 C 
ATOM     31  C   UNL     1      -5.422  12.339  19.960  0.00  0.00    +0.000 C 
ATOM     32  C   UNL     1      -5.380  11.395  17.616  0.00  0.00    +0.000 C 
ENDBRANCH  28  29
ENDBRANCH  15  28
TORSDOF 7
ENDMDL
