MODEL 1
REMARK VINA RESULT:      -6.4      0.000      0.000
REMARK  Name = 
REMARK  7 active torsions:
REMARK  status: ('A' for Active; 'I' for Inactive)
REMARK    1  A    between atoms: C_1  and  O_2
REMARK    2  A    between atoms: O_2  and  C_3
REMARK    3  A    between atoms: C_3  and  C_4
REMARK    4  A    between atoms: C_4  and  C_5
REMARK    5  A    between atoms: C_8  and  C_9
REMARK    6  A    between atoms: C_12  and  C_13
REMARK    7  A    between atoms: C_15  and  C_16
REMARK                            x       y       z     vdW  Elec       q    Type
REMARK                         _______ _______ _______ _____ _____    ______ ____
ROOT
ATOM      1  C   UNL     1       6.825   4.619  16.353  0.00  0.00    +0.000 A 
ATOM      2  N   UNL     1       7.654   4.684  17.403  0.00  0.00    +0.000 NA
ATOM      3  O   UNL     1       6.814   4.404  18.482  0.00  0.00    +0.000 OA
ATOM      4  C   UNL     1       5.561   4.192  17.968  0.00  0.00    +0.000 A 
ATOM      5  N   UNL     1       5.531   4.297  16.658  0.00  0.00    +0.000 NA
ENDROOT
BRANCH   4   6
ATOM      6  C   UNL     1       4.490   3.908  18.927  0.00  0.00    +0.000 A 
ATOM      7  C   UNL     1       4.459   2.663  19.583  0.00  0.00    +0.000 A 
ATOM      8  C   UNL     1       3.465   2.352  20.513  0.00  0.00    +0.000 A 
ATOM      9  C   UNL     1       2.473   3.284  20.817  0.00  0.00    +0.000 A 
ATOM     10  C   UNL     1       1.395   2.962  21.807  0.00  0.00    +0.000 C 
ATOM     11  C   UNL     1       2.490   4.528  20.175  0.00  0.00    +0.000 A 
ATOM     12  C   UNL     1       3.481   4.852  19.228  0.00  0.00    +0.000 A 
ATOM     13  C   UNL     1       3.421   6.207  18.570  0.00  0.00    +0.000 C 
ENDBRANCH   4   6
BRANCH   1  14
ATOM     14  C   UNL     1       7.265   4.877  14.968  0.00  0.00    +0.000 C 
BRANCH  14  15
ATOM     15  C   UNL     1       6.151   4.628  13.964  0.00  0.00    +0.000 C 
BRANCH  15  17
ATOM     16  C   UNL     1       5.659   3.244  12.123  0.00  0.00    +0.000 C 
ATOM     17  O   UNL     1       6.351   3.348  13.360  0.00  0.00    +0.000 OA
ENDBRANCH  15  17
ENDBRANCH  14  15
ENDBRANCH   1  14
TORSDOF 4
ENDMDL
MODEL 2
REMARK VINA RESULT:      -6.4      1.415      1.584
REMARK  Name = 
REMARK  7 active torsions:
REMARK  status: ('A' for Active; 'I' for Inactive)
REMARK    1  A    between atoms: C_1  and  O_2
REMARK    2  A    between atoms: O_2  and  C_3
REMARK    3  A    between atoms: C_3  and  C_4
REMARK    4  A    between atoms: C_4  and  C_5
REMARK    5  A    between atoms: C_8  and  C_9
REMARK    6  A    between atoms: C_12  and  C_13
REMARK    7  A    between atoms: C_15  and  C_16
REMARK                            x       y       z     vdW  Elec       q    Type
REMARK                         _______ _______ _______ _____ _____    ______ ____
ROOT
ATOM      1  C   UNL     1       6.477   4.399  14.864  0.00  0.00    +0.000 A 
ATOM      2  N   UNL     1       7.335   4.526  15.885  0.00  0.00    +0.000 NA
ATOM      3  O   UNL     1       6.503   4.466  17.004  0.00  0.00    +0.000 OA
ATOM      4  C   UNL     1       5.223   4.302  16.540  0.00  0.00    +0.000 A 
ATOM      5  N   UNL     1       5.167   4.238  15.228  0.00  0.00    +0.000 NA
ENDROOT
BRANCH   4   6
ATOM      6  C   UNL     1       4.157   4.243  17.543  0.00  0.00    +0.000 A 
ATOM      7  C   UNL     1       3.747   2.994  18.048  0.00  0.00    +0.000 A 
ATOM      8  C   UNL     1       2.743   2.889  19.013  0.00  0.00    +0.000 A 
ATOM      9  C   UNL     1       2.122   4.036  19.505  0.00  0.00    +0.000 A 
ATOM     10  C   UNL     1       1.038   3.939  20.535  0.00  0.00    +0.000 C 
ATOM     11  C   UNL     1       2.518   5.286  19.016  0.00  0.00    +0.000 A 
ATOM     12  C   UNL     1       3.523   5.407  18.036  0.00  0.00    +0.000 A 
ATOM     13  C   UNL     1       3.881   6.789  17.549  0.00  0.00    +0.000 C 
ENDBRANCH   4   6
BRANCH   1  14
ATOM     14  C   UNL     1       6.901   4.433  13.452  0.00  0.00    +0.000 C 
BRANCH  14  15
ATOM     15  C   UNL     1       6.231   3.342  12.631  0.00  0.00    +0.000 C 
BRANCH  15  17
ATOM     16  C   UNL     1       4.293   3.011  11.335  0.00  0.00    +0.000 C 
ATOM     17  O   UNL     1       5.279   3.945  11.752  0.00  0.00    +0.000 OA
ENDBRANCH  15  17
ENDBRANCH  14  15
ENDBRANCH   1  14
TORSDOF 4
ENDMDL
MODEL 3
REMARK VINA RESULT:      -6.3      1.716      2.118
REMARK  Name = 
REMARK  7 active torsions:
REMARK  status: ('A' for Active; 'I' for Inactive)
REMARK    1  A    between atoms: C_1  and  O_2
REMARK    2  A    between atoms: O_2  and  C_3
REMARK    3  A    between atoms: C_3  and  C_4
REMARK    4  A    between atoms: C_4  and  C_5
REMARK    5  A    between atoms: C_8  and  C_9
REMARK    6  A    between atoms: C_12  and  C_13
REMARK    7  A    between atoms: C_15  and  C_16
REMARK                            x       y       z     vdW  Elec       q    Type
REMARK                         _______ _______ _______ _____ _____    ______ ____
ROOT
ATOM      1  C   UNL     1       5.927   4.747  14.775  0.00  0.00    +0.000 A 
ATOM      2  N   UNL     1       5.634   6.030  15.025  0.00  0.00    +0.000 NA
ATOM      3  O   UNL     1       4.794   5.949  16.136  0.00  0.00    +0.000 OA
ATOM      4  C   UNL     1       4.672   4.619  16.447  0.00  0.00    +0.000 A 
ATOM      5  N   UNL     1       5.369   3.848  15.643  0.00  0.00    +0.000 NA
ENDROOT
BRANCH   4   6
ATOM      6  C   UNL     1       3.801   4.280  17.575  0.00  0.00    +0.000 A 
ATOM      7  C   UNL     1       2.506   3.785  17.327  0.00  0.00    +0.000 A 
ATOM      8  C   UNL     1       1.644   3.437  18.370  0.00  0.00    +0.000 A 
ATOM      9  C   UNL     1       2.057   3.571  19.694  0.00  0.00    +0.000 A 
ATOM     10  C   UNL     1       1.141   3.210  20.824  0.00  0.00    +0.000 C 
ATOM     11  C   UNL     1       3.342   4.060  19.959  0.00  0.00    +0.000 A 
ATOM     12  C   UNL     1       4.219   4.423  18.918  0.00  0.00    +0.000 A 
ATOM     13  C   UNL     1       5.581   4.955  19.287  0.00  0.00    +0.000 C 
ENDBRANCH   4   6
BRANCH   1  14
ATOM     14  C   UNL     1       6.783   4.325  13.649  0.00  0.00    +0.000 C 
BRANCH  14  15
ATOM     15  C   UNL     1       6.092   3.298  12.765  0.00  0.00    +0.000 C 
BRANCH  15  17
ATOM     16  C   UNL     1       4.251   3.047  11.319  0.00  0.00    +0.000 C 
ATOM     17  O   UNL     1       5.135   3.968  11.941  0.00  0.00    +0.000 OA
ENDBRANCH  15  17
ENDBRANCH  14  15
ENDBRANCH   1  14
TORSDOF 4
ENDMDL
MODEL 4
REMARK VINA RESULT:      -6.3      3.171      4.224
REMARK  Name = 
REMARK  7 active torsions:
REMARK  status: ('A' for Active; 'I' for Inactive)
REMARK    1  A    between atoms: C_1  and  O_2
REMARK    2  A    between atoms: O_2  and  C_3
REMARK    3  A    between atoms: C_3  and  C_4
REMARK    4  A    between atoms: C_4  and  C_5
REMARK    5  A    between atoms: C_8  and  C_9
REMARK    6  A    between atoms: C_12  and  C_13
REMARK    7  A    between atoms: C_15  and  C_16
REMARK                            x       y       z     vdW  Elec       q    Type
REMARK                         _______ _______ _______ _____ _____    ______ ____
ROOT
ATOM      1  C   UNL     1       7.156   6.693  17.612  0.00  0.00    +0.000 A 
ATOM      2  N   UNL     1       7.091   6.275  16.341  0.00  0.00    +0.000 NA
ATOM      3  O   UNL     1       5.938   5.490  16.328  0.00  0.00    +0.000 OA
ATOM      4  C   UNL     1       5.420   5.520  17.597  0.00  0.00    +0.000 A 
ATOM      5  N   UNL     1       6.132   6.265  18.413  0.00  0.00    +0.000 NA
ENDROOT
BRANCH   4   6
ATOM      6  C   UNL     1       4.209   4.732  17.839  0.00  0.00    +0.000 A 
ATOM      7  C   UNL     1       4.284   3.326  17.834  0.00  0.00    +0.000 A 
ATOM      8  C   UNL     1       3.158   2.534  18.070  0.00  0.00    +0.000 A 
ATOM      9  C   UNL     1       1.923   3.128  18.323  0.00  0.00    +0.000 A 
ATOM     10  C   UNL     1       0.705   2.291  18.570  0.00  0.00    +0.000 C 
ATOM     11  C   UNL     1       1.830   4.525  18.333  0.00  0.00    +0.000 A 
ATOM     12  C   UNL     1       2.955   5.338  18.088  0.00  0.00    +0.000 A 
ATOM     13  C   UNL     1       2.770   6.834  18.101  0.00  0.00    +0.000 C 
ENDBRANCH   4   6
BRANCH   1  14
ATOM     14  C   UNL     1       8.247   7.546  18.120  0.00  0.00    +0.000 C 
BRANCH  14  15
ATOM     15  C   UNL     1       7.999   9.018  17.829  0.00  0.00    +0.000 C 
BRANCH  15  17
ATOM     16  C   UNL     1       9.437  10.847  18.192  0.00  0.00    +0.000 C 
ATOM     17  O   UNL     1       8.690   9.804  18.802  0.00  0.00    +0.000 OA
ENDBRANCH  15  17
ENDBRANCH  14  15
ENDBRANCH   1  14
TORSDOF 4
ENDMDL
MODEL 5
REMARK VINA RESULT:      -6.2      4.417      7.548
REMARK  Name = 
REMARK  7 active torsions:
REMARK  status: ('A' for Active; 'I' for Inactive)
REMARK    1  A    between atoms: C_1  and  O_2
REMARK    2  A    between atoms: O_2  and  C_3
REMARK    3  A    between atoms: C_3  and  C_4
REMARK    4  A    between atoms: C_4  and  C_5
REMARK    5  A    between atoms: C_8  and  C_9
REMARK    6  A    between atoms: C_12  and  C_13
REMARK    7  A    between atoms: C_15  and  C_16
REMARK                            x       y       z     vdW  Elec       q    Type
REMARK                         _______ _______ _______ _____ _____    ______ ____
ROOT
ATOM      1  C   UNL     1       1.405   8.137  20.179  0.00  0.00    +0.000 A 
ATOM      2  N   UNL     1       1.433   9.018  19.171  0.00  0.00    +0.000 NA
ATOM      3  O   UNL     1       2.209   8.371  18.209  0.00  0.00    +0.000 OA
ATOM      4  C   UNL     1       2.566   7.156  18.737  0.00  0.00    +0.000 A 
ATOM      5  N   UNL     1       2.075   6.968  19.941  0.00  0.00    +0.000 NA
ENDROOT
BRANCH   4   6
ATOM      6  C   UNL     1       3.421   6.300  17.911  0.00  0.00    +0.000 A 
ATOM      7  C   UNL     1       4.597   6.832  17.347  0.00  0.00    +0.000 A 
ATOM      8  C   UNL     1       5.449   6.051  16.562  0.00  0.00    +0.000 A 
ATOM      9  C   UNL     1       5.150   4.711  16.324  0.00  0.00    +0.000 A 
ATOM     10  C   UNL     1       6.050   3.863  15.478  0.00  0.00    +0.000 C 
ATOM     11  C   UNL     1       3.986   4.165  16.878  0.00  0.00    +0.000 A 
ATOM     12  C   UNL     1       3.113   4.942  17.665  0.00  0.00    +0.000 A 
ATOM     13  C   UNL     1       1.872   4.285  18.213  0.00  0.00    +0.000 C 
ENDBRANCH   4   6
BRANCH   1  14
ATOM     14  C   UNL     1       0.710   8.399  21.453  0.00  0.00    +0.000 C 
BRANCH  14  15
ATOM     15  C   UNL     1       1.539   9.274  22.382  0.00  0.00    +0.000 C 
BRANCH  15  17
ATOM     16  C   UNL     1      -0.623   9.949  23.029  0.00  0.00    +0.000 C 
ATOM     17  O   UNL     1       0.711   9.715  23.460  0.00  0.00    +0.000 OA
ENDBRANCH  15  17
ENDBRANCH  14  15
ENDBRANCH   1  14
TORSDOF 4
ENDMDL
MODEL 6
REMARK VINA RESULT:      -6.1      1.052      1.067
REMARK  Name = 
REMARK  7 active torsions:
REMARK  status: ('A' for Active; 'I' for Inactive)
REMARK    1  A    between atoms: C_1  and  O_2
REMARK    2  A    between atoms: O_2  and  C_3
REMARK    3  A    between atoms: C_3  and  C_4
REMARK    4  A    between atoms: C_4  and  C_5
REMARK    5  A    between atoms: C_8  and  C_9
REMARK    6  A    between atoms: C_12  and  C_13
REMARK    7  A    between atoms: C_15  and  C_16
REMARK                            x       y       z     vdW  Elec       q    Type
REMARK                         _______ _______ _______ _____ _____    ______ ____
ROOT
ATOM      1  C   UNL     1       6.079   5.114  15.711  0.00  0.00    +0.000 A 
ATOM      2  N   UNL     1       6.271   6.217  16.446  0.00  0.00    +0.000 NA
ATOM      3  O   UNL     1       5.501   5.973  17.584  0.00  0.00    +0.000 OA
ATOM      4  C   UNL     1       4.927   4.739  17.420  0.00  0.00    +0.000 A 
ATOM      5  N   UNL     1       5.273   4.170  16.286  0.00  0.00    +0.000 NA
ENDROOT
BRANCH   4   6
ATOM      6  C   UNL     1       4.037   4.274  18.487  0.00  0.00    +0.000 A 
ATOM      7  C   UNL     1       4.364   3.108  19.205  0.00  0.00    +0.000 A 
ATOM      8  C   UNL     1       3.552   2.634  20.237  0.00  0.00    +0.000 A 
ATOM      9  C   UNL     1       2.388   3.318  20.584  0.00  0.00    +0.000 A 
ATOM     10  C   UNL     1       1.503   2.817  21.685  0.00  0.00    +0.000 C 
ATOM     11  C   UNL     1       2.048   4.480  19.883  0.00  0.00    +0.000 A 
ATOM     12  C   UNL     1       2.853   4.966  18.833  0.00  0.00    +0.000 A 
ATOM     13  C   UNL     1       2.410   6.216  18.115  0.00  0.00    +0.000 C 
ENDBRANCH   4   6
BRANCH   1  14
ATOM     14  C   UNL     1       6.684   4.923  14.379  0.00  0.00    +0.000 C 
BRANCH  14  15
ATOM     15  C   UNL     1       6.253   3.611  13.742  0.00  0.00    +0.000 C 
BRANCH  15  17
ATOM     16  C   UNL     1       5.122   3.102  11.740  0.00  0.00    +0.000 C 
ATOM     17  O   UNL     1       6.231   3.773  12.322  0.00  0.00    +0.000 OA
ENDBRANCH  15  17
ENDBRANCH  14  15
ENDBRANCH   1  14
TORSDOF 4
ENDMDL
MODEL 7
REMARK VINA RESULT:      -6.1      2.357      6.177
REMARK  Name = 
REMARK  7 active torsions:
REMARK  status: ('A' for Active; 'I' for Inactive)
REMARK    1  A    between atoms: C_1  and  O_2
REMARK    2  A    between atoms: O_2  and  C_3
REMARK    3  A    between atoms: C_3  and  C_4
REMARK    4  A    between atoms: C_4  and  C_5
REMARK    5  A    between atoms: C_8  and  C_9
REMARK    6  A    between atoms: C_12  and  C_13
REMARK    7  A    between atoms: C_15  and  C_16
REMARK                            x       y       z     vdW  Elec       q    Type
REMARK                         _______ _______ _______ _____ _____    ______ ____
ROOT
ATOM      1  C   UNL     1       3.491   4.318  19.919  0.00  0.00    +0.000 A 
ATOM      2  N   UNL     1       4.287   3.267  20.158  0.00  0.00    +0.000 NA
ATOM      3  O   UNL     1       5.138   3.261  19.052  0.00  0.00    +0.000 OA
ATOM      4  C   UNL     1       4.771   4.318  18.260  0.00  0.00    +0.000 A 
ATOM      5  N   UNL     1       3.772   5.004  18.769  0.00  0.00    +0.000 NA
ENDROOT
BRANCH   4   6
ATOM      6  C   UNL     1       5.511   4.498  17.009  0.00  0.00    +0.000 A 
ATOM      7  C   UNL     1       4.930   4.090  15.793  0.00  0.00    +0.000 A 
ATOM      8  C   UNL     1       5.593   4.251  14.575  0.00  0.00    +0.000 A 
ATOM      9  C   UNL     1       6.859   4.832  14.539  0.00  0.00    +0.000 A 
ATOM     10  C   UNL     1       7.587   5.005  13.240  0.00  0.00    +0.000 C 
ATOM     11  C   UNL     1       7.453   5.246  15.737  0.00  0.00    +0.000 A 
ATOM     12  C   UNL     1       6.799   5.081  16.975  0.00  0.00    +0.000 A 
ATOM     13  C   UNL     1       7.511   5.538  18.223  0.00  0.00    +0.000 C 
ENDBRANCH   4   6
BRANCH   1  14
ATOM     14  C   UNL     1       2.392   4.712  20.820  0.00  0.00    +0.000 C 
BRANCH  14  15
ATOM     15  C   UNL     1       1.038   4.261  20.294  0.00  0.00    +0.000 C 
BRANCH  15  17
ATOM     16  C   UNL     1       0.745   2.404  18.876  0.00  0.00    +0.000 C 
ATOM     17  O   UNL     1       1.032   2.835  20.200  0.00  0.00    +0.000 OA
ENDBRANCH  15  17
ENDBRANCH  14  15
ENDBRANCH   1  14
TORSDOF 4
ENDMDL
MODEL 8
REMARK VINA RESULT:      -6.0      2.719      3.816
REMARK  Name = 
REMARK  7 active torsions:
REMARK  status: ('A' for Active; 'I' for Inactive)
REMARK    1  A    between atoms: C_1  and  O_2
REMARK    2  A    between atoms: O_2  and  C_3
REMARK    3  A    between atoms: C_3  and  C_4
REMARK    4  A    between atoms: C_4  and  C_5
REMARK    5  A    between atoms: C_8  and  C_9
REMARK    6  A    between atoms: C_12  and  C_13
REMARK    7  A    between atoms: C_15  and  C_16
REMARK                            x       y       z     vdW  Elec       q    Type
REMARK                         _______ _______ _______ _____ _____    ______ ____
ROOT
ATOM      1  C   UNL     1       6.239   6.598  17.335  0.00  0.00    +0.000 A 
ATOM      2  N   UNL     1       5.219   6.631  16.468  0.00  0.00    +0.000 NA
ATOM      3  O   UNL     1       4.208   5.951  17.148  0.00  0.00    +0.000 OA
ATOM      4  C   UNL     1       4.723   5.582  18.364  0.00  0.00    +0.000 A 
ATOM      5  N   UNL     1       5.966   5.978  18.524  0.00  0.00    +0.000 NA
ENDROOT
BRANCH   4   6
ATOM      6  C   UNL     1       3.844   4.817  19.252  0.00  0.00    +0.000 A 
ATOM      7  C   UNL     1       4.090   3.446  19.459  0.00  0.00    +0.000 A 
ATOM      8  C   UNL     1       3.286   2.680  20.306  0.00  0.00    +0.000 A 
ATOM      9  C   UNL     1       2.213   3.266  20.973  0.00  0.00    +0.000 A 
ATOM     10  C   UNL     1       1.337   2.455  21.879  0.00  0.00    +0.000 C 
ATOM     11  C   UNL     1       1.954   4.628  20.780  0.00  0.00    +0.000 A 
ATOM     12  C   UNL     1       2.751   5.413  19.923  0.00  0.00    +0.000 A 
ATOM     13  C   UNL     1       2.398   6.869  19.756  0.00  0.00    +0.000 C 
ENDBRANCH   4   6
BRANCH   1  14
ATOM     14  C   UNL     1       7.562   7.181  17.039  0.00  0.00    +0.000 C 
BRANCH  14  15
ATOM     15  C   UNL     1       8.121   7.952  18.224  0.00  0.00    +0.000 C 
BRANCH  15  17
ATOM     16  C   UNL     1       8.975  10.093  18.707  0.00  0.00    +0.000 C 
ATOM     17  O   UNL     1       8.031   9.352  17.947  0.00  0.00    +0.000 OA
ENDBRANCH  15  17
ENDBRANCH  14  15
ENDBRANCH   1  14
TORSDOF 4
ENDMDL
MODEL 9
REMARK VINA RESULT:      -6.0      3.285      4.445
REMARK  Name = 
REMARK  7 active torsions:
REMARK  status: ('A' for Active; 'I' for Inactive)
REMARK    1  A    between atoms: C_1  and  O_2
REMARK    2  A    between atoms: O_2  and  C_3
REMARK    3  A    between atoms: C_3  and  C_4
REMARK    4  A    between atoms: C_4  and  C_5
REMARK    5  A    between atoms: C_8  and  C_9
REMARK    6  A    between atoms: C_12  and  C_13
REMARK    7  A    between atoms: C_15  and  C_16
REMARK                            x       y       z     vdW  Elec       q    Type
REMARK                         _______ _______ _______ _____ _____    ______ ____
ROOT
ATOM      1  C   UNL     1       7.288   6.953  17.993  0.00  0.00    +0.000 A 
ATOM      2  N   UNL     1       7.811   6.121  18.903  0.00  0.00    +0.000 NA
ATOM      3  O   UNL     1       6.777   5.212  19.128  0.00  0.00    +0.000 OA
ATOM      4  C   UNL     1       5.733   5.587  18.321  0.00  0.00    +0.000 A 
ATOM      5  N   UNL     1       6.016   6.645  17.593  0.00  0.00    +0.000 NA
ENDROOT
BRANCH   4   6
ATOM      6  C   UNL     1       4.508   4.789  18.407  0.00  0.00    +0.000 A 
ATOM      7  C   UNL     1       3.739   4.825  19.586  0.00  0.00    +0.000 A 
ATOM      8  C   UNL     1       2.558   4.090  19.711  0.00  0.00    +0.000 A 
ATOM      9  C   UNL     1       2.109   3.300  18.654  0.00  0.00    +0.000 A 
ATOM     10  C   UNL     1       0.848   2.500  18.775  0.00  0.00    +0.000 C 
ATOM     11  C   UNL     1       2.860   3.255  17.473  0.00  0.00    +0.000 A 
ATOM     12  C   UNL     1       4.058   3.983  17.336  0.00  0.00    +0.000 A 
ATOM     13  C   UNL     1       4.817   3.869  16.038  0.00  0.00    +0.000 C 
ENDBRANCH   4   6
BRANCH   1  14
ATOM     14  C   UNL     1       8.019   8.118  17.459  0.00  0.00    +0.000 C 
BRANCH  14  15
ATOM     15  C   UNL     1       8.580   8.994  18.568  0.00  0.00    +0.000 C 
BRANCH  15  17
ATOM     16  C   UNL     1       9.625  11.102  18.664  0.00  0.00    +0.000 C 
ATOM     17  O   UNL     1       8.529  10.359  18.149  0.00  0.00    +0.000 OA
ENDBRANCH  15  17
ENDBRANCH  14  15
ENDBRANCH   1  14
TORSDOF 4
ENDMDL
