MODEL 1
REMARK VINA RESULT:      -7.9      0.000      0.000
REMARK  Name = 
REMARK  10 active torsions:
REMARK  status: ('A' for Active; 'I' for Inactive)
REMARK    1  A    between atoms: C_1  and  C_2
REMARK    2  A    between atoms: C_2  and  C_3
REMARK    3  A    between atoms: C_2  and  C_4
REMARK    4  A    between atoms: C_2  and  N_5
REMARK    5  A    between atoms: N_5  and  C_6
REMARK    6  A    between atoms: C_6  and  C_7
REMARK    7  A    between atoms: C_7  and  O_8
REMARK    8  A    between atoms: C_7  and  C_9
REMARK    9  A    between atoms: C_9  and  O_10
REMARK   10  A    between atoms: O_10  and  N_11
REMARK                            x       y       z     vdW  Elec       q    Type
REMARK                         _______ _______ _______ _____ _____    ______ ____
ROOT
ATOM      1  N   UNL     1       2.075   7.301  19.099  0.00  0.00    +0.000 NA
ATOM      2  C   UNL     1       2.608   6.196  18.675  0.00  0.00    +0.000 C 
ATOM      3  C   UNL     1       2.199   4.879  19.216  0.00  0.00    +0.000 A 
ATOM      4  C   UNL     1       1.296   4.588  20.222  0.00  0.00    +0.000 A 
ATOM      5  C   UNL     1       1.121   3.244  20.556  0.00  0.00    +0.000 A 
ATOM      6  C   UNL     1       1.841   2.239  19.885  0.00  0.00    +0.000 A 
ATOM      7  C   UNL     1       2.741   2.558  18.858  0.00  0.00    +0.000 A 
ATOM      8  C   UNL     1       2.910   3.890  18.521  0.00  0.00    +0.000 A 
ATOM      9  C   UNL     1       3.760   4.520  17.536  0.00  0.00    +0.000 A 
ATOM     10  C   UNL     1       4.605   3.956  16.590  0.00  0.00    +0.000 A 
ATOM     11  C   UNL     1       5.347   4.805  15.766  0.00  0.00    +0.000 A 
ATOM     12  C   UNL     1       5.254   6.200  15.902  0.00  0.00    +0.000 A 
ATOM     13  C   UNL     1       4.391   6.770  16.843  0.00  0.00    +0.000 A 
ATOM     14  C   UNL     1       3.636   5.922  17.634  0.00  0.00    +0.000 A 
ENDROOT
BRANCH   1  15
ATOM     15  O   UNL     1       2.576   8.416  18.425  0.00  0.00    +0.000 OA
BRANCH  15  16
ATOM     16  C   UNL     1       1.481   9.166  17.878  0.00  0.00    +0.000 C 
BRANCH  16  17
ATOM     17  C   UNL     1       1.084  10.237  18.904  0.00  0.00    +0.000 C 
BRANCH  17  18
ATOM     18  O   UNL     1       1.116   9.679  20.230  0.00  0.00    +0.000 OA
ATOM     19  H   UNL     1       0.566  10.261  20.786  0.00  0.00    +0.000 HD
ENDBRANCH  17  18
BRANCH  17  20
ATOM     20  C   UNL     1      -0.336  10.760  18.602  0.00  0.00    +0.000 C 
BRANCH  20  21
ATOM     21  N   UNL     1      -0.944  10.074  17.453  0.00  0.00    +0.000 NA
ATOM     22  H   UNL     1      -0.352  10.246  16.634  0.00  0.00    +0.000 HD
BRANCH  21  24
ATOM     23  C   UNL     1      -3.351   9.431  17.751  0.00  0.00    +0.000 C 
ATOM     24  C   UNL     1      -2.345  10.442  17.169  0.00  0.00    +0.000 C 
ATOM     25  C   UNL     1      -2.573  10.599  15.656  0.00  0.00    +0.000 C 
ATOM     26  C   UNL     1      -2.600  11.806  17.837  0.00  0.00    +0.000 C 
ENDBRANCH  21  24
ENDBRANCH  20  21
ENDBRANCH  17  20
ENDBRANCH  16  17
ENDBRANCH  15  16
ENDBRANCH   1  15
TORSDOF 7
ENDMDL
MODEL 2
REMARK VINA RESULT:      -7.8      3.373      7.548
REMARK  Name = 
REMARK  10 active torsions:
REMARK  status: ('A' for Active; 'I' for Inactive)
REMARK    1  A    between atoms: C_1  and  C_2
REMARK    2  A    between atoms: C_2  and  C_3
REMARK    3  A    between atoms: C_2  and  C_4
REMARK    4  A    between atoms: C_2  and  N_5
REMARK    5  A    between atoms: N_5  and  C_6
REMARK    6  A    between atoms: C_6  and  C_7
REMARK    7  A    between atoms: C_7  and  O_8
REMARK    8  A    between atoms: C_7  and  C_9
REMARK    9  A    between atoms: C_9  and  O_10
REMARK   10  A    between atoms: O_10  and  N_11
REMARK                            x       y       z     vdW  Elec       q    Type
REMARK                         _______ _______ _______ _____ _____    ______ ____
ROOT
ATOM      1  N   UNL     1       4.177   5.880  17.016  0.00  0.00    +0.000 NA
ATOM      2  C   UNL     1       3.553   5.794  18.151  0.00  0.00    +0.000 C 
ATOM      3  C   UNL     1       2.741   6.915  18.678  0.00  0.00    +0.000 A 
ATOM      4  C   UNL     1       2.546   8.178  18.150  0.00  0.00    +0.000 A 
ATOM      5  C   UNL     1       1.745   9.059  18.879  0.00  0.00    +0.000 A 
ATOM      6  C   UNL     1       1.169   8.662  20.099  0.00  0.00    +0.000 A 
ATOM      7  C   UNL     1       1.370   7.371  20.607  0.00  0.00    +0.000 A 
ATOM      8  C   UNL     1       2.157   6.493  19.881  0.00  0.00    +0.000 A 
ATOM      9  C   UNL     1       2.553   5.129  20.148  0.00  0.00    +0.000 A 
ATOM     10  C   UNL     1       2.194   4.280  21.186  0.00  0.00    +0.000 A 
ATOM     11  C   UNL     1       2.750   2.999  21.223  0.00  0.00    +0.000 A 
ATOM     12  C   UNL     1       3.667   2.585  20.244  0.00  0.00    +0.000 A 
ATOM     13  C   UNL     1       4.018   3.434  19.190  0.00  0.00    +0.000 A 
ATOM     14  C   UNL     1       3.438   4.689  19.142  0.00  0.00    +0.000 A 
ENDROOT
BRANCH   1  15
ATOM     15  O   UNL     1       4.843   4.697  16.694  0.00  0.00    +0.000 OA
BRANCH  15  16
ATOM     16  C   UNL     1       6.258   4.905  16.816  0.00  0.00    +0.000 C 
BRANCH  16  17
ATOM     17  C   UNL     1       6.906   4.549  15.471  0.00  0.00    +0.000 C 
BRANCH  17  18
ATOM     18  O   UNL     1       7.758   5.625  15.038  0.00  0.00    +0.000 OA
ATOM     19  H   UNL     1       7.230   6.441  15.115  0.00  0.00    +0.000 HD
ENDBRANCH  17  18
BRANCH  17  20
ATOM     20  C   UNL     1       5.817   4.298  14.406  0.00  0.00    +0.000 C 
BRANCH  20  21
ATOM     21  N   UNL     1       6.046   3.049  13.665  0.00  0.00    +0.000 NA
ATOM     22  H   UNL     1       6.917   2.634  14.011  0.00  0.00    +0.000 HD
BRANCH  21  24
ATOM     23  C   UNL     1       6.477   1.876  11.490  0.00  0.00    +0.000 C 
ATOM     24  C   UNL     1       6.079   3.186  12.196  0.00  0.00    +0.000 C 
ATOM     25  C   UNL     1       7.029   4.320  11.774  0.00  0.00    +0.000 C 
ATOM     26  C   UNL     1       4.655   3.558  11.743  0.00  0.00    +0.000 C 
ENDBRANCH  21  24
ENDBRANCH  20  21
ENDBRANCH  17  20
ENDBRANCH  16  17
ENDBRANCH  15  16
ENDBRANCH   1  15
TORSDOF 7
ENDMDL
MODEL 3
REMARK VINA RESULT:      -7.8      3.703      7.252
REMARK  Name = 
REMARK  10 active torsions:
REMARK  status: ('A' for Active; 'I' for Inactive)
REMARK    1  A    between atoms: C_1  and  C_2
REMARK    2  A    between atoms: C_2  and  C_3
REMARK    3  A    between atoms: C_2  and  C_4
REMARK    4  A    between atoms: C_2  and  N_5
REMARK    5  A    between atoms: N_5  and  C_6
REMARK    6  A    between atoms: C_6  and  C_7
REMARK    7  A    between atoms: C_7  and  O_8
REMARK    8  A    between atoms: C_7  and  C_9
REMARK    9  A    between atoms: C_9  and  O_10
REMARK   10  A    between atoms: O_10  and  N_11
REMARK                            x       y       z     vdW  Elec       q    Type
REMARK                         _______ _______ _______ _____ _____    ______ ____
ROOT
ATOM      1  N   UNL     1       4.665   4.121  17.442  0.00  0.00    +0.000 NA
ATOM      2  C   UNL     1       3.854   4.714  18.263  0.00  0.00    +0.000 C 
ATOM      3  C   UNL     1       3.326   4.030  19.466  0.00  0.00    +0.000 A 
ATOM      4  C   UNL     1       3.525   2.729  19.890  0.00  0.00    +0.000 A 
ATOM      5  C   UNL     1       2.876   2.331  21.060  0.00  0.00    +0.000 A 
ATOM      6  C   UNL     1       2.057   3.230  21.766  0.00  0.00    +0.000 A 
ATOM      7  C   UNL     1       1.882   4.549  21.324  0.00  0.00    +0.000 A 
ATOM      8  C   UNL     1       2.532   4.947  20.168  0.00  0.00    +0.000 A 
ATOM      9  C   UNL     1       2.535   6.211  19.468  0.00  0.00    +0.000 A 
ATOM     10  C   UNL     1       1.937   7.419  19.798  0.00  0.00    +0.000 A 
ATOM     11  C   UNL     1       2.074   8.496  18.919  0.00  0.00    +0.000 A 
ATOM     12  C   UNL     1       2.788   8.356  17.718  0.00  0.00    +0.000 A 
ATOM     13  C   UNL     1       3.404   7.144  17.391  0.00  0.00    +0.000 A 
ATOM     14  C   UNL     1       3.290   6.092  18.283  0.00  0.00    +0.000 A 
ENDROOT
BRANCH   1  15
ATOM     15  O   UNL     1       5.069   4.962  16.404  0.00  0.00    +0.000 OA
BRANCH  15  16
ATOM     16  C   UNL     1       6.499   5.083  16.426  0.00  0.00    +0.000 C 
BRANCH  16  17
ATOM     17  C   UNL     1       7.033   4.613  15.066  0.00  0.00    +0.000 C 
BRANCH  17  18
ATOM     18  O   UNL     1       7.874   5.632  14.494  0.00  0.00    +0.000 OA
ATOM     19  H   UNL     1       8.794   5.357  14.665  0.00  0.00    +0.000 HD
ENDBRANCH  17  18
BRANCH  17  20
ATOM     20  C   UNL     1       5.861   4.319  14.107  0.00  0.00    +0.000 C 
BRANCH  20  21
ATOM     21  N   UNL     1       5.966   2.984  13.500  0.00  0.00    +0.000 NA
ATOM     22  H   UNL     1       6.809   2.535  13.872  0.00  0.00    +0.000 HD
BRANCH  21  24
ATOM     23  C   UNL     1       6.262   1.562  11.454  0.00  0.00    +0.000 C 
ATOM     24  C   UNL     1       5.973   2.963  12.024  0.00  0.00    +0.000 C 
ATOM     25  C   UNL     1       6.987   3.977  11.467  0.00  0.00    +0.000 C 
ATOM     26  C   UNL     1       4.566   3.385  11.558  0.00  0.00    +0.000 C 
ENDBRANCH  21  24
ENDBRANCH  20  21
ENDBRANCH  17  20
ENDBRANCH  16  17
ENDBRANCH  15  16
ENDBRANCH   1  15
TORSDOF 7
ENDMDL
MODEL 4
REMARK VINA RESULT:      -7.8      3.851      7.096
REMARK  Name = 
REMARK  10 active torsions:
REMARK  status: ('A' for Active; 'I' for Inactive)
REMARK    1  A    between atoms: C_1  and  C_2
REMARK    2  A    between atoms: C_2  and  C_3
REMARK    3  A    between atoms: C_2  and  C_4
REMARK    4  A    between atoms: C_2  and  N_5
REMARK    5  A    between atoms: N_5  and  C_6
REMARK    6  A    between atoms: C_6  and  C_7
REMARK    7  A    between atoms: C_7  and  O_8
REMARK    8  A    between atoms: C_7  and  C_9
REMARK    9  A    between atoms: C_9  and  O_10
REMARK   10  A    between atoms: O_10  and  N_11
REMARK                            x       y       z     vdW  Elec       q    Type
REMARK                         _______ _______ _______ _____ _____    ______ ____
ROOT
ATOM      1  N   UNL     1       5.739   4.299  18.687  0.00  0.00    +0.000 NA
ATOM      2  C   UNL     1       4.557   4.786  18.913  0.00  0.00    +0.000 C 
ATOM      3  C   UNL     1       3.582   4.088  19.782  0.00  0.00    +0.000 A 
ATOM      4  C   UNL     1       3.697   2.867  20.422  0.00  0.00    +0.000 A 
ATOM      5  C   UNL     1       2.599   2.427  21.163  0.00  0.00    +0.000 A 
ATOM      6  C   UNL     1       1.431   3.207  21.246  0.00  0.00    +0.000 A 
ATOM      7  C   UNL     1       1.344   4.448  20.600  0.00  0.00    +0.000 A 
ATOM      8  C   UNL     1       2.435   4.889  19.871  0.00  0.00    +0.000 A 
ATOM      9  C   UNL     1       2.637   6.093  19.097  0.00  0.00    +0.000 A 
ATOM     10  C   UNL     1       1.809   7.194  18.923  0.00  0.00    +0.000 A 
ATOM     11  C   UNL     1       2.240   8.228  18.088  0.00  0.00    +0.000 A 
ATOM     12  C   UNL     1       3.475   8.148  17.425  0.00  0.00    +0.000 A 
ATOM     13  C   UNL     1       4.316   7.047  17.612  0.00  0.00    +0.000 A 
ATOM     14  C   UNL     1       3.896   6.043  18.465  0.00  0.00    +0.000 A 
ENDROOT
BRANCH   1  15
ATOM     15  O   UNL     1       6.505   5.139  17.878  0.00  0.00    +0.000 OA
BRANCH  15  16
ATOM     16  C   UNL     1       6.977   4.398  16.744  0.00  0.00    +0.000 C 
BRANCH  16  17
ATOM     17  C   UNL     1       6.085   4.751  15.545  0.00  0.00    +0.000 C 
BRANCH  17  18
ATOM     18  O   UNL     1       4.835   4.045  15.642  0.00  0.00    +0.000 OA
ATOM     19  H   UNL     1       4.140   4.725  15.710  0.00  0.00    +0.000 HD
ENDBRANCH  17  18
BRANCH  17  20
ATOM     20  C   UNL     1       6.790   4.366  14.227  0.00  0.00    +0.000 C 
BRANCH  20  21
ATOM     21  N   UNL     1       6.225   3.147  13.633  0.00  0.00    +0.000 NA
ATOM     22  H   UNL     1       6.820   2.359  13.907  0.00  0.00    +0.000 HD
BRANCH  21  24
ATOM     23  C   UNL     1       4.614   3.566  11.756  0.00  0.00    +0.000 C 
ATOM     24  C   UNL     1       6.047   3.183  12.169  0.00  0.00    +0.000 C 
ATOM     25  C   UNL     1       6.432   1.833  11.538  0.00  0.00    +0.000 C 
ATOM     26  C   UNL     1       7.004   4.258  11.622  0.00  0.00    +0.000 C 
ENDBRANCH  21  24
ENDBRANCH  20  21
ENDBRANCH  17  20
ENDBRANCH  16  17
ENDBRANCH  15  16
ENDBRANCH   1  15
TORSDOF 7
ENDMDL
MODEL 5
REMARK VINA RESULT:      -7.7      3.312      7.201
REMARK  Name = 
REMARK  10 active torsions:
REMARK  status: ('A' for Active; 'I' for Inactive)
REMARK    1  A    between atoms: C_1  and  C_2
REMARK    2  A    between atoms: C_2  and  C_3
REMARK    3  A    between atoms: C_2  and  C_4
REMARK    4  A    between atoms: C_2  and  N_5
REMARK    5  A    between atoms: N_5  and  C_6
REMARK    6  A    between atoms: C_6  and  C_7
REMARK    7  A    between atoms: C_7  and  O_8
REMARK    8  A    between atoms: C_7  and  C_9
REMARK    9  A    between atoms: C_9  and  O_10
REMARK   10  A    between atoms: O_10  and  N_11
REMARK                            x       y       z     vdW  Elec       q    Type
REMARK                         _______ _______ _______ _____ _____    ______ ____
ROOT
ATOM      1  N   UNL     1       4.609   5.364  17.311  0.00  0.00    +0.000 NA
ATOM      2  C   UNL     1       3.755   5.600  18.260  0.00  0.00    +0.000 C 
ATOM      3  C   UNL     1       3.442   4.586  19.293  0.00  0.00    +0.000 A 
ATOM      4  C   UNL     1       3.906   3.289  19.415  0.00  0.00    +0.000 A 
ATOM      5  C   UNL     1       3.417   2.532  20.482  0.00  0.00    +0.000 A 
ATOM      6  C   UNL     1       2.492   3.084  21.387  0.00  0.00    +0.000 A 
ATOM      7  C   UNL     1       2.048   4.406  21.251  0.00  0.00    +0.000 A 
ATOM      8  C   UNL     1       2.538   5.160  20.198  0.00  0.00    +0.000 A 
ATOM      9  C   UNL     1       2.261   6.520  19.794  0.00  0.00    +0.000 A 
ATOM     10  C   UNL     1       1.471   7.490  20.396  0.00  0.00    +0.000 A 
ATOM     11  C   UNL     1       1.350   8.734  19.773  0.00  0.00    +0.000 A 
ATOM     12  C   UNL     1       1.999   8.994  18.556  0.00  0.00    +0.000 A 
ATOM     13  C   UNL     1       2.808   8.024  17.956  0.00  0.00    +0.000 A 
ATOM     14  C   UNL     1       2.948   6.805  18.596  0.00  0.00    +0.000 A 
ENDROOT
BRANCH   1  15
ATOM     15  O   UNL     1       4.782   6.469  16.476  0.00  0.00    +0.000 OA
BRANCH  15  16
ATOM     16  C   UNL     1       5.385   6.040  15.247  0.00  0.00    +0.000 C 
BRANCH  16  17
ATOM     17  C   UNL     1       6.325   4.868  15.565  0.00  0.00    +0.000 C 
BRANCH  17  18
ATOM     18  O   UNL     1       7.347   5.297  16.482  0.00  0.00    +0.000 OA
ATOM     19  H   UNL     1       7.059   5.010  17.368  0.00  0.00    +0.000 HD
ENDBRANCH  17  18
BRANCH  17  20
ATOM     20  C   UNL     1       6.983   4.349  14.270  0.00  0.00    +0.000 C 
BRANCH  20  21
ATOM     21  N   UNL     1       6.217   3.252  13.662  0.00  0.00    +0.000 NA
ATOM     22  H   UNL     1       6.632   2.368  13.973  0.00  0.00    +0.000 HD
BRANCH  21  24
ATOM     23  C   UNL     1       7.035   4.359  11.565  0.00  0.00    +0.000 C 
ATOM     24  C   UNL     1       6.118   3.292  12.190  0.00  0.00    +0.000 C 
ATOM     25  C   UNL     1       4.663   3.525  11.747  0.00  0.00    +0.000 C 
ATOM     26  C   UNL     1       6.564   1.914  11.667  0.00  0.00    +0.000 C 
ENDBRANCH  21  24
ENDBRANCH  20  21
ENDBRANCH  17  20
ENDBRANCH  16  17
ENDBRANCH  15  16
ENDBRANCH   1  15
TORSDOF 7
ENDMDL
MODEL 6
REMARK VINA RESULT:      -7.7      0.792      1.270
REMARK  Name = 
REMARK  10 active torsions:
REMARK  status: ('A' for Active; 'I' for Inactive)
REMARK    1  A    between atoms: C_1  and  C_2
REMARK    2  A    between atoms: C_2  and  C_3
REMARK    3  A    between atoms: C_2  and  C_4
REMARK    4  A    between atoms: C_2  and  N_5
REMARK    5  A    between atoms: N_5  and  C_6
REMARK    6  A    between atoms: C_6  and  C_7
REMARK    7  A    between atoms: C_7  and  O_8
REMARK    8  A    between atoms: C_7  and  C_9
REMARK    9  A    between atoms: C_9  and  O_10
REMARK   10  A    between atoms: O_10  and  N_11
REMARK                            x       y       z     vdW  Elec       q    Type
REMARK                         _______ _______ _______ _____ _____    ______ ____
ROOT
ATOM      1  N   UNL     1       2.014   6.818  19.432  0.00  0.00    +0.000 NA
ATOM      2  C   UNL     1       2.560   5.853  18.757  0.00  0.00    +0.000 C 
ATOM      3  C   UNL     1       2.128   4.446  18.924  0.00  0.00    +0.000 A 
ATOM      4  C   UNL     1       1.188   3.917  19.789  0.00  0.00    +0.000 A 
ATOM      5  C   UNL     1       0.998   2.534  19.758  0.00  0.00    +0.000 A 
ATOM      6  C   UNL     1       1.741   1.728  18.876  0.00  0.00    +0.000 A 
ATOM      7  C   UNL     1       2.678   2.290  17.999  0.00  0.00    +0.000 A 
ATOM      8  C   UNL     1       2.862   3.662  18.023  0.00  0.00    +0.000 A 
ATOM      9  C   UNL     1       3.749   4.515  17.265  0.00  0.00    +0.000 A 
ATOM     10  C   UNL     1       4.627   4.204  16.236  0.00  0.00    +0.000 A 
ATOM     11  C   UNL     1       5.401   5.228  15.685  0.00  0.00    +0.000 A 
ATOM     12  C   UNL     1       5.306   6.541  16.173  0.00  0.00    +0.000 A 
ATOM     13  C   UNL     1       4.410   6.859  17.198  0.00  0.00    +0.000 A 
ATOM     14  C   UNL     1       3.625   5.845  17.716  0.00  0.00    +0.000 A 
ENDROOT
BRANCH   1  15
ATOM     15  O   UNL     1       2.542   8.063  19.086  0.00  0.00    +0.000 OA
BRANCH  15  16
ATOM     16  C   UNL     1       1.553   9.075  19.323  0.00  0.00    +0.000 C 
BRANCH  16  17
ATOM     17  C   UNL     1       1.135   9.655  17.965  0.00  0.00    +0.000 C 
BRANCH  17  18
ATOM     18  O   UNL     1       2.105  10.625  17.529  0.00  0.00    +0.000 OA
ATOM     19  H   UNL     1       2.487  11.014  18.337  0.00  0.00    +0.000 HD
ENDBRANCH  17  18
BRANCH  17  20
ATOM     20  C   UNL     1      -0.248  10.329  18.078  0.00  0.00    +0.000 C 
BRANCH  20  21
ATOM     21  N   UNL     1      -1.193   9.823  17.072  0.00  0.00    +0.000 NA
ATOM     22  H   UNL     1      -0.726   9.851  16.161  0.00  0.00    +0.000 HD
BRANCH  21  24
ATOM     23  C   UNL     1      -2.924  10.851  15.575  0.00  0.00    +0.000 C 
ATOM     24  C   UNL     1      -2.490  10.525  17.016  0.00  0.00    +0.000 C 
ATOM     25  C   UNL     1      -2.451  11.813  17.857  0.00  0.00    +0.000 C 
ATOM     26  C   UNL     1      -3.543   9.583  17.630  0.00  0.00    +0.000 C 
ENDBRANCH  21  24
ENDBRANCH  20  21
ENDBRANCH  17  20
ENDBRANCH  16  17
ENDBRANCH  15  16
ENDBRANCH   1  15
TORSDOF 7
ENDMDL
MODEL 7
REMARK VINA RESULT:      -7.7      1.709      4.024
REMARK  Name = 
REMARK  10 active torsions:
REMARK  status: ('A' for Active; 'I' for Inactive)
REMARK    1  A    between atoms: C_1  and  C_2
REMARK    2  A    between atoms: C_2  and  C_3
REMARK    3  A    between atoms: C_2  and  C_4
REMARK    4  A    between atoms: C_2  and  N_5
REMARK    5  A    between atoms: N_5  and  C_6
REMARK    6  A    between atoms: C_6  and  C_7
REMARK    7  A    between atoms: C_7  and  O_8
REMARK    8  A    between atoms: C_7  and  C_9
REMARK    9  A    between atoms: C_9  and  O_10
REMARK   10  A    between atoms: O_10  and  N_11
REMARK                            x       y       z     vdW  Elec       q    Type
REMARK                         _______ _______ _______ _____ _____    ______ ____
ROOT
ATOM      1  N   UNL     1       2.249   7.443  19.808  0.00  0.00    +0.000 NA
ATOM      2  C   UNL     1       2.531   6.290  19.283  0.00  0.00    +0.000 C 
ATOM      3  C   UNL     1       3.476   6.162  18.149  0.00  0.00    +0.000 A 
ATOM      4  C   UNL     1       4.143   7.152  17.451  0.00  0.00    +0.000 A 
ATOM      5  C   UNL     1       4.961   6.748  16.394  0.00  0.00    +0.000 A 
ATOM      6  C   UNL     1       5.090   5.386  16.068  0.00  0.00    +0.000 A 
ATOM      7  C   UNL     1       4.415   4.400  16.800  0.00  0.00    +0.000 A 
ATOM      8  C   UNL     1       3.610   4.798  17.853  0.00  0.00    +0.000 A 
ATOM      9  C   UNL     1       2.791   4.032  18.765  0.00  0.00    +0.000 A 
ATOM     10  C   UNL     1       2.635   2.659  18.890  0.00  0.00    +0.000 A 
ATOM     11  C   UNL     1       1.745   2.172  19.851  0.00  0.00    +0.000 A 
ATOM     12  C   UNL     1       1.012   3.052  20.662  0.00  0.00    +0.000 A 
ATOM     13  C   UNL     1       1.181   4.436  20.549  0.00  0.00    +0.000 A 
ATOM     14  C   UNL     1       2.087   4.909  19.617  0.00  0.00    +0.000 A 
ENDROOT
BRANCH   1  15
ATOM     15  O   UNL     1       1.372   7.326  20.887  0.00  0.00    +0.000 OA
BRANCH  15  16
ATOM     16  C   UNL     1       1.523   8.469  21.742  0.00  0.00    +0.000 C 
BRANCH  16  17
ATOM     17  C   UNL     1       0.134   9.086  21.956  0.00  0.00    +0.000 C 
BRANCH  17  18
ATOM     18  O   UNL     1      -0.875   8.066  21.852  0.00  0.00    +0.000 OA
ATOM     19  H   UNL     1      -1.217   7.925  22.754  0.00  0.00    +0.000 HD
ENDBRANCH  17  18
BRANCH  17  20
ATOM     20  C   UNL     1      -0.130  10.178  20.898  0.00  0.00    +0.000 C 
BRANCH  20  21
ATOM     21  N   UNL     1       1.103  10.598  20.217  0.00  0.00    +0.000 NA
ATOM     22  H   UNL     1       1.500  11.383  20.742  0.00  0.00    +0.000 HD
BRANCH  21  24
ATOM     23  C   UNL     1       1.187   9.748  17.858  0.00  0.00    +0.000 C 
ATOM     24  C   UNL     1       0.948  10.949  18.792  0.00  0.00    +0.000 C 
ATOM     25  C   UNL     1       1.885  12.107  18.409  0.00  0.00    +0.000 C 
ATOM     26  C   UNL     1      -0.505  11.422  18.597  0.00  0.00    +0.000 C 
ENDBRANCH  21  24
ENDBRANCH  20  21
ENDBRANCH  17  20
ENDBRANCH  16  17
ENDBRANCH  15  16
ENDBRANCH   1  15
TORSDOF 7
ENDMDL
MODEL 8
REMARK VINA RESULT:      -7.6      3.515      6.726
REMARK  Name = 
REMARK  10 active torsions:
REMARK  status: ('A' for Active; 'I' for Inactive)
REMARK    1  A    between atoms: C_1  and  C_2
REMARK    2  A    between atoms: C_2  and  C_3
REMARK    3  A    between atoms: C_2  and  C_4
REMARK    4  A    between atoms: C_2  and  N_5
REMARK    5  A    between atoms: N_5  and  C_6
REMARK    6  A    between atoms: C_6  and  C_7
REMARK    7  A    between atoms: C_7  and  O_8
REMARK    8  A    between atoms: C_7  and  C_9
REMARK    9  A    between atoms: C_9  and  O_10
REMARK   10  A    between atoms: O_10  and  N_11
REMARK                            x       y       z     vdW  Elec       q    Type
REMARK                         _______ _______ _______ _____ _____    ______ ____
ROOT
ATOM      1  N   UNL     1       4.103   4.432  16.835  0.00  0.00    +0.000 NA
ATOM      2  C   UNL     1       3.314   4.915  17.744  0.00  0.00    +0.000 C 
ATOM      3  C   UNL     1       2.634   4.042  18.728  0.00  0.00    +0.000 A 
ATOM      4  C   UNL     1       2.654   2.663  18.835  0.00  0.00    +0.000 A 
ATOM      5  C   UNL     1       1.888   2.089  19.852  0.00  0.00    +0.000 A 
ATOM      6  C   UNL     1       1.134   2.896  20.723  0.00  0.00    +0.000 A 
ATOM      7  C   UNL     1       1.141   4.292  20.604  0.00  0.00    +0.000 A 
ATOM      8  C   UNL     1       1.906   4.863  19.601  0.00  0.00    +0.000 A 
ATOM      9  C   UNL     1       2.100   6.245  19.224  0.00  0.00    +0.000 A 
ATOM     10  C   UNL     1       1.624   7.409  19.813  0.00  0.00    +0.000 A 
ATOM     11  C   UNL     1       1.941   8.634  19.222  0.00  0.00    +0.000 A 
ATOM     12  C   UNL     1       2.711   8.688  18.049  0.00  0.00    +0.000 A 
ATOM     13  C   UNL     1       3.204   7.518  17.464  0.00  0.00    +0.000 A 
ATOM     14  C   UNL     1       2.912   6.311  18.073  0.00  0.00    +0.000 A 
ENDROOT
BRANCH   1  15
ATOM     15  O   UNL     1       4.668   5.433  16.044  0.00  0.00    +0.000 OA
BRANCH  15  16
ATOM     16  C   UNL     1       5.145   4.855  14.821  0.00  0.00    +0.000 C 
BRANCH  16  17
ATOM     17  C   UNL     1       6.442   4.095  15.131  0.00  0.00    +0.000 C 
BRANCH  17  18
ATOM     18  O   UNL     1       6.134   2.840  15.764  0.00  0.00    +0.000 OA
ATOM     19  H   UNL     1       5.163   2.807  15.849  0.00  0.00    +0.000 HD
ENDBRANCH  17  18
BRANCH  17  20
ATOM     20  C   UNL     1       7.338   4.934  16.067  0.00  0.00    +0.000 C 
BRANCH  20  21
ATOM     21  N   UNL     1       7.293   4.450  17.454  0.00  0.00    +0.000 NA
ATOM     22  H   UNL     1       6.480   3.833  17.546  0.00  0.00    +0.000 HD
BRANCH  21  24
ATOM     23  C   UNL     1       6.031   5.409  19.399  0.00  0.00    +0.000 C 
ATOM     24  C   UNL     1       7.269   5.503  18.488  0.00  0.00    +0.000 C 
ATOM     25  C   UNL     1       7.347   6.899  17.848  0.00  0.00    +0.000 C 
ATOM     26  C   UNL     1       8.521   5.307  19.364  0.00  0.00    +0.000 C 
ENDBRANCH  21  24
ENDBRANCH  20  21
ENDBRANCH  17  20
ENDBRANCH  16  17
ENDBRANCH  15  16
ENDBRANCH   1  15
TORSDOF 7
ENDMDL
MODEL 9
REMARK VINA RESULT:      -7.6      1.467      3.949
REMARK  Name = 
REMARK  10 active torsions:
REMARK  status: ('A' for Active; 'I' for Inactive)
REMARK    1  A    between atoms: C_1  and  C_2
REMARK    2  A    between atoms: C_2  and  C_3
REMARK    3  A    between atoms: C_2  and  C_4
REMARK    4  A    between atoms: C_2  and  N_5
REMARK    5  A    between atoms: N_5  and  C_6
REMARK    6  A    between atoms: C_6  and  C_7
REMARK    7  A    between atoms: C_7  and  O_8
REMARK    8  A    between atoms: C_7  and  C_9
REMARK    9  A    between atoms: C_9  and  O_10
REMARK   10  A    between atoms: O_10  and  N_11
REMARK                            x       y       z     vdW  Elec       q    Type
REMARK                         _______ _______ _______ _____ _____    ______ ____
ROOT
ATOM      1  N   UNL     1       2.694   7.589  18.708  0.00  0.00    +0.000 NA
ATOM      2  C   UNL     1       2.908   6.324  18.514  0.00  0.00    +0.000 C 
ATOM      3  C   UNL     1       3.867   5.844  17.492  0.00  0.00    +0.000 A 
ATOM      4  C   UNL     1       4.615   6.573  16.585  0.00  0.00    +0.000 A 
ATOM      5  C   UNL     1       5.427   5.855  15.704  0.00  0.00    +0.000 A 
ATOM      6  C   UNL     1       5.469   4.451  15.751  0.00  0.00    +0.000 A 
ATOM      7  C   UNL     1       4.711   3.735  16.688  0.00  0.00    +0.000 A 
ATOM      8  C   UNL     1       3.912   4.445  17.568  0.00  0.00    +0.000 A 
ATOM      9  C   UNL     1       3.023   3.998  18.616  0.00  0.00    +0.000 A 
ATOM     10  C   UNL     1       2.769   2.718  19.089  0.00  0.00    +0.000 A 
ATOM     11  C   UNL     1       1.828   2.557  20.109  0.00  0.00    +0.000 A 
ATOM     12  C   UNL     1       1.140   3.663  20.632  0.00  0.00    +0.000 A 
ATOM     13  C   UNL     1       1.406   4.955  20.168  0.00  0.00    +0.000 A 
ATOM     14  C   UNL     1       2.362   5.109  19.180  0.00  0.00    +0.000 A 
ENDROOT
BRANCH   1  15
ATOM     15  O   UNL     1       1.788   7.815  19.745  0.00  0.00    +0.000 OA
BRANCH  15  16
ATOM     16  C   UNL     1       1.386   9.192  19.727  0.00  0.00    +0.000 C 
BRANCH  16  17
ATOM     17  C   UNL     1       0.824   9.502  18.332  0.00  0.00    +0.000 C 
BRANCH  17  18
ATOM     18  O   UNL     1       1.859  10.058  17.501  0.00  0.00    +0.000 OA
ATOM     19  H   UNL     1       2.705   9.842  17.935  0.00  0.00    +0.000 HD
ENDBRANCH  17  18
BRANCH  17  20
ATOM     20  C   UNL     1      -0.341  10.508  18.441  0.00  0.00    +0.000 C 
BRANCH  20  21
ATOM     21  N   UNL     1       0.070  11.872  18.080  0.00  0.00    +0.000 NA
ATOM     22  H   UNL     1       0.936  11.805  17.536  0.00  0.00    +0.000 HD
BRANCH  21  24
ATOM     23  C   UNL     1       1.703  12.921  19.670  0.00  0.00    +0.000 C 
ATOM     24  C   UNL     1       0.237  12.801  19.214  0.00  0.00    +0.000 C 
ATOM     25  C   UNL     1      -0.650  12.382  20.399  0.00  0.00    +0.000 C 
ATOM     26  C   UNL     1      -0.228  14.190  18.735  0.00  0.00    +0.000 C 
ENDBRANCH  21  24
ENDBRANCH  20  21
ENDBRANCH  17  20
ENDBRANCH  16  17
ENDBRANCH  15  16
ENDBRANCH   1  15
TORSDOF 7
ENDMDL
