MODEL 1
REMARK VINA RESULT:      -9.0      0.000      0.000
REMARK  Name = 
REMARK  12 active torsions:
REMARK  status: ('A' for Active; 'I' for Inactive)
REMARK    1  A    between atoms: C_2  and  O_3
REMARK    2  A    between atoms: C_2  and  C_4
REMARK    3  A    between atoms: C_4  and  C_5
REMARK    4  A    between atoms: C_5  and  C_6
REMARK    5  A    between atoms: C_7  and  C_8
REMARK    6  A    between atoms: C_8  and  C_9
REMARK    7  A    between atoms: C_9  and  C_10
REMARK    8  A    between atoms: C_11  and  O_12
REMARK    9  A    between atoms: O_12  and  C_13
REMARK   10  A    between atoms: C_13  and  C_14
REMARK   11  A    between atoms: C_17  and  C_18
REMARK   12  A    between atoms: C_29  and  C_30
REMARK                            x       y       z     vdW  Elec       q    Type
REMARK                         _______ _______ _______ _____ _____    ______ ____
ROOT
ATOM      1  C   UNL     1       4.179   5.164  16.960  0.00  0.00    +0.000 C 
ATOM      2  C   UNL     1       4.567   6.150  18.115  0.00  0.00    +0.000 C 
ATOM      3  C   UNL     1       6.074   6.148  18.289  0.00  0.00    +0.000 C 
ATOM      4  S   UNL     1       6.574   4.431  18.126  0.00  0.00    +0.000 S 
ATOM      5  O   UNL     1       8.046   4.394  17.591  0.00  0.00    +0.000 OA
ATOM      6  C   UNL     1       5.381   4.186  16.744  0.00  0.00    +0.000 C 
ENDROOT
BRANCH   6   7
ATOM      7  C   UNL     1       6.002   4.270  15.367  0.00  0.00    +0.000 A 
ATOM      8  C   UNL     1       5.614   3.473  14.294  0.00  0.00    +0.000 A 
ATOM      9  C   UNL     1       6.180   3.669  13.034  0.00  0.00    +0.000 A 
ATOM     10  C   UNL     1       7.148   4.644  12.893  0.00  0.00    +0.000 A 
ATOM     11  N   UNL     1       7.597   5.409  13.916  0.00  0.00    +0.000 NA
ATOM     12  C   UNL     1       6.992   5.222  15.114  0.00  0.00    +0.000 A 
ENDBRANCH   6   7
BRANCH   1  13
ATOM     13  C   UNL     1       2.899   4.284  17.235  0.00  0.00    +0.000 C 
BRANCH  13  14
ATOM     14  C   UNL     1       2.938   2.740  17.183  0.00  0.00    +0.000 C 
BRANCH  14  16
ATOM     15  C   UNL     1       2.257   1.931  19.494  0.00  0.00    +0.000 C 
ATOM     16  C   UNL     1       3.167   2.043  18.508  0.00  0.00    +0.000 C 
BRANCH  15  17
ATOM     17  C   UNL     1       0.912   2.610  19.492  0.00  0.00    +0.000 C 
BRANCH  17  18
ATOM     18  C   UNL     1       0.880   3.950  20.229  0.00  0.00    +0.000 C 
BRANCH  18  20
ATOM     19  O   UNL     1       2.096   3.202  22.197  0.00  0.00    +0.000 OA
ATOM     20  C   UNL     1       1.977   3.990  21.271  0.00  0.00    +0.000 C 
BRANCH  20  21
ATOM     21  O   UNL     1       2.846   5.008  21.079  0.00  0.00    +0.000 OA
ATOM     22  H   UNL     1       3.647   4.950  21.631  0.00  0.00    +0.000 HD
ENDBRANCH  20  21
ENDBRANCH  18  20
ENDBRANCH  17  18
ENDBRANCH  15  17
ENDBRANCH  14  16
ENDBRANCH  13  14
ENDBRANCH   1  13
BRANCH   2  23
ATOM     23  O   UNL     1       4.209   7.523  17.850  0.00  0.00    +0.000 OA
BRANCH  23  24
ATOM     24  C   UNL     1       2.816   7.613  17.638  0.00  0.00    +0.000 C 
BRANCH  24  25
ATOM     25  C   UNL     1       2.005   8.505  18.510  0.00  0.00    +0.000 A 
ATOM     26  C   UNL     1       1.270   9.563  17.975  0.00  0.00    +0.000 A 
ATOM     27  C   UNL     1       0.398  10.280  18.791  0.00  0.00    +0.000 A 
ATOM     28  C   UNL     1       0.233   9.948  20.147  0.00  0.00    +0.000 A 
ATOM     29  C   UNL     1       0.911   8.823  20.640  0.00  0.00    +0.000 A 
ATOM     30  C   UNL     1       1.786   8.109  19.835  0.00  0.00    +0.000 A 
BRANCH  28  31
ATOM     31  C   UNL     1      -0.586  10.777  21.047  0.00  0.00    +0.000 A 
ATOM     32  C   UNL     1      -0.640  10.542  22.431  0.00  0.00    +0.000 A 
ATOM     33  C   UNL     1      -1.502  11.279  23.250  0.00  0.00    +0.000 A 
ATOM     34  C   UNL     1      -2.304  12.276  22.704  0.00  0.00    +0.000 A 
ATOM     35  C   UNL     1      -2.253  12.540  21.342  0.00  0.00    +0.000 A 
ATOM     36  C   UNL     1      -1.408  11.790  20.524  0.00  0.00    +0.000 A 
ENDBRANCH  28  31
ENDBRANCH  24  25
ENDBRANCH  23  24
ENDBRANCH   2  23
TORSDOF 12
ENDMDL
MODEL 2
REMARK VINA RESULT:      -9.0      0.969      1.413
REMARK  Name = 
REMARK  12 active torsions:
REMARK  status: ('A' for Active; 'I' for Inactive)
REMARK    1  A    between atoms: C_2  and  O_3
REMARK    2  A    between atoms: C_2  and  C_4
REMARK    3  A    between atoms: C_4  and  C_5
REMARK    4  A    between atoms: C_5  and  C_6
REMARK    5  A    between atoms: C_7  and  C_8
REMARK    6  A    between atoms: C_8  and  C_9
REMARK    7  A    between atoms: C_9  and  C_10
REMARK    8  A    between atoms: C_11  and  O_12
REMARK    9  A    between atoms: O_12  and  C_13
REMARK   10  A    between atoms: C_13  and  C_14
REMARK   11  A    between atoms: C_17  and  C_18
REMARK   12  A    between atoms: C_29  and  C_30
REMARK                            x       y       z     vdW  Elec       q    Type
REMARK                         _______ _______ _______ _____ _____    ______ ____
ROOT
ATOM      1  C   UNL     1       4.571   5.028  16.562  0.00  0.00    +0.000 C 
ATOM      2  C   UNL     1       4.957   5.933  17.782  0.00  0.00    +0.000 C 
ATOM      3  C   UNL     1       6.465   5.931  17.948  0.00  0.00    +0.000 C 
ATOM      4  S   UNL     1       6.977   4.234  17.662  0.00  0.00    +0.000 S 
ATOM      5  O   UNL     1       8.447   4.246  17.119  0.00  0.00    +0.000 OA
ATOM      6  C   UNL     1       5.779   4.077  16.272  0.00  0.00    +0.000 C 
ENDROOT
BRANCH   6   7
ATOM      7  C   UNL     1       6.392   4.263  14.902  0.00  0.00    +0.000 A 
ATOM      8  C   UNL     1       6.066   3.482  13.796  0.00  0.00    +0.000 A 
ATOM      9  C   UNL     1       6.615   3.771  12.547  0.00  0.00    +0.000 A 
ATOM     10  C   UNL     1       7.507   4.821  12.449  0.00  0.00    +0.000 A 
ATOM     11  N   UNL     1       7.897   5.576  13.503  0.00  0.00    +0.000 NA
ATOM     12  C   UNL     1       7.307   5.297  14.690  0.00  0.00    +0.000 A 
ENDBRANCH   6   7
BRANCH   1  13
ATOM     13  C   UNL     1       3.299   4.121  16.780  0.00  0.00    +0.000 C 
BRANCH  13  14
ATOM     14  C   UNL     1       2.163   4.520  17.749  0.00  0.00    +0.000 C 
BRANCH  14  16
ATOM     15  C   UNL     1       0.650   3.306  19.391  0.00  0.00    +0.000 C 
ATOM     16  C   UNL     1       1.248   3.395  18.188  0.00  0.00    +0.000 C 
BRANCH  15  17
ATOM     17  C   UNL     1       0.912   4.239  20.543  0.00  0.00    +0.000 C 
BRANCH  17  18
ATOM     18  C   UNL     1       2.331   4.160  21.110  0.00  0.00    +0.000 C 
BRANCH  18  20
ATOM     19  O   UNL     1       3.590   2.132  21.577  0.00  0.00    +0.000 OA
ATOM     20  C   UNL     1       2.569   2.789  21.708  0.00  0.00    +0.000 C 
BRANCH  20  21
ATOM     21  O   UNL     1       1.515   2.341  22.429  0.00  0.00    +0.000 OA
ATOM     22  H   UNL     1       1.587   2.522  23.384  0.00  0.00    +0.000 HD
ENDBRANCH  20  21
ENDBRANCH  18  20
ENDBRANCH  17  18
ENDBRANCH  15  17
ENDBRANCH  14  16
ENDBRANCH  13  14
ENDBRANCH   1  13
BRANCH   2  23
ATOM     23  O   UNL     1       4.588   7.319  17.616  0.00  0.00    +0.000 OA
BRANCH  23  24
ATOM     24  C   UNL     1       3.196   7.412  17.396  0.00  0.00    +0.000 C 
BRANCH  24  25
ATOM     25  C   UNL     1       2.367   8.229  18.323  0.00  0.00    +0.000 A 
ATOM     26  C   UNL     1       1.710   9.377  17.882  0.00  0.00    +0.000 A 
ATOM     27  C   UNL     1       0.817  10.030  18.728  0.00  0.00    +0.000 A 
ATOM     28  C   UNL     1       0.553   9.545  20.021  0.00  0.00    +0.000 A 
ATOM     29  C   UNL     1       1.154   8.338  20.409  0.00  0.00    +0.000 A 
ATOM     30  C   UNL     1       2.050   7.687  19.575  0.00  0.00    +0.000 A 
BRANCH  28  31
ATOM     31  C   UNL     1      -0.287  10.297  20.968  0.00  0.00    +0.000 A 
ATOM     32  C   UNL     1      -1.034  11.418  20.570  0.00  0.00    +0.000 A 
ATOM     33  C   UNL     1      -1.743  12.175  21.508  0.00  0.00    +0.000 A 
ATOM     34  C   UNL     1      -1.737  11.811  22.851  0.00  0.00    +0.000 A 
ATOM     35  C   UNL     1      -1.022  10.695  23.264  0.00  0.00    +0.000 A 
ATOM     36  C   UNL     1      -0.298   9.954  22.331  0.00  0.00    +0.000 A 
ENDBRANCH  28  31
ENDBRANCH  24  25
ENDBRANCH  23  24
ENDBRANCH   2  23
TORSDOF 12
ENDMDL
MODEL 3
REMARK VINA RESULT:      -8.9      0.997      1.132
REMARK  Name = 
REMARK  12 active torsions:
REMARK  status: ('A' for Active; 'I' for Inactive)
REMARK    1  A    between atoms: C_2  and  O_3
REMARK    2  A    between atoms: C_2  and  C_4
REMARK    3  A    between atoms: C_4  and  C_5
REMARK    4  A    between atoms: C_5  and  C_6
REMARK    5  A    between atoms: C_7  and  C_8
REMARK    6  A    between atoms: C_8  and  C_9
REMARK    7  A    between atoms: C_9  and  C_10
REMARK    8  A    between atoms: C_11  and  O_12
REMARK    9  A    between atoms: O_12  and  C_13
REMARK   10  A    between atoms: C_13  and  C_14
REMARK   11  A    between atoms: C_17  and  C_18
REMARK   12  A    between atoms: C_29  and  C_30
REMARK                            x       y       z     vdW  Elec       q    Type
REMARK                         _______ _______ _______ _____ _____    ______ ____
ROOT
ATOM      1  C   UNL     1       5.018   4.519  17.813  0.00  0.00    +0.000 C 
ATOM      2  C   UNL     1       4.509   5.859  18.445  0.00  0.00    +0.000 C 
ATOM      3  C   UNL     1       5.308   7.016  17.873  0.00  0.00    +0.000 C 
ATOM      4  S   UNL     1       7.006   6.437  17.799  0.00  0.00    +0.000 S 
ATOM      5  O   UNL     1       7.737   7.198  16.641  0.00  0.00    +0.000 OA
ATOM      6  C   UNL     1       6.445   4.779  17.226  0.00  0.00    +0.000 C 
ENDROOT
BRANCH   6   7
ATOM      7  C   UNL     1       6.540   4.576  15.730  0.00  0.00    +0.000 A 
ATOM      8  C   UNL     1       5.627   3.828  14.991  0.00  0.00    +0.000 A 
ATOM      9  C   UNL     1       5.739   3.758  13.602  0.00  0.00    +0.000 A 
ATOM     10  C   UNL     1       6.789   4.416  12.994  0.00  0.00    +0.000 A 
ATOM     11  N   UNL     1       7.733   5.111  13.672  0.00  0.00    +0.000 NA
ATOM     12  C   UNL     1       7.566   5.197  15.013  0.00  0.00    +0.000 A 
ENDBRANCH   6   7
BRANCH   1  13
ATOM     13  C   UNL     1       5.136   3.309  18.818  0.00  0.00    +0.000 C 
BRANCH  13  14
ATOM     14  C   UNL     1       3.958   2.343  19.082  0.00  0.00    +0.000 C 
BRANCH  14  16
ATOM     15  C   UNL     1       1.790   2.951  17.905  0.00  0.00    +0.000 C 
ATOM     16  C   UNL     1       2.931   2.241  17.974  0.00  0.00    +0.000 C 
BRANCH  15  17
ATOM     17  C   UNL     1       1.283   3.855  18.997  0.00  0.00    +0.000 C 
BRANCH  17  18
ATOM     18  C   UNL     1       1.030   3.153  20.333  0.00  0.00    +0.000 C 
BRANCH  18  20
ATOM     19  O   UNL     1       2.276   3.118  22.421  0.00  0.00    +0.000 OA
ATOM     20  C   UNL     1       1.978   3.691  21.384  0.00  0.00    +0.000 C 
BRANCH  20  21
ATOM     21  O   UNL     1       2.487   4.902  21.061  0.00  0.00    +0.000 OA
ATOM     22  H   UNL     1       2.178   5.240  20.201  0.00  0.00    +0.000 HD
ENDBRANCH  20  21
ENDBRANCH  18  20
ENDBRANCH  17  18
ENDBRANCH  15  17
ENDBRANCH  14  16
ENDBRANCH  13  14
ENDBRANCH   1  13
BRANCH   2  23
ATOM     23  O   UNL     1       3.129   6.156  18.144  0.00  0.00    +0.000 OA
BRANCH  23  24
ATOM     24  C   UNL     1       3.012   7.508  17.756  0.00  0.00    +0.000 C 
BRANCH  24  25
ATOM     25  C   UNL     1       2.164   8.426  18.564  0.00  0.00    +0.000 A 
ATOM     26  C   UNL     1       1.483   9.489  17.971  0.00  0.00    +0.000 A 
ATOM     27  C   UNL     1       0.576  10.232  18.722  0.00  0.00    +0.000 A 
ATOM     28  C   UNL     1       0.321   9.922  20.070  0.00  0.00    +0.000 A 
ATOM     29  C   UNL     1       0.947   8.792  20.618  0.00  0.00    +0.000 A 
ATOM     30  C   UNL     1       1.858   8.052  19.879  0.00  0.00    +0.000 A 
BRANCH  28  31
ATOM     31  C   UNL     1      -0.536  10.778  20.907  0.00  0.00    +0.000 A 
ATOM     32  C   UNL     1      -0.581  10.645  22.304  0.00  0.00    +0.000 A 
ATOM     33  C   UNL     1      -1.477  11.401  23.067  0.00  0.00    +0.000 A 
ATOM     34  C   UNL     1      -2.325  12.316  22.450  0.00  0.00    +0.000 A 
ATOM     35  C   UNL     1      -2.284  12.478  21.071  0.00  0.00    +0.000 A 
ATOM     36  C   UNL     1      -1.404  11.709  20.310  0.00  0.00    +0.000 A 
ENDBRANCH  28  31
ENDBRANCH  24  25
ENDBRANCH  23  24
ENDBRANCH   2  23
TORSDOF 12
ENDMDL
MODEL 4
REMARK VINA RESULT:      -8.8      3.307      6.030
REMARK  Name = 
REMARK  12 active torsions:
REMARK  status: ('A' for Active; 'I' for Inactive)
REMARK    1  A    between atoms: C_2  and  O_3
REMARK    2  A    between atoms: C_2  and  C_4
REMARK    3  A    between atoms: C_4  and  C_5
REMARK    4  A    between atoms: C_5  and  C_6
REMARK    5  A    between atoms: C_7  and  C_8
REMARK    6  A    between atoms: C_8  and  C_9
REMARK    7  A    between atoms: C_9  and  C_10
REMARK    8  A    between atoms: C_11  and  O_12
REMARK    9  A    between atoms: O_12  and  C_13
REMARK   10  A    between atoms: C_13  and  C_14
REMARK   11  A    between atoms: C_17  and  C_18
REMARK   12  A    between atoms: C_29  and  C_30
REMARK                            x       y       z     vdW  Elec       q    Type
REMARK                         _______ _______ _______ _____ _____    ______ ____
ROOT
ATOM      1  C   UNL     1       5.508   5.368  18.619  0.00  0.00    +0.000 C 
ATOM      2  C   UNL     1       5.050   5.959  17.242  0.00  0.00    +0.000 C 
ATOM      3  C   UNL     1       3.895   5.134  16.704  0.00  0.00    +0.000 C 
ATOM      4  S   UNL     1       4.322   3.425  17.055  0.00  0.00    +0.000 S 
ATOM      5  O   UNL     1       2.994   2.607  17.206  0.00  0.00    +0.000 OA
ATOM      6  C   UNL     1       4.977   3.900  18.710  0.00  0.00    +0.000 C 
ENDROOT
BRANCH   6   7
ATOM      7  C   UNL     1       4.012   3.664  19.849  0.00  0.00    +0.000 A 
ATOM      8  C   UNL     1       3.010   4.560  20.212  0.00  0.00    +0.000 A 
ATOM      9  C   UNL     1       2.106   4.232  21.223  0.00  0.00    +0.000 A 
ATOM     10  C   UNL     1       2.255   3.020  21.867  0.00  0.00    +0.000 A 
ATOM     11  N   UNL     1       3.244   2.137  21.589  0.00  0.00    +0.000 NA
ATOM     12  C   UNL     1       4.073   2.469  20.571  0.00  0.00    +0.000 A 
ENDBRANCH   6   7
BRANCH   1  13
ATOM     13  C   UNL     1       7.070   5.320  18.838  0.00  0.00    +0.000 C 
BRANCH  13  14
ATOM     14  C   UNL     1       7.924   6.603  18.943  0.00  0.00    +0.000 C 
BRANCH  14  16
ATOM     15  C   UNL     1       8.265   8.838  17.783  0.00  0.00    +0.000 C 
ATOM     16  C   UNL     1       7.790   7.578  17.792  0.00  0.00    +0.000 C 
BRANCH  15  17
ATOM     17  C   UNL     1       8.879   9.525  18.974  0.00  0.00    +0.000 C 
BRANCH  17  18
ATOM     18  C   UNL     1       9.581  10.845  18.650  0.00  0.00    +0.000 C 
BRANCH  18  20
ATOM     19  O   UNL     1       8.975  12.912  19.778  0.00  0.00    +0.000 OA
ATOM     20  C   UNL     1       9.463  11.792  19.824  0.00  0.00    +0.000 C 
BRANCH  20  21
ATOM     21  O   UNL     1       9.958  11.272  20.970  0.00  0.00    +0.000 OA
ATOM     22  H   UNL     1       9.290  11.160  21.671  0.00  0.00    +0.000 HD
ENDBRANCH  20  21
ENDBRANCH  18  20
ENDBRANCH  17  18
ENDBRANCH  15  17
ENDBRANCH  14  16
ENDBRANCH  13  14
ENDBRANCH   1  13
BRANCH   2  23
ATOM     23  O   UNL     1       4.553   7.311  17.326  0.00  0.00    +0.000 OA
BRANCH  23  24
ATOM     24  C   UNL     1       3.142   7.292  17.369  0.00  0.00    +0.000 C 
BRANCH  24  25
ATOM     25  C   UNL     1       2.431   8.209  18.301  0.00  0.00    +0.000 A 
ATOM     26  C   UNL     1       1.863   9.400  17.847  0.00  0.00    +0.000 A 
ATOM     27  C   UNL     1       1.071  10.157  18.706  0.00  0.00    +0.000 A 
ATOM     28  C   UNL     1       0.819   9.737  20.024  0.00  0.00    +0.000 A 
ATOM     29  C   UNL     1       1.323   8.492  20.429  0.00  0.00    +0.000 A 
ATOM     30  C   UNL     1       2.120   7.736  19.581  0.00  0.00    +0.000 A 
BRANCH  28  31
ATOM     31  C   UNL     1       0.092  10.592  20.978  0.00  0.00    +0.000 A 
ATOM     32  C   UNL     1       0.022  11.986  20.823  0.00  0.00    +0.000 A 
ATOM     33  C   UNL     1      -0.588  12.785  21.794  0.00  0.00    +0.000 A 
ATOM     34  C   UNL     1      -1.157  12.203  22.924  0.00  0.00    +0.000 A 
ATOM     35  C   UNL     1      -1.117  10.825  23.089  0.00  0.00    +0.000 A 
ATOM     36  C   UNL     1      -0.490  10.032  22.128  0.00  0.00    +0.000 A 
ENDBRANCH  28  31
ENDBRANCH  24  25
ENDBRANCH  23  24
ENDBRANCH   2  23
TORSDOF 12
ENDMDL
MODEL 5
REMARK VINA RESULT:      -8.8      3.104      5.783
REMARK  Name = 
REMARK  12 active torsions:
REMARK  status: ('A' for Active; 'I' for Inactive)
REMARK    1  A    between atoms: C_2  and  O_3
REMARK    2  A    between atoms: C_2  and  C_4
REMARK    3  A    between atoms: C_4  and  C_5
REMARK    4  A    between atoms: C_5  and  C_6
REMARK    5  A    between atoms: C_7  and  C_8
REMARK    6  A    between atoms: C_8  and  C_9
REMARK    7  A    between atoms: C_9  and  C_10
REMARK    8  A    between atoms: C_11  and  O_12
REMARK    9  A    between atoms: O_12  and  C_13
REMARK   10  A    between atoms: C_13  and  C_14
REMARK   11  A    between atoms: C_17  and  C_18
REMARK   12  A    between atoms: C_29  and  C_30
REMARK                            x       y       z     vdW  Elec       q    Type
REMARK                         _______ _______ _______ _____ _____    ______ ____
ROOT
ATOM      1  C   UNL     1       4.985   5.360  18.976  0.00  0.00    +0.000 C 
ATOM      2  C   UNL     1       4.737   5.813  17.496  0.00  0.00    +0.000 C 
ATOM      3  C   UNL     1       3.805   4.823  16.821  0.00  0.00    +0.000 C 
ATOM      4  S   UNL     1       4.344   3.202  17.375  0.00  0.00    +0.000 S 
ATOM      5  O   UNL     1       3.111   2.235  17.342  0.00  0.00    +0.000 OA
ATOM      6  C   UNL     1       4.612   3.844  19.080  0.00  0.00    +0.000 C 
ENDROOT
BRANCH   6   7
ATOM      7  C   UNL     1       3.478   3.554  20.037  0.00  0.00    +0.000 A 
ATOM      8  C   UNL     1       2.214   4.130  19.937  0.00  0.00    +0.000 A 
ATOM      9  C   UNL     1       1.197   3.748  20.810  0.00  0.00    +0.000 A 
ATOM     10  C   UNL     1       1.487   2.816  21.788  0.00  0.00    +0.000 A 
ATOM     11  N   UNL     1       2.712   2.266  21.962  0.00  0.00    +0.000 NA
ATOM     12  C   UNL     1       3.662   2.627  21.066  0.00  0.00    +0.000 A 
ENDBRANCH   6   7
BRANCH   1  13
ATOM     13  C   UNL     1       6.470   5.517  19.482  0.00  0.00    +0.000 C 
BRANCH  13  14
ATOM     14  C   UNL     1       7.665   5.604  18.505  0.00  0.00    +0.000 C 
BRANCH  14  16
ATOM     15  C   UNL     1       7.823   7.820  17.272  0.00  0.00    +0.000 C 
ATOM     16  C   UNL     1       7.476   6.520  17.314  0.00  0.00    +0.000 C 
BRANCH  15  17
ATOM     17  C   UNL     1       8.322   8.606  18.456  0.00  0.00    +0.000 C 
BRANCH  17  18
ATOM     18  C   UNL     1       8.412  10.115  18.219  0.00  0.00    +0.000 C 
BRANCH  18  20
ATOM     19  O   UNL     1       9.634  10.487  20.288  0.00  0.00    +0.000 OA
ATOM     20  C   UNL     1       9.495  10.709  19.094  0.00  0.00    +0.000 C 
BRANCH  20  21
ATOM     21  O   UNL     1      10.326  11.533  18.416  0.00  0.00    +0.000 OA
ATOM     22  H   UNL     1      10.952  12.014  18.986  0.00  0.00    +0.000 HD
ENDBRANCH  20  21
ENDBRANCH  18  20
ENDBRANCH  17  18
ENDBRANCH  15  17
ENDBRANCH  14  16
ENDBRANCH  13  14
ENDBRANCH   1  13
BRANCH   2  23
ATOM     23  O   UNL     1       4.086   7.096  17.383  0.00  0.00    +0.000 OA
BRANCH  23  24
ATOM     24  C   UNL     1       2.736   6.975  17.778  0.00  0.00    +0.000 C 
BRANCH  24  25
ATOM     25  C   UNL     1       2.140   8.017  18.658  0.00  0.00    +0.000 A 
ATOM     26  C   UNL     1       1.579   9.177  18.124  0.00  0.00    +0.000 A 
ATOM     27  C   UNL     1       0.890  10.056  18.956  0.00  0.00    +0.000 A 
ATOM     28  C   UNL     1       0.737   9.790  20.328  0.00  0.00    +0.000 A 
ATOM     29  C   UNL     1       1.228   8.574  20.824  0.00  0.00    +0.000 A 
ATOM     30  C   UNL     1       1.922   7.697  20.003  0.00  0.00    +0.000 A 
BRANCH  28  31
ATOM     31  C   UNL     1       0.125  10.773  21.238  0.00  0.00    +0.000 A 
ATOM     32  C   UNL     1      -0.613  10.382  22.367  0.00  0.00    +0.000 A 
ATOM     33  C   UNL     1      -1.269  11.331  23.158  0.00  0.00    +0.000 A 
ATOM     34  C   UNL     1      -1.178  12.684  22.848  0.00  0.00    +0.000 A 
ATOM     35  C   UNL     1      -0.437  13.096  21.748  0.00  0.00    +0.000 A 
ATOM     36  C   UNL     1       0.198  12.147  20.949  0.00  0.00    +0.000 A 
ENDBRANCH  28  31
ENDBRANCH  24  25
ENDBRANCH  23  24
ENDBRANCH   2  23
TORSDOF 12
ENDMDL
MODEL 6
REMARK VINA RESULT:      -8.7      0.849      1.193
REMARK  Name = 
REMARK  12 active torsions:
REMARK  status: ('A' for Active; 'I' for Inactive)
REMARK    1  A    between atoms: C_2  and  O_3
REMARK    2  A    between atoms: C_2  and  C_4
REMARK    3  A    between atoms: C_4  and  C_5
REMARK    4  A    between atoms: C_5  and  C_6
REMARK    5  A    between atoms: C_7  and  C_8
REMARK    6  A    between atoms: C_8  and  C_9
REMARK    7  A    between atoms: C_9  and  C_10
REMARK    8  A    between atoms: C_11  and  O_12
REMARK    9  A    between atoms: O_12  and  C_13
REMARK   10  A    between atoms: C_13  and  C_14
REMARK   11  A    between atoms: C_17  and  C_18
REMARK   12  A    between atoms: C_29  and  C_30
REMARK                            x       y       z     vdW  Elec       q    Type
REMARK                         _______ _______ _______ _____ _____    ______ ____
ROOT
ATOM      1  C   UNL     1       4.613   4.550  17.355  0.00  0.00    +0.000 C 
ATOM      2  C   UNL     1       4.184   5.904  18.017  0.00  0.00    +0.000 C 
ATOM      3  C   UNL     1       5.188   6.981  17.648  0.00  0.00    +0.000 C 
ATOM      4  S   UNL     1       6.798   6.192  17.756  0.00  0.00    +0.000 S 
ATOM      5  O   UNL     1       7.771   6.922  16.768  0.00  0.00    +0.000 OA
ATOM      6  C   UNL     1       6.129   4.659  16.985  0.00  0.00    +0.000 C 
ENDROOT
BRANCH   6   7
ATOM      7  C   UNL     1       6.410   4.536  15.504  0.00  0.00    +0.000 A 
ATOM      8  C   UNL     1       5.630   3.788  14.627  0.00  0.00    +0.000 A 
ATOM      9  C   UNL     1       5.908   3.793  13.261  0.00  0.00    +0.000 A 
ATOM     10  C   UNL     1       6.988   4.527  12.813  0.00  0.00    +0.000 A 
ATOM     11  N   UNL     1       7.810   5.229  13.630  0.00  0.00    +0.000 NA
ATOM     12  C   UNL     1       7.481   5.238  14.944  0.00  0.00    +0.000 A 
ENDBRANCH   6   7
BRANCH   1  13
ATOM     13  C   UNL     1       4.441   3.276  18.269  0.00  0.00    +0.000 C 
BRANCH  13  14
ATOM     14  C   UNL     1       3.637   2.039  17.811  0.00  0.00    +0.000 C 
BRANCH  14  16
ATOM     15  C   UNL     1       1.631   1.968  19.369  0.00  0.00    +0.000 C 
ATOM     16  C   UNL     1       2.745   1.408  18.860  0.00  0.00    +0.000 C 
BRANCH  15  17
ATOM     17  C   UNL     1       1.177   3.374  19.080  0.00  0.00    +0.000 C 
BRANCH  17  18
ATOM     18  C   UNL     1       0.869   4.207  20.327  0.00  0.00    +0.000 C 
BRANCH  18  20
ATOM     19  O   UNL     1       2.230   3.398  22.173  0.00  0.00    +0.000 OA
ATOM     20  C   UNL     1       2.060   4.194  21.261  0.00  0.00    +0.000 C 
BRANCH  20  21
ATOM     21  O   UNL     1       2.953   5.172  20.986  0.00  0.00    +0.000 OA
ATOM     22  H   UNL     1       2.672   5.771  20.270  0.00  0.00    +0.000 HD
ENDBRANCH  20  21
ENDBRANCH  18  20
ENDBRANCH  17  18
ENDBRANCH  15  17
ENDBRANCH  14  16
ENDBRANCH  13  14
ENDBRANCH   1  13
BRANCH   2  23
ATOM     23  O   UNL     1       2.906   6.394  17.559  0.00  0.00    +0.000 OA
BRANCH  23  24
ATOM     24  C   UNL     1       2.908   7.806  17.583  0.00  0.00    +0.000 C 
BRANCH  24  25
ATOM     25  C   UNL     1       1.963   8.519  18.485  0.00  0.00    +0.000 A 
ATOM     26  C   UNL     1       1.797   8.126  19.813  0.00  0.00    +0.000 A 
ATOM     27  C   UNL     1       1.029   8.907  20.673  0.00  0.00    +0.000 A 
ATOM     28  C   UNL     1       0.424  10.097  20.230  0.00  0.00    +0.000 A 
ATOM     29  C   UNL     1       0.680  10.520  18.917  0.00  0.00    +0.000 A 
ATOM     30  C   UNL     1       1.438   9.744  18.053  0.00  0.00    +0.000 A 
BRANCH  28  31
ATOM     31  C   UNL     1      -0.494  10.859  21.093  0.00  0.00    +0.000 A 
ATOM     32  C   UNL     1      -0.649  10.565  22.457  0.00  0.00    +0.000 A 
ATOM     33  C   UNL     1      -1.600  11.237  23.232  0.00  0.00    +0.000 A 
ATOM     34  C   UNL     1      -2.394  12.227  22.662  0.00  0.00    +0.000 A 
ATOM     35  C   UNL     1      -2.245  12.549  21.319  0.00  0.00    +0.000 A 
ATOM     36  C   UNL     1      -1.310  11.864  20.544  0.00  0.00    +0.000 A 
ENDBRANCH  28  31
ENDBRANCH  24  25
ENDBRANCH  23  24
ENDBRANCH   2  23
TORSDOF 12
ENDMDL
MODEL 7
REMARK VINA RESULT:      -8.5      5.556      7.181
REMARK  Name = 
REMARK  12 active torsions:
REMARK  status: ('A' for Active; 'I' for Inactive)
REMARK    1  A    between atoms: C_2  and  O_3
REMARK    2  A    between atoms: C_2  and  C_4
REMARK    3  A    between atoms: C_4  and  C_5
REMARK    4  A    between atoms: C_5  and  C_6
REMARK    5  A    between atoms: C_7  and  C_8
REMARK    6  A    between atoms: C_8  and  C_9
REMARK    7  A    between atoms: C_9  and  C_10
REMARK    8  A    between atoms: C_11  and  O_12
REMARK    9  A    between atoms: O_12  and  C_13
REMARK   10  A    between atoms: C_13  and  C_14
REMARK   11  A    between atoms: C_17  and  C_18
REMARK   12  A    between atoms: C_29  and  C_30
REMARK                            x       y       z     vdW  Elec       q    Type
REMARK                         _______ _______ _______ _____ _____    ______ ____
ROOT
ATOM      1  C   UNL     1       5.727   7.004  16.948  0.00  0.00    +0.000 C 
ATOM      2  C   UNL     1       6.770   7.595  17.958  0.00  0.00    +0.000 C 
ATOM      3  C   UNL     1       7.935   6.632  18.093  0.00  0.00    +0.000 C 
ATOM      4  S   UNL     1       7.201   4.994  18.139  0.00  0.00    +0.000 S 
ATOM      5  O   UNL     1       8.246   3.970  17.577  0.00  0.00    +0.000 OA
ATOM      6  C   UNL     1       5.996   5.467  16.829  0.00  0.00    +0.000 C 
ENDROOT
BRANCH   6   7
ATOM      7  C   UNL     1       6.383   5.017  15.438  0.00  0.00    +0.000 A 
ATOM      8  C   UNL     1       5.727   4.006  14.741  0.00  0.00    +0.000 A 
ATOM      9  C   UNL     1       6.093   3.706  13.429  0.00  0.00    +0.000 A 
ATOM     10  C   UNL     1       7.136   4.411  12.862  0.00  0.00    +0.000 A 
ATOM     11  N   UNL     1       7.841   5.366  13.514  0.00  0.00    +0.000 NA
ATOM     12  C   UNL     1       7.426   5.662  14.769  0.00  0.00    +0.000 A 
ENDBRANCH   6   7
BRANCH   1  13
ATOM     13  C   UNL     1       4.217   7.188  17.364  0.00  0.00    +0.000 C 
BRANCH  13  14
ATOM     14  C   UNL     1       3.521   6.241  18.368  0.00  0.00    +0.000 C 
BRANCH  14  16
ATOM     15  C   UNL     1       1.513   4.690  18.525  0.00  0.00    +0.000 C 
ATOM     16  C   UNL     1       2.418   5.374  17.798  0.00  0.00    +0.000 C 
BRANCH  15  17
ATOM     17  C   UNL     1       1.547   4.565  20.025  0.00  0.00    +0.000 C 
BRANCH  17  18
ATOM     18  C   UNL     1       1.432   3.129  20.542  0.00  0.00    +0.000 C 
BRANCH  18  20
ATOM     19  O   UNL     1       3.574   2.215  19.844  0.00  0.00    +0.000 OA
ATOM     20  C   UNL     1       2.356   2.225  19.755  0.00  0.00    +0.000 C 
BRANCH  20  21
ATOM     21  O   UNL     1       1.691   1.396  18.917  0.00  0.00    +0.000 OA
ATOM     22  H   UNL     1       0.790   1.177  19.216  0.00  0.00    +0.000 HD
ENDBRANCH  20  21
ENDBRANCH  18  20
ENDBRANCH  17  18
ENDBRANCH  15  17
ENDBRANCH  14  16
ENDBRANCH  13  14
ENDBRANCH   1  13
BRANCH   2  23
ATOM     23  O   UNL     1       7.349   8.845  17.529  0.00  0.00    +0.000 OA
BRANCH  23  24
ATOM     24  C   UNL     1       8.451   9.161  18.353  0.00  0.00    +0.000 C 
BRANCH  24  25
ATOM     25  C   UNL     1       9.068  10.512  18.256  0.00  0.00    +0.000 A 
ATOM     26  C   UNL     1       8.428  11.550  17.579  0.00  0.00    +0.000 A 
ATOM     27  C   UNL     1       8.951  12.839  17.641  0.00  0.00    +0.000 A 
ATOM     28  C   UNL     1      10.111  13.119  18.385  0.00  0.00    +0.000 A 
ATOM     29  C   UNL     1      10.684  12.079  19.132  0.00  0.00    +0.000 A 
ATOM     30  C   UNL     1      10.172  10.791  19.070  0.00  0.00    +0.000 A 
BRANCH  28  31
ATOM     31  C   UNL     1      10.744  14.448  18.351  0.00  0.00    +0.000 A 
ATOM     32  C   UNL     1      11.324  15.024  19.493  0.00  0.00    +0.000 A 
ATOM     33  C   UNL     1      11.830  16.328  19.459  0.00  0.00    +0.000 A 
ATOM     34  C   UNL     1      11.785  17.066  18.281  0.00  0.00    +0.000 A 
ATOM     35  C   UNL     1      11.234  16.509  17.134  0.00  0.00    +0.000 A 
ATOM     36  C   UNL     1      10.712  15.217  17.175  0.00  0.00    +0.000 A 
ENDBRANCH  28  31
ENDBRANCH  24  25
ENDBRANCH  23  24
ENDBRANCH   2  23
TORSDOF 12
ENDMDL
MODEL 8
REMARK VINA RESULT:      -8.4      5.360     10.797
REMARK  Name = 
REMARK  12 active torsions:
REMARK  status: ('A' for Active; 'I' for Inactive)
REMARK    1  A    between atoms: C_2  and  O_3
REMARK    2  A    between atoms: C_2  and  C_4
REMARK    3  A    between atoms: C_4  and  C_5
REMARK    4  A    between atoms: C_5  and  C_6
REMARK    5  A    between atoms: C_7  and  C_8
REMARK    6  A    between atoms: C_8  and  C_9
REMARK    7  A    between atoms: C_9  and  C_10
REMARK    8  A    between atoms: C_11  and  O_12
REMARK    9  A    between atoms: O_12  and  C_13
REMARK   10  A    between atoms: C_13  and  C_14
REMARK   11  A    between atoms: C_17  and  C_18
REMARK   12  A    between atoms: C_29  and  C_30
REMARK                            x       y       z     vdW  Elec       q    Type
REMARK                         _______ _______ _______ _____ _____    ______ ____
ROOT
ATOM      1  C   UNL     1      -1.103  11.162  19.475  0.00  0.00    +0.000 C 
ATOM      2  C   UNL     1       0.436  11.365  19.697  0.00  0.00    +0.000 C 
ATOM      3  C   UNL     1       0.669  12.692  20.395  0.00  0.00    +0.000 C 
ATOM      4  S   UNL     1      -0.468  13.847  19.622  0.00  0.00    +0.000 S 
ATOM      5  O   UNL     1      -0.821  14.964  20.663  0.00  0.00    +0.000 OA
ATOM      6  C   UNL     1      -1.789  12.564  19.584  0.00  0.00    +0.000 C 
ENDROOT
BRANCH   6   7
ATOM      7  C   UNL     1      -2.790  12.671  20.713  0.00  0.00    +0.000 A 
ATOM      8  C   UNL     1      -2.533  12.257  22.017  0.00  0.00    +0.000 A 
ATOM      9  C   UNL     1      -3.480  12.466  23.019  0.00  0.00    +0.000 A 
ATOM     10  C   UNL     1      -4.679  13.060  22.676  0.00  0.00    +0.000 A 
ATOM     11  N   UNL     1      -4.998  13.433  21.414  0.00  0.00    +0.000 NA
ATOM     12  C   UNL     1      -4.037  13.256  20.477  0.00  0.00    +0.000 A 
ENDBRANCH   6   7
BRANCH   1  13
ATOM     13  C   UNL     1      -1.500  10.550  18.077  0.00  0.00    +0.000 C 
BRANCH  13  14
ATOM     14  C   UNL     1      -2.929  10.042  17.779  0.00  0.00    +0.000 C 
BRANCH  14  16
ATOM     15  C   UNL     1      -5.091  11.316  17.380  0.00  0.00    +0.000 C 
ATOM     16  C   UNL     1      -3.828  11.006  17.033  0.00  0.00    +0.000 C 
BRANCH  15  17
ATOM     17  C   UNL     1      -5.861  10.639  18.483  0.00  0.00    +0.000 C 
BRANCH  17  18
ATOM     18  C   UNL     1      -7.101  11.405  18.950  0.00  0.00    +0.000 C 
BRANCH  18  20
ATOM     19  O   UNL     1      -7.297   9.980  20.911  0.00  0.00    +0.000 OA
ATOM     20  C   UNL     1      -7.383  11.088  20.403  0.00  0.00    +0.000 C 
BRANCH  20  21
ATOM     21  O   UNL     1      -7.748  12.178  21.117  0.00  0.00    +0.000 OA
ATOM     22  H   UNL     1      -8.593  12.570  20.829  0.00  0.00    +0.000 HD
ENDBRANCH  20  21
ENDBRANCH  18  20
ENDBRANCH  17  18
ENDBRANCH  15  17
ENDBRANCH  14  16
ENDBRANCH  13  14
ENDBRANCH   1  13
BRANCH   2  23
ATOM     23  O   UNL     1       1.035  10.368  20.552  0.00  0.00    +0.000 OA
BRANCH  23  24
ATOM     24  C   UNL     1       0.739   9.081  20.052  0.00  0.00    +0.000 C 
BRANCH  24  25
ATOM     25  C   UNL     1       1.821   8.285  19.410  0.00  0.00    +0.000 A 
ATOM     26  C   UNL     1       2.242   7.071  19.954  0.00  0.00    +0.000 A 
ATOM     27  C   UNL     1       3.141   6.275  19.248  0.00  0.00    +0.000 A 
ATOM     28  C   UNL     1       3.624   6.665  17.987  0.00  0.00    +0.000 A 
ATOM     29  C   UNL     1       3.115   7.843  17.419  0.00  0.00    +0.000 A 
ATOM     30  C   UNL     1       2.226   8.645  18.119  0.00  0.00    +0.000 A 
BRANCH  28  31
ATOM     31  C   UNL     1       4.670   5.896  17.293  0.00  0.00    +0.000 A 
ATOM     32  C   UNL     1       4.400   4.664  16.674  0.00  0.00    +0.000 A 
ATOM     33  C   UNL     1       5.430   3.906  16.109  0.00  0.00    +0.000 A 
ATOM     34  C   UNL     1       6.740   4.375  16.133  0.00  0.00    +0.000 A 
ATOM     35  C   UNL     1       7.028   5.599  16.722  0.00  0.00    +0.000 A 
ATOM     36  C   UNL     1       6.002   6.344  17.303  0.00  0.00    +0.000 A 
ENDBRANCH  28  31
ENDBRANCH  24  25
ENDBRANCH  23  24
ENDBRANCH   2  23
TORSDOF 12
ENDMDL
MODEL 9
REMARK VINA RESULT:      -8.4      1.420      1.754
REMARK  Name = 
REMARK  12 active torsions:
REMARK  status: ('A' for Active; 'I' for Inactive)
REMARK    1  A    between atoms: C_2  and  O_3
REMARK    2  A    between atoms: C_2  and  C_4
REMARK    3  A    between atoms: C_4  and  C_5
REMARK    4  A    between atoms: C_5  and  C_6
REMARK    5  A    between atoms: C_7  and  C_8
REMARK    6  A    between atoms: C_8  and  C_9
REMARK    7  A    between atoms: C_9  and  C_10
REMARK    8  A    between atoms: C_11  and  O_12
REMARK    9  A    between atoms: O_12  and  C_13
REMARK   10  A    between atoms: C_13  and  C_14
REMARK   11  A    between atoms: C_17  and  C_18
REMARK   12  A    between atoms: C_29  and  C_30
REMARK                            x       y       z     vdW  Elec       q    Type
REMARK                         _______ _______ _______ _____ _____    ______ ____
ROOT
ATOM      1  C   UNL     1       4.764   4.635  17.653  0.00  0.00    +0.000 C 
ATOM      2  C   UNL     1       4.355   6.013  18.280  0.00  0.00    +0.000 C 
ATOM      3  C   UNL     1       5.297   7.090  17.773  0.00  0.00    +0.000 C 
ATOM      4  S   UNL     1       6.930   6.344  17.785  0.00  0.00    +0.000 S 
ATOM      5  O   UNL     1       7.798   7.042  16.683  0.00  0.00    +0.000 OA
ATOM      6  C   UNL     1       6.240   4.758  17.151  0.00  0.00    +0.000 C 
ENDROOT
BRANCH   6   7
ATOM      7  C   UNL     1       6.401   4.564  15.660  0.00  0.00    +0.000 A 
ATOM      8  C   UNL     1       5.483   3.883  14.865  0.00  0.00    +0.000 A 
ATOM      9  C   UNL     1       5.662   3.819  13.483  0.00  0.00    +0.000 A 
ATOM     10  C   UNL     1       6.782   4.417  12.939  0.00  0.00    +0.000 A 
ATOM     11  N   UNL     1       7.731   5.045  13.673  0.00  0.00    +0.000 NA
ATOM     12  C   UNL     1       7.499   5.127  15.005  0.00  0.00    +0.000 A 
ENDBRANCH   6   7
BRANCH   1  13
ATOM     13  C   UNL     1       4.702   3.408  18.642  0.00  0.00    +0.000 C 
BRANCH  13  14
ATOM     14  C   UNL     1       3.670   2.270  18.475  0.00  0.00    +0.000 C 
BRANCH  14  16
ATOM     15  C   UNL     1       1.212   2.824  18.137  0.00  0.00    +0.000 C 
ATOM     16  C   UNL     1       2.447   2.608  17.647  0.00  0.00    +0.000 C 
BRANCH  15  17
ATOM     17  C   UNL     1       0.821   2.621  19.577  0.00  0.00    +0.000 C 
BRANCH  17  18
ATOM     18  C   UNL     1       0.909   3.881  20.440  0.00  0.00    +0.000 C 
BRANCH  18  20
ATOM     19  O   UNL     1       2.300   2.708  22.054  0.00  0.00    +0.000 OA
ATOM     20  C   UNL     1       2.027   3.735  21.450  0.00  0.00    +0.000 C 
BRANCH  20  21
ATOM     21  O   UNL     1       2.725   4.880  21.631  0.00  0.00    +0.000 OA
ATOM     22  H   UNL     1       3.578   4.898  21.159  0.00  0.00    +0.000 HD
ENDBRANCH  20  21
ENDBRANCH  18  20
ENDBRANCH  17  18
ENDBRANCH  15  17
ENDBRANCH  14  16
ENDBRANCH  13  14
ENDBRANCH   1  13
BRANCH   2  23
ATOM     23  O   UNL     1       3.031   6.450  17.907  0.00  0.00    +0.000 OA
BRANCH  23  24
ATOM     24  C   UNL     1       2.320   6.836  19.065  0.00  0.00    +0.000 C 
BRANCH  24  25
ATOM     25  C   UNL     1       1.865   8.246  19.201  0.00  0.00    +0.000 A 
ATOM     26  C   UNL     1       1.816   9.098  18.098  0.00  0.00    +0.000 A 
ATOM     27  C   UNL     1       1.238  10.359  18.226  0.00  0.00    +0.000 A 
ATOM     28  C   UNL     1       0.689  10.787  19.447  0.00  0.00    +0.000 A 
ATOM     29  C   UNL     1       0.666   9.879  20.516  0.00  0.00    +0.000 A 
ATOM     30  C   UNL     1       1.246   8.625  20.399  0.00  0.00    +0.000 A 
BRANCH  28  31
ATOM     31  C   UNL     1       0.194  12.162  19.627  0.00  0.00    +0.000 A 
ATOM     32  C   UNL     1      -0.612  12.525  20.719  0.00  0.00    +0.000 A 
ATOM     33  C   UNL     1      -1.152  13.812  20.815  0.00  0.00    +0.000 A 
ATOM     34  C   UNL     1      -0.878  14.761  19.835  0.00  0.00    +0.000 A 
ATOM     35  C   UNL     1      -0.067  14.430  18.756  0.00  0.00    +0.000 A 
ATOM     36  C   UNL     1       0.453  13.141  18.653  0.00  0.00    +0.000 A 
ENDBRANCH  28  31
ENDBRANCH  24  25
ENDBRANCH  23  24
ENDBRANCH   2  23
TORSDOF 12
ENDMDL
