MODEL 1
REMARK VINA RESULT:      -7.6      0.000      0.000
REMARK  Name = 
REMARK  10 active torsions:
REMARK  status: ('A' for Active; 'I' for Inactive)
REMARK    1  A    between atoms: C_1  and  C_2
REMARK    2  A    between atoms: C_2  and  O_3
REMARK    3  A    between atoms: O_3  and  C_4
REMARK    4  A    between atoms: C_4  and  C_6
REMARK    5  A    between atoms: C_7  and  C_8
REMARK    6  A    between atoms: C_8  and  S_9
REMARK    7  A    between atoms: S_9  and  C_10
REMARK    8  A    between atoms: C_13  and  C_14
REMARK    9  A    between atoms: N_20  and  C_21
REMARK   10  A    between atoms: C_25  and  O_26
REMARK                            x       y       z     vdW  Elec       q    Type
REMARK                         _______ _______ _______ _____ _____    ______ ____
ROOT
ATOM      1  C   UNL     1       6.162   4.776  18.147  0.00  0.00    +0.000 A 
ATOM      2  C   UNL     1       5.054   4.000  18.501  0.00  0.00    +0.000 A 
ATOM      3  N   UNL     1       4.589   3.410  17.338  0.00  0.00    +0.000 N 
ATOM      4  C   UNL     1       3.456   2.518  17.191  0.00  0.00    +0.000 C 
ATOM      5  C   UNL     1       5.340   3.813  16.248  0.00  0.00    +0.000 A 
ATOM      6  C   UNL     1       5.211   3.511  14.878  0.00  0.00    +0.000 A 
ATOM      7  C   UNL     1       6.111   4.085  13.975  0.00  0.00    +0.000 A 
ATOM      8  C   UNL     1       7.107   4.931  14.433  0.00  0.00    +0.000 A 
ATOM      9  C   UNL     1       7.234   5.224  15.789  0.00  0.00    +0.000 A 
ATOM     10  C   UNL     1       6.339   4.656  16.725  0.00  0.00    +0.000 A 
ENDROOT
BRANCH   1  11
ATOM     11  C   UNL     1       6.939   5.632  19.043  0.00  0.00    +0.000 C 
ATOM     12  O   UNL     1       7.417   5.256  20.103  0.00  0.00    +0.000 OA
BRANCH  11  13
ATOM     13  O   UNL     1       6.977   6.924  18.602  0.00  0.00    +0.000 OA
BRANCH  13  15
ATOM     14  C   UNL     1       8.106   8.879  17.832  0.00  0.00    +0.000 C 
ATOM     15  C   UNL     1       8.273   7.520  18.492  0.00  0.00    +0.000 C 
ENDBRANCH  13  15
ENDBRANCH  11  13
ENDBRANCH   1  11
BRANCH   8  16
ATOM     16  O   UNL     1       7.998   5.517  13.581  0.00  0.00    +0.000 OA
ATOM     17  H   UNL     1       7.831   6.473  13.569  0.00  0.00    +0.000 HD
ENDBRANCH   8  16
BRANCH   2  18
ATOM     18  C   UNL     1       4.416   3.826  19.857  0.00  0.00    +0.000 C 
BRANCH  18  19
ATOM     19  S   UNL     1       2.597   3.985  19.758  0.00  0.00    +0.000 S 
BRANCH  19  20
ATOM     20  C   UNL     1       2.325   5.745  19.515  0.00  0.00    +0.000 A 
ATOM     21  C   UNL     1       1.943   6.640  20.520  0.00  0.00    +0.000 A 
ATOM     22  C   UNL     1       1.696   7.991  20.226  0.00  0.00    +0.000 A 
ATOM     23  C   UNL     1       1.829   8.477  18.918  0.00  0.00    +0.000 A 
ATOM     24  C   UNL     1       2.267   7.598  17.922  0.00  0.00    +0.000 A 
ATOM     25  C   UNL     1       2.510   6.249  18.220  0.00  0.00    +0.000 A 
BRANCH  23  26
ATOM     26  C   UNL     1       1.480   9.907  18.570  0.00  0.00    +0.000 C 
ATOM     27  F   UNL     1       1.253  10.694  19.660  0.00  0.00    +0.000 F 
ATOM     28  F   UNL     1       2.457  10.531  17.858  0.00  0.00    +0.000 F 
ATOM     29  F   UNL     1       0.352   9.994  17.810  0.00  0.00    +0.000 F 
ENDBRANCH  23  26
ENDBRANCH  19  20
ENDBRANCH  18  19
ENDBRANCH   2  18
TORSDOF 8
ENDMDL
MODEL 2
REMARK VINA RESULT:      -7.6      3.848      6.435
REMARK  Name = 
REMARK  10 active torsions:
REMARK  status: ('A' for Active; 'I' for Inactive)
REMARK    1  A    between atoms: C_1  and  C_2
REMARK    2  A    between atoms: C_2  and  O_3
REMARK    3  A    between atoms: O_3  and  C_4
REMARK    4  A    between atoms: C_4  and  C_6
REMARK    5  A    between atoms: C_7  and  C_8
REMARK    6  A    between atoms: C_8  and  S_9
REMARK    7  A    between atoms: S_9  and  C_10
REMARK    8  A    between atoms: C_13  and  C_14
REMARK    9  A    between atoms: N_20  and  C_21
REMARK   10  A    between atoms: C_25  and  O_26
REMARK                            x       y       z     vdW  Elec       q    Type
REMARK                         _______ _______ _______ _____ _____    ______ ____
ROOT
ATOM      1  C   UNL     1       5.655   5.050  17.043  0.00  0.00    +0.000 A 
ATOM      2  C   UNL     1       5.507   6.434  17.174  0.00  0.00    +0.000 A 
ATOM      3  N   UNL     1       4.209   6.662  17.598  0.00  0.00    +0.000 N 
ATOM      4  C   UNL     1       3.578   7.937  17.872  0.00  0.00    +0.000 C 
ATOM      5  C   UNL     1       3.512   5.470  17.707  0.00  0.00    +0.000 A 
ATOM      6  C   UNL     1       2.171   5.216  18.056  0.00  0.00    +0.000 A 
ATOM      7  C   UNL     1       1.717   3.894  18.063  0.00  0.00    +0.000 A 
ATOM      8  C   UNL     1       2.581   2.864  17.734  0.00  0.00    +0.000 A 
ATOM      9  C   UNL     1       3.908   3.118  17.394  0.00  0.00    +0.000 A 
ATOM     10  C   UNL     1       4.395   4.446  17.380  0.00  0.00    +0.000 A 
ENDROOT
BRANCH   1  11
ATOM     11  C   UNL     1       6.845   4.350  16.558  0.00  0.00    +0.000 C 
ATOM     12  O   UNL     1       7.931   4.383  17.114  0.00  0.00    +0.000 OA
BRANCH  11  13
ATOM     13  O   UNL     1       6.618   3.743  15.356  0.00  0.00    +0.000 OA
BRANCH  13  15
ATOM     14  C   UNL     1       6.227   3.750  13.003  0.00  0.00    +0.000 C 
ATOM     15  C   UNL     1       6.622   4.593  14.204  0.00  0.00    +0.000 C 
ENDBRANCH  13  15
ENDBRANCH  11  13
ENDBRANCH   1  11
BRANCH   8  16
ATOM     16  O   UNL     1       2.172   1.561  17.723  0.00  0.00    +0.000 OA
ATOM     17  H   UNL     1       1.914   1.327  16.816  0.00  0.00    +0.000 HD
ENDBRANCH   8  16
BRANCH   2  18
ATOM     18  C   UNL     1       6.511   7.524  16.888  0.00  0.00    +0.000 C 
BRANCH  18  19
ATOM     19  S   UNL     1       7.865   7.516  18.117  0.00  0.00    +0.000 S 
BRANCH  19  20
ATOM     20  C   UNL     1       8.337   9.245  18.256  0.00  0.00    +0.000 A 
ATOM     21  C   UNL     1       7.862  10.271  17.432  0.00  0.00    +0.000 A 
ATOM     22  C   UNL     1       8.332  11.587  17.576  0.00  0.00    +0.000 A 
ATOM     23  C   UNL     1       9.286  11.906  18.552  0.00  0.00    +0.000 A 
ATOM     24  C   UNL     1       9.719  10.894  19.417  0.00  0.00    +0.000 A 
ATOM     25  C   UNL     1       9.249   9.581  19.267  0.00  0.00    +0.000 A 
BRANCH  23  26
ATOM     26  C   UNL     1       9.867  13.298  18.660  0.00  0.00    +0.000 C 
ATOM     27  F   UNL     1       9.723  14.040  17.526  0.00  0.00    +0.000 F 
ATOM     28  F   UNL     1       9.300  14.031  19.658  0.00  0.00    +0.000 F 
ATOM     29  F   UNL     1      11.203  13.282  18.924  0.00  0.00    +0.000 F 
ENDBRANCH  23  26
ENDBRANCH  19  20
ENDBRANCH  18  19
ENDBRANCH   2  18
TORSDOF 8
ENDMDL
MODEL 3
REMARK VINA RESULT:      -7.3      4.616      7.718
REMARK  Name = 
REMARK  10 active torsions:
REMARK  status: ('A' for Active; 'I' for Inactive)
REMARK    1  A    between atoms: C_1  and  C_2
REMARK    2  A    between atoms: C_2  and  O_3
REMARK    3  A    between atoms: O_3  and  C_4
REMARK    4  A    between atoms: C_4  and  C_6
REMARK    5  A    between atoms: C_7  and  C_8
REMARK    6  A    between atoms: C_8  and  S_9
REMARK    7  A    between atoms: S_9  and  C_10
REMARK    8  A    between atoms: C_13  and  C_14
REMARK    9  A    between atoms: N_20  and  C_21
REMARK   10  A    between atoms: C_25  and  O_26
REMARK                            x       y       z     vdW  Elec       q    Type
REMARK                         _______ _______ _______ _____ _____    ______ ____
ROOT
ATOM      1  C   UNL     1       2.251   5.534  20.327  0.00  0.00    +0.000 A 
ATOM      2  C   UNL     1       3.062   5.525  19.187  0.00  0.00    +0.000 A 
ATOM      3  N   UNL     1       3.020   6.803  18.655  0.00  0.00    +0.000 N 
ATOM      4  C   UNL     1       3.697   7.290  17.470  0.00  0.00    +0.000 C 
ATOM      5  C   UNL     1       2.180   7.617  19.396  0.00  0.00    +0.000 A 
ATOM      6  C   UNL     1       1.800   8.960  19.210  0.00  0.00    +0.000 A 
ATOM      7  C   UNL     1       0.903   9.536  20.114  0.00  0.00    +0.000 A 
ATOM      8  C   UNL     1       0.408   8.790  21.169  0.00  0.00    +0.000 A 
ATOM      9  C   UNL     1       0.790   7.463  21.353  0.00  0.00    +0.000 A 
ATOM     10  C   UNL     1       1.697   6.854  20.455  0.00  0.00    +0.000 A 
ENDROOT
BRANCH   1  11
ATOM     11  C   UNL     1       1.945   4.384  21.178  0.00  0.00    +0.000 C 
ATOM     12  O   UNL     1       2.566   4.097  22.189  0.00  0.00    +0.000 OA
BRANCH  11  13
ATOM     13  O   UNL     1       0.948   3.615  20.647  0.00  0.00    +0.000 OA
BRANCH  13  15
ATOM     14  C   UNL     1       0.781   2.240  18.705  0.00  0.00    +0.000 C 
ATOM     15  C   UNL     1       1.340   2.346  20.115  0.00  0.00    +0.000 C 
ENDBRANCH  13  15
ENDBRANCH  11  13
ENDBRANCH   1  11
BRANCH   8  16
ATOM     16  O   UNL     1      -0.475   9.316  22.067  0.00  0.00    +0.000 OA
ATOM     17  H   UNL     1      -0.474   8.760  22.864  0.00  0.00    +0.000 HD
ENDBRANCH   8  16
BRANCH   2  18
ATOM     18  C   UNL     1       3.827   4.376  18.580  0.00  0.00    +0.000 C 
BRANCH  18  19
ATOM     19  S   UNL     1       5.574   4.827  18.281  0.00  0.00    +0.000 S 
BRANCH  19  20
ATOM     20  C   UNL     1       5.786   4.602  16.511  0.00  0.00    +0.000 A 
ATOM     21  C   UNL     1       4.771   4.218  15.628  0.00  0.00    +0.000 A 
ATOM     22  C   UNL     1       5.042   4.009  14.265  0.00  0.00    +0.000 A 
ATOM     23  C   UNL     1       6.335   4.184  13.755  0.00  0.00    +0.000 A 
ATOM     24  C   UNL     1       7.340   4.625  14.624  0.00  0.00    +0.000 A 
ATOM     25  C   UNL     1       7.065   4.830  15.984  0.00  0.00    +0.000 A 
BRANCH  23  26
ATOM     26  C   UNL     1       6.661   3.876  12.311  0.00  0.00    +0.000 C 
ATOM     27  F   UNL     1       7.239   2.655  12.129  0.00  0.00    +0.000 F 
ATOM     28  F   UNL     1       5.562   3.891  11.507  0.00  0.00    +0.000 F 
ATOM     29  F   UNL     1       7.527   4.779  11.772  0.00  0.00    +0.000 F 
ENDBRANCH  23  26
ENDBRANCH  19  20
ENDBRANCH  18  19
ENDBRANCH   2  18
TORSDOF 8
ENDMDL
MODEL 4
REMARK VINA RESULT:      -7.3      3.718      6.253
REMARK  Name = 
REMARK  10 active torsions:
REMARK  status: ('A' for Active; 'I' for Inactive)
REMARK    1  A    between atoms: C_1  and  C_2
REMARK    2  A    between atoms: C_2  and  O_3
REMARK    3  A    between atoms: O_3  and  C_4
REMARK    4  A    between atoms: C_4  and  C_6
REMARK    5  A    between atoms: C_7  and  C_8
REMARK    6  A    between atoms: C_8  and  S_9
REMARK    7  A    between atoms: S_9  and  C_10
REMARK    8  A    between atoms: C_13  and  C_14
REMARK    9  A    between atoms: N_20  and  C_21
REMARK   10  A    between atoms: C_25  and  O_26
REMARK                            x       y       z     vdW  Elec       q    Type
REMARK                         _______ _______ _______ _____ _____    ______ ____
ROOT
ATOM      1  C   UNL     1       5.716   5.074  17.294  0.00  0.00    +0.000 A 
ATOM      2  C   UNL     1       5.533   6.460  17.320  0.00  0.00    +0.000 A 
ATOM      3  N   UNL     1       4.196   6.684  17.603  0.00  0.00    +0.000 N 
ATOM      4  C   UNL     1       3.520   7.959  17.732  0.00  0.00    +0.000 C 
ATOM      5  C   UNL     1       3.512   5.485  17.723  0.00  0.00    +0.000 A 
ATOM      6  C   UNL     1       2.148   5.223  17.960  0.00  0.00    +0.000 A 
ATOM      7  C   UNL     1       1.719   3.894  18.011  0.00  0.00    +0.000 A 
ATOM      8  C   UNL     1       2.628   2.865  17.834  0.00  0.00    +0.000 A 
ATOM      9  C   UNL     1       3.976   3.128  17.604  0.00  0.00    +0.000 A 
ATOM     10  C   UNL     1       4.440   4.463  17.549  0.00  0.00    +0.000 A 
ENDROOT
BRANCH   1  11
ATOM     11  C   UNL     1       6.958   4.373  16.971  0.00  0.00    +0.000 C 
ATOM     12  O   UNL     1       7.956   4.389  17.675  0.00  0.00    +0.000 OA
BRANCH  11  13
ATOM     13  O   UNL     1       6.901   3.786  15.739  0.00  0.00    +0.000 OA
BRANCH  13  15
ATOM     14  C   UNL     1       6.209   3.865  13.457  0.00  0.00    +0.000 C 
ATOM     15  C   UNL     1       6.769   4.668  14.620  0.00  0.00    +0.000 C 
ENDBRANCH  13  15
ENDBRANCH  11  13
ENDBRANCH   1  11
BRANCH   8  16
ATOM     16  O   UNL     1       2.244   1.556  17.869  0.00  0.00    +0.000 OA
ATOM     17  H   UNL     1       1.553   1.454  18.544  0.00  0.00    +0.000 HD
ENDBRANCH   8  16
BRANCH   2  18
ATOM     18  C   UNL     1       6.540   7.552  17.059  0.00  0.00    +0.000 C 
BRANCH  18  19
ATOM     19  S   UNL     1       7.904   7.500  18.277  0.00  0.00    +0.000 S 
BRANCH  19  20
ATOM     20  C   UNL     1       8.451   9.208  18.392  0.00  0.00    +0.000 A 
ATOM     21  C   UNL     1       9.367   9.691  19.333  0.00  0.00    +0.000 A 
ATOM     22  C   UNL     1       9.693  11.056  19.386  0.00  0.00    +0.000 A 
ATOM     23  C   UNL     1       9.111  11.969  18.495  0.00  0.00    +0.000 A 
ATOM     24  C   UNL     1       8.240  11.480  17.515  0.00  0.00    +0.000 A 
ATOM     25  C   UNL     1       7.916  10.117  17.468  0.00  0.00    +0.000 A 
BRANCH  23  26
ATOM     26  C   UNL     1       9.383  13.453  18.598  0.00  0.00    +0.000 C 
ATOM     27  F   UNL     1      10.051  13.961  17.525  0.00  0.00    +0.000 F 
ATOM     28  F   UNL     1       8.246  14.192  18.713  0.00  0.00    +0.000 F 
ATOM     29  F   UNL     1      10.141  13.765  19.687  0.00  0.00    +0.000 F 
ENDBRANCH  23  26
ENDBRANCH  19  20
ENDBRANCH  18  19
ENDBRANCH   2  18
TORSDOF 8
ENDMDL
MODEL 5
REMARK VINA RESULT:      -7.3      2.102      3.441
REMARK  Name = 
REMARK  10 active torsions:
REMARK  status: ('A' for Active; 'I' for Inactive)
REMARK    1  A    between atoms: C_1  and  C_2
REMARK    2  A    between atoms: C_2  and  O_3
REMARK    3  A    between atoms: O_3  and  C_4
REMARK    4  A    between atoms: C_4  and  C_6
REMARK    5  A    between atoms: C_7  and  C_8
REMARK    6  A    between atoms: C_8  and  S_9
REMARK    7  A    between atoms: S_9  and  C_10
REMARK    8  A    between atoms: C_13  and  C_14
REMARK    9  A    between atoms: N_20  and  C_21
REMARK   10  A    between atoms: C_25  and  O_26
REMARK                            x       y       z     vdW  Elec       q    Type
REMARK                         _______ _______ _______ _____ _____    ______ ____
ROOT
ATOM      1  C   UNL     1       4.372   4.248  16.978  0.00  0.00    +0.000 A 
ATOM      2  C   UNL     1       4.853   5.225  17.855  0.00  0.00    +0.000 A 
ATOM      3  N   UNL     1       5.907   5.855  17.215  0.00  0.00    +0.000 N 
ATOM      4  C   UNL     1       6.731   6.935  17.720  0.00  0.00    +0.000 C 
ATOM      5  C   UNL     1       6.139   5.287  15.973  0.00  0.00    +0.000 A 
ATOM      6  C   UNL     1       7.120   5.566  15.002  0.00  0.00    +0.000 A 
ATOM      7  C   UNL     1       7.135   4.808  13.827  0.00  0.00    +0.000 A 
ATOM      8  C   UNL     1       6.198   3.808  13.634  0.00  0.00    +0.000 A 
ATOM      9  C   UNL     1       5.226   3.539  14.595  0.00  0.00    +0.000 A 
ATOM     10  C   UNL     1       5.185   4.290  15.793  0.00  0.00    +0.000 A 
ENDROOT
BRANCH   1  11
ATOM     11  C   UNL     1       3.300   3.292  17.255  0.00  0.00    +0.000 C 
ATOM     12  O   UNL     1       2.115   3.520  17.067  0.00  0.00    +0.000 OA
BRANCH  11  13
ATOM     13  O   UNL     1       3.776   2.155  17.844  0.00  0.00    +0.000 OA
BRANCH  13  15
ATOM     14  C   UNL     1       4.401   2.112  20.145  0.00  0.00    +0.000 C 
ATOM     15  C   UNL     1       3.278   1.861  19.153  0.00  0.00    +0.000 C 
ENDBRANCH  13  15
ENDBRANCH  11  13
ENDBRANCH   1  11
BRANCH   8  16
ATOM     16  O   UNL     1       6.188   3.043  12.504  0.00  0.00    +0.000 OA
ATOM     17  H   UNL     1       5.800   2.179  12.720  0.00  0.00    +0.000 HD
ENDBRANCH   8  16
BRANCH   2  18
ATOM     18  C   UNL     1       4.388   5.554  19.251  0.00  0.00    +0.000 C 
BRANCH  18  19
ATOM     19  S   UNL     1       2.562   5.528  19.365  0.00  0.00    +0.000 S 
BRANCH  19  20
ATOM     20  C   UNL     1       2.099   7.265  19.331  0.00  0.00    +0.000 A 
ATOM     21  C   UNL     1       1.566   7.970  20.416  0.00  0.00    +0.000 A 
ATOM     22  C   UNL     1       1.177   9.313  20.282  0.00  0.00    +0.000 A 
ATOM     23  C   UNL     1       1.316   9.981  19.058  0.00  0.00    +0.000 A 
ATOM     24  C   UNL     1       1.903   9.297  17.987  0.00  0.00    +0.000 A 
ATOM     25  C   UNL     1       2.287   7.956  18.126  0.00  0.00    +0.000 A 
BRANCH  23  26
ATOM     26  C   UNL     1       0.819  11.398  18.874  0.00  0.00    +0.000 C 
ATOM     27  F   UNL     1       0.602  12.057  20.046  0.00  0.00    +0.000 F 
ATOM     28  F   UNL     1       1.685  12.173  18.166  0.00  0.00    +0.000 F 
ATOM     29  F   UNL     1      -0.363  11.448  18.198  0.00  0.00    +0.000 F 
ENDBRANCH  23  26
ENDBRANCH  19  20
ENDBRANCH  18  19
ENDBRANCH   2  18
TORSDOF 8
ENDMDL
MODEL 6
REMARK VINA RESULT:      -7.2      2.150      3.717
REMARK  Name = 
REMARK  10 active torsions:
REMARK  status: ('A' for Active; 'I' for Inactive)
REMARK    1  A    between atoms: C_1  and  C_2
REMARK    2  A    between atoms: C_2  and  O_3
REMARK    3  A    between atoms: O_3  and  C_4
REMARK    4  A    between atoms: C_4  and  C_6
REMARK    5  A    between atoms: C_7  and  C_8
REMARK    6  A    between atoms: C_8  and  S_9
REMARK    7  A    between atoms: S_9  and  C_10
REMARK    8  A    between atoms: C_13  and  C_14
REMARK    9  A    between atoms: N_20  and  C_21
REMARK   10  A    between atoms: C_25  and  O_26
REMARK                            x       y       z     vdW  Elec       q    Type
REMARK                         _______ _______ _______ _____ _____    ______ ____
ROOT
ATOM      1  C   UNL     1       4.373   4.322  17.105  0.00  0.00    +0.000 A 
ATOM      2  C   UNL     1       4.794   5.376  17.922  0.00  0.00    +0.000 A 
ATOM      3  N   UNL     1       5.804   6.033  17.241  0.00  0.00    +0.000 N 
ATOM      4  C   UNL     1       6.559   7.191  17.679  0.00  0.00    +0.000 C 
ATOM      5  C   UNL     1       6.067   5.412  16.032  0.00  0.00    +0.000 A 
ATOM      6  C   UNL     1       7.025   5.697  15.039  0.00  0.00    +0.000 A 
ATOM      7  C   UNL     1       7.085   4.877  13.909  0.00  0.00    +0.000 A 
ATOM      8  C   UNL     1       6.213   3.811  13.779  0.00  0.00    +0.000 A 
ATOM      9  C   UNL     1       5.263   3.535  14.760  0.00  0.00    +0.000 A 
ATOM     10  C   UNL     1       5.178   4.348  15.914  0.00  0.00    +0.000 A 
ENDROOT
BRANCH   1  11
ATOM     11  C   UNL     1       3.365   3.317  17.442  0.00  0.00    +0.000 C 
ATOM     12  O   UNL     1       2.256   3.264  16.933  0.00  0.00    +0.000 OA
BRANCH  11  13
ATOM     13  O   UNL     1       3.777   2.513  18.466  0.00  0.00    +0.000 OA
BRANCH  13  15
ATOM     14  C   UNL     1       3.133   2.495  20.763  0.00  0.00    +0.000 C 
ATOM     15  C   UNL     1       2.759   2.050  19.359  0.00  0.00    +0.000 C 
ENDBRANCH  13  15
ENDBRANCH  11  13
ENDBRANCH   1  11
BRANCH   8  16
ATOM     16  O   UNL     1       6.248   2.984  12.693  0.00  0.00    +0.000 OA
ATOM     17  H   UNL     1       6.753   2.188  12.928  0.00  0.00    +0.000 HD
ENDBRANCH   8  16
BRANCH   2  18
ATOM     18  C   UNL     1       4.313   5.753  19.301  0.00  0.00    +0.000 C 
BRANCH  18  19
ATOM     19  S   UNL     1       2.486   5.792  19.378  0.00  0.00    +0.000 S 
BRANCH  19  20
ATOM     20  C   UNL     1       2.075   7.520  19.107  0.00  0.00    +0.000 A 
ATOM     21  C   UNL     1       2.325   8.225  17.924  0.00  0.00    +0.000 A 
ATOM     22  C   UNL     1       2.022   9.592  17.822  0.00  0.00    +0.000 A 
ATOM     23  C   UNL     1       1.458  10.286  18.902  0.00  0.00    +0.000 A 
ATOM     24  C   UNL     1       1.153   9.571  20.066  0.00  0.00    +0.000 A 
ATOM     25  C   UNL     1       1.459   8.206  20.164  0.00  0.00    +0.000 A 
BRANCH  23  26
ATOM     26  C   UNL     1       1.210  11.776  18.838  0.00  0.00    +0.000 C 
ATOM     27  F   UNL     1      -0.008  12.105  18.323  0.00  0.00    +0.000 F 
ATOM     28  F   UNL     1       1.272  12.375  20.058  0.00  0.00    +0.000 F 
ATOM     29  F   UNL     1       2.125  12.420  18.060  0.00  0.00    +0.000 F 
ENDBRANCH  23  26
ENDBRANCH  19  20
ENDBRANCH  18  19
ENDBRANCH   2  18
TORSDOF 8
ENDMDL
MODEL 7
REMARK VINA RESULT:      -7.1      0.630      1.297
REMARK  Name = 
REMARK  10 active torsions:
REMARK  status: ('A' for Active; 'I' for Inactive)
REMARK    1  A    between atoms: C_1  and  C_2
REMARK    2  A    between atoms: C_2  and  O_3
REMARK    3  A    between atoms: O_3  and  C_4
REMARK    4  A    between atoms: C_4  and  C_6
REMARK    5  A    between atoms: C_7  and  C_8
REMARK    6  A    between atoms: C_8  and  S_9
REMARK    7  A    between atoms: S_9  and  C_10
REMARK    8  A    between atoms: C_13  and  C_14
REMARK    9  A    between atoms: N_20  and  C_21
REMARK   10  A    between atoms: C_25  and  O_26
REMARK                            x       y       z     vdW  Elec       q    Type
REMARK                         _______ _______ _______ _____ _____    ______ ____
ROOT
ATOM      1  C   UNL     1       6.588   5.085  17.674  0.00  0.00    +0.000 A 
ATOM      2  C   UNL     1       5.423   4.530  18.214  0.00  0.00    +0.000 A 
ATOM      3  N   UNL     1       4.740   3.934  17.167  0.00  0.00    +0.000 N 
ATOM      4  C   UNL     1       3.475   3.229  17.224  0.00  0.00    +0.000 C 
ATOM      5  C   UNL     1       5.412   4.122  15.971  0.00  0.00    +0.000 A 
ATOM      6  C   UNL     1       5.079   3.738  14.658  0.00  0.00    +0.000 A 
ATOM      7  C   UNL     1       5.945   4.085  13.616  0.00  0.00    +0.000 A 
ATOM      8  C   UNL     1       7.104   4.791  13.885  0.00  0.00    +0.000 A 
ATOM      9  C   UNL     1       7.433   5.165  15.186  0.00  0.00    +0.000 A 
ATOM     10  C   UNL     1       6.577   4.826  16.260  0.00  0.00    +0.000 A 
ENDROOT
BRANCH   1  11
ATOM     11  C   UNL     1       7.586   5.871  18.399  0.00  0.00    +0.000 C 
ATOM     12  O   UNL     1       8.089   5.528  19.458  0.00  0.00    +0.000 OA
BRANCH  11  13
ATOM     13  O   UNL     1       7.809   7.079  17.802  0.00  0.00    +0.000 OA
BRANCH  13  15
ATOM     14  C   UNL     1       8.194   9.429  17.954  0.00  0.00    +0.000 C 
ATOM     15  C   UNL     1       8.442   8.079  18.607  0.00  0.00    +0.000 C 
ENDBRANCH  13  15
ENDBRANCH  11  13
ENDBRANCH   1  11
BRANCH   8  16
ATOM     16  O   UNL     1       7.969   5.154  12.894  0.00  0.00    +0.000 OA
ATOM     17  H   UNL     1       8.198   4.363  12.379  0.00  0.00    +0.000 HD
ENDBRANCH   8  16
BRANCH   2  18
ATOM     18  C   UNL     1       4.928   4.571  19.638  0.00  0.00    +0.000 C 
BRANCH  18  19
ATOM     19  S   UNL     1       3.105   4.455  19.710  0.00  0.00    +0.000 S 
BRANCH  19  20
ATOM     20  C   UNL     1       2.547   6.121  19.333  0.00  0.00    +0.000 A 
ATOM     21  C   UNL     1       2.646   6.733  18.078  0.00  0.00    +0.000 A 
ATOM     22  C   UNL     1       2.237   8.063  17.890  0.00  0.00    +0.000 A 
ATOM     23  C   UNL     1       1.714   8.811  18.954  0.00  0.00    +0.000 A 
ATOM     24  C   UNL     1       1.558   8.184  20.196  0.00  0.00    +0.000 A 
ATOM     25  C   UNL     1       1.971   6.857  20.379  0.00  0.00    +0.000 A 
BRANCH  23  26
ATOM     26  C   UNL     1       1.353  10.270  18.788  0.00  0.00    +0.000 C 
ATOM     27  F   UNL     1       0.137  10.468  18.204  0.00  0.00    +0.000 F 
ATOM     28  F   UNL     1       1.311  10.941  19.971  0.00  0.00    +0.000 F 
ATOM     29  F   UNL     1       2.250  10.940  18.011  0.00  0.00    +0.000 F 
ENDBRANCH  23  26
ENDBRANCH  19  20
ENDBRANCH  18  19
ENDBRANCH   2  18
TORSDOF 8
ENDMDL
MODEL 8
REMARK VINA RESULT:      -7.0      5.555      9.460
REMARK  Name = 
REMARK  10 active torsions:
REMARK  status: ('A' for Active; 'I' for Inactive)
REMARK    1  A    between atoms: C_1  and  C_2
REMARK    2  A    between atoms: C_2  and  O_3
REMARK    3  A    between atoms: O_3  and  C_4
REMARK    4  A    between atoms: C_4  and  C_6
REMARK    5  A    between atoms: C_7  and  C_8
REMARK    6  A    between atoms: C_8  and  S_9
REMARK    7  A    between atoms: S_9  and  C_10
REMARK    8  A    between atoms: C_13  and  C_14
REMARK    9  A    between atoms: N_20  and  C_21
REMARK   10  A    between atoms: C_25  and  O_26
REMARK                            x       y       z     vdW  Elec       q    Type
REMARK                         _______ _______ _______ _____ _____    ______ ____
ROOT
ATOM      1  C   UNL     1      -0.606  10.632  19.706  0.00  0.00    +0.000 A 
ATOM      2  C   UNL     1      -0.449   9.809  20.825  0.00  0.00    +0.000 A 
ATOM      3  N   UNL     1      -0.659  10.602  21.940  0.00  0.00    +0.000 N 
ATOM      4  C   UNL     1      -0.604  10.205  23.332  0.00  0.00    +0.000 C 
ATOM      5  C   UNL     1      -0.908  11.913  21.570  0.00  0.00    +0.000 A 
ATOM      6  C   UNL     1      -1.132  13.064  22.352  0.00  0.00    +0.000 A 
ATOM      7  C   UNL     1      -1.338  14.286  21.705  0.00  0.00    +0.000 A 
ATOM      8  C   UNL     1      -1.321  14.349  20.322  0.00  0.00    +0.000 A 
ATOM      9  C   UNL     1      -1.104  13.209  19.552  0.00  0.00    +0.000 A 
ATOM     10  C   UNL     1      -0.895  11.958  20.180  0.00  0.00    +0.000 A 
ENDROOT
BRANCH   1  11
ATOM     11  C   UNL     1      -0.414  10.238  18.310  0.00  0.00    +0.000 C 
ATOM     12  O   UNL     1       0.601   9.711  17.881  0.00  0.00    +0.000 OA
BRANCH  11  13
ATOM     13  O   UNL     1      -1.465  10.624  17.527  0.00  0.00    +0.000 OA
BRANCH  13  15
ATOM     14  C   UNL     1      -3.841  10.606  17.318  0.00  0.00    +0.000 C 
ATOM     15  C   UNL     1      -2.599   9.751  17.510  0.00  0.00    +0.000 C 
ENDBRANCH  13  15
ENDBRANCH  11  13
ENDBRANCH   1  11
BRANCH   8  16
ATOM     16  O   UNL     1      -1.510  15.525  19.656  0.00  0.00    +0.000 OA
ATOM     17  H   UNL     1      -0.715  16.072  19.764  0.00  0.00    +0.000 HD
ENDBRANCH   8  16
BRANCH   2  18
ATOM     18  C   UNL     1      -0.085   8.346  20.879  0.00  0.00    +0.000 C 
BRANCH  18  19
ATOM     19  S   UNL     1       1.724   8.108  20.745  0.00  0.00    +0.000 S 
BRANCH  19  20
ATOM     20  C   UNL     1       1.896   6.469  20.028  0.00  0.00    +0.000 A 
ATOM     21  C   UNL     1       2.457   6.200  18.774  0.00  0.00    +0.000 A 
ATOM     22  C   UNL     1       2.497   4.891  18.269  0.00  0.00    +0.000 A 
ATOM     23  C   UNL     1       1.979   3.819  19.008  0.00  0.00    +0.000 A 
ATOM     24  C   UNL     1       1.470   4.076  20.286  0.00  0.00    +0.000 A 
ATOM     25  C   UNL     1       1.430   5.385  20.786  0.00  0.00    +0.000 A 
BRANCH  23  26
ATOM     26  C   UNL     1       1.934   2.419  18.439  0.00  0.00    +0.000 C 
ATOM     27  F   UNL     1       2.351   2.341  17.144  0.00  0.00    +0.000 F 
ATOM     28  F   UNL     1       2.710   1.542  19.133  0.00  0.00    +0.000 F 
ATOM     29  F   UNL     1       0.676   1.894  18.454  0.00  0.00    +0.000 F 
ENDBRANCH  23  26
ENDBRANCH  19  20
ENDBRANCH  18  19
ENDBRANCH   2  18
TORSDOF 8
ENDMDL
MODEL 9
REMARK VINA RESULT:      -6.9      6.597     10.341
REMARK  Name = 
REMARK  10 active torsions:
REMARK  status: ('A' for Active; 'I' for Inactive)
REMARK    1  A    between atoms: C_1  and  C_2
REMARK    2  A    between atoms: C_2  and  O_3
REMARK    3  A    between atoms: O_3  and  C_4
REMARK    4  A    between atoms: C_4  and  C_6
REMARK    5  A    between atoms: C_7  and  C_8
REMARK    6  A    between atoms: C_8  and  S_9
REMARK    7  A    between atoms: S_9  and  C_10
REMARK    8  A    between atoms: C_13  and  C_14
REMARK    9  A    between atoms: N_20  and  C_21
REMARK   10  A    between atoms: C_25  and  O_26
REMARK                            x       y       z     vdW  Elec       q    Type
REMARK                         _______ _______ _______ _____ _____    ______ ____
ROOT
ATOM      1  C   UNL     1      -2.455  12.303  19.784  0.00  0.00    +0.000 A 
ATOM      2  C   UNL     1      -1.656  11.567  18.904  0.00  0.00    +0.000 A 
ATOM      3  N   UNL     1      -2.501  11.032  17.946  0.00  0.00    +0.000 N 
ATOM      4  C   UNL     1      -2.144  10.191  16.822  0.00  0.00    +0.000 C 
ATOM      5  C   UNL     1      -3.818  11.373  18.207  0.00  0.00    +0.000 A 
ATOM      6  C   UNL     1      -5.008  11.024  17.540  0.00  0.00    +0.000 A 
ATOM      7  C   UNL     1      -6.223  11.499  18.043  0.00  0.00    +0.000 A 
ATOM      8  C   UNL     1      -6.241  12.296  19.174  0.00  0.00    +0.000 A 
ATOM      9  C   UNL     1      -5.061  12.642  19.829  0.00  0.00    +0.000 A 
ATOM     10  C   UNL     1      -3.817  12.178  19.342  0.00  0.00    +0.000 A 
ENDROOT
BRANCH   1  11
ATOM     11  C   UNL     1      -2.000  12.994  20.991  0.00  0.00    +0.000 C 
ATOM     12  O   UNL     1      -1.458  14.088  20.989  0.00  0.00    +0.000 OA
BRANCH  11  13
ATOM     13  O   UNL     1      -2.162  12.222  22.106  0.00  0.00    +0.000 OA
BRANCH  13  15
ATOM     14  C   UNL     1      -3.857  12.627  23.735  0.00  0.00    +0.000 C 
ATOM     15  C   UNL     1      -2.422  12.919  23.329  0.00  0.00    +0.000 C 
ENDBRANCH  13  15
ENDBRANCH  11  13
ENDBRANCH   1  11
BRANCH   8  16
ATOM     16  O   UNL     1      -7.409  12.770  19.699  0.00  0.00    +0.000 OA
ATOM     17  H   UNL     1      -7.588  12.300  20.529  0.00  0.00    +0.000 HD
ENDBRANCH   8  16
BRANCH   2  18
ATOM     18  C   UNL     1      -0.167  11.328  18.953  0.00  0.00    +0.000 C 
BRANCH  18  19
ATOM     19  S   UNL     1       0.283  10.231  20.345  0.00  0.00    +0.000 S 
BRANCH  19  20
ATOM     20  C   UNL     1       1.296   8.955  19.585  0.00  0.00    +0.000 A 
ATOM     21  C   UNL     1       1.726   7.789  20.227  0.00  0.00    +0.000 A 
ATOM     22  C   UNL     1       2.566   6.874  19.572  0.00  0.00    +0.000 A 
ATOM     23  C   UNL     1       2.992   7.104  18.257  0.00  0.00    +0.000 A 
ATOM     24  C   UNL     1       2.516   8.240  17.592  0.00  0.00    +0.000 A 
ATOM     25  C   UNL     1       1.680   9.152  18.250  0.00  0.00    +0.000 A 
BRANCH  23  26
ATOM     26  C   UNL     1       3.968   6.174  17.571  0.00  0.00    +0.000 C 
ATOM     27  F   UNL     1       4.543   6.710  16.457  0.00  0.00    +0.000 F 
ATOM     28  F   UNL     1       4.998   5.800  18.378  0.00  0.00    +0.000 F 
ATOM     29  F   UNL     1       3.377   5.017  17.160  0.00  0.00    +0.000 F 
ENDBRANCH  23  26
ENDBRANCH  19  20
ENDBRANCH  18  19
ENDBRANCH   2  18
TORSDOF 8
ENDMDL
