MODEL 1
REMARK VINA RESULT:      -7.4      0.000      0.000
REMARK  Name = 
REMARK  6 active torsions:
REMARK  status: ('A' for Active; 'I' for Inactive)
REMARK    1  A    between atoms: C_1  and  N_2
REMARK    2  A    between atoms: N_2  and  C_3
REMARK    3  A    between atoms: N_6  and  C_7
REMARK    4  A    between atoms: C_10  and  C_11
REMARK    5  A    between atoms: C_20  and  O_21
REMARK    6  A    between atoms: O_21  and  C_22
REMARK                            x       y       z     vdW  Elec       q    Type
REMARK                         _______ _______ _______ _____ _____    ______ ____
ROOT
ATOM      1  C   UNL     1       0.914   9.685  19.114  0.00  0.00    +0.000 A 
ATOM      2  C   UNL     1       1.287   9.216  17.837  0.00  0.00    +0.000 A 
ATOM      3  C   UNL     1       2.057   8.068  17.668  0.00  0.00    +0.000 A 
ATOM      4  C   UNL     1       2.448   7.335  18.782  0.00  0.00    +0.000 A 
ATOM      5  C   UNL     1       2.040   7.750  20.057  0.00  0.00    +0.000 A 
ATOM      6  C   UNL     1       1.239   8.892  20.228  0.00  0.00    +0.000 A 
ENDROOT
BRANCH   1  10
ATOM      7  C   UNL     1       0.839  14.493  18.874  0.00  0.00    +0.000 A 
ATOM      8  N   UNL     1       0.254  13.296  19.101  0.00  0.00    +0.000 NA
ATOM      9  C   UNL     1       0.987  12.187  18.918  0.00  0.00    +0.000 A 
ATOM     10  N   UNL     1       0.363  10.974  19.224  0.00  0.00    +0.000 N 
ATOM     11  N   UNL     1       2.270  12.211  18.525  0.00  0.00    +0.000 NA
ATOM     12  C   UNL     1       2.841  13.410  18.328  0.00  0.00    +0.000 A 
ATOM     13  C   UNL     1       2.172  14.595  18.499  0.00  0.00    +0.000 A 
ATOM     14 CL   UNL     1       2.985  16.090  18.256  0.00  0.00    +0.000 Cl
ATOM     15  H   UNL     1      -0.331  11.140  19.929  0.00  0.00    +0.000 HD
BRANCH   7  17
ATOM     16  C   UNL     1      -0.842  15.715  20.116  0.00  0.00    +0.000 C 
ATOM     17  N   UNL     1       0.053  15.658  18.981  0.00  0.00    +0.000 N 
ATOM     18  H   UNL     1       0.642  16.481  18.874  0.00  0.00    +0.000 HD
ENDBRANCH   7  17
ENDBRANCH   1  10
BRANCH   4  19
ATOM     19  C   UNL     1       3.408   6.223  18.573  0.00  0.00    +0.000 C 
ATOM     20  O   UNL     1       4.516   6.514  18.122  0.00  0.00    +0.000 OA
ATOM     21  N   UNL     1       3.054   4.917  18.903  0.00  0.00    +0.000 N 
ATOM     22  C   UNL     1       4.105   3.906  18.962  0.00  0.00    +0.000 C 
ATOM     23  C   UNL     1       3.801   2.736  18.035  0.00  0.00    +0.000 C 
ATOM     24  C   UNL     1       2.415   2.162  18.320  0.00  0.00    +0.000 C 
ATOM     25  C   UNL     1       1.356   3.256  18.234  0.00  0.00    +0.000 C 
ATOM     26  C   UNL     1       1.691   4.433  19.144  0.00  0.00    +0.000 C 
ENDBRANCH   4  19
BRANCH   6  27
ATOM     27  O   UNL     1       0.979   9.188  21.541  0.00  0.00    +0.000 OA
ATOM     28  C   UNL     1      -0.319   8.869  22.031  0.00  0.00    +0.000 C 
ENDBRANCH   6  27
TORSDOF 4
ENDMDL
MODEL 2
REMARK VINA RESULT:      -7.1      2.831      3.575
REMARK  Name = 
REMARK  6 active torsions:
REMARK  status: ('A' for Active; 'I' for Inactive)
REMARK    1  A    between atoms: C_1  and  N_2
REMARK    2  A    between atoms: N_2  and  C_3
REMARK    3  A    between atoms: N_6  and  C_7
REMARK    4  A    between atoms: C_10  and  C_11
REMARK    5  A    between atoms: C_20  and  O_21
REMARK    6  A    between atoms: O_21  and  C_22
REMARK                            x       y       z     vdW  Elec       q    Type
REMARK                         _______ _______ _______ _____ _____    ______ ____
ROOT
ATOM      1  C   UNL     1       1.177   9.352  19.594  0.00  0.00    +0.000 A 
ATOM      2  C   UNL     1       1.290   8.220  20.427  0.00  0.00    +0.000 A 
ATOM      3  C   UNL     1       2.010   7.091  20.046  0.00  0.00    +0.000 A 
ATOM      4  C   UNL     1       2.670   7.080  18.823  0.00  0.00    +0.000 A 
ATOM      5  C   UNL     1       2.620   8.217  18.004  0.00  0.00    +0.000 A 
ATOM      6  C   UNL     1       1.918   9.367  18.399  0.00  0.00    +0.000 A 
ENDROOT
BRANCH   1  10
ATOM      7  C   UNL     1      -2.845  11.957  19.126  0.00  0.00    +0.000 A 
ATOM      8  N   UNL     1      -1.707  11.616  19.770  0.00  0.00    +0.000 NA
ATOM      9  C   UNL     1      -0.965  10.620  19.264  0.00  0.00    +0.000 A 
ATOM     10  N   UNL     1       0.235  10.341  19.925  0.00  0.00    +0.000 N 
ATOM     11  N   UNL     1      -1.297   9.951  18.148  0.00  0.00    +0.000 NA
ATOM     12  C   UNL     1      -2.417  10.319  17.508  0.00  0.00    +0.000 A 
ATOM     13  C   UNL     1      -3.232  11.332  17.948  0.00  0.00    +0.000 A 
ATOM     14 CL   UNL     1      -4.635  11.763  17.054  0.00  0.00    +0.000 Cl
ATOM     15  H   UNL     1       0.558  11.182  20.369  0.00  0.00    +0.000 HD
BRANCH   7  17
ATOM     16  C   UNL     1      -4.077  12.712  21.068  0.00  0.00    +0.000 C 
ATOM     17  N   UNL     1      -3.674  12.943  19.697  0.00  0.00    +0.000 N 
ATOM     18  H   UNL     1      -3.278  13.865  19.530  0.00  0.00    +0.000 HD
ENDBRANCH   7  17
ENDBRANCH   1  10
BRANCH   4  19
ATOM     19  C   UNL     1       3.278   5.801  18.379  0.00  0.00    +0.000 C 
ATOM     20  O   UNL     1       4.115   5.860  17.478  0.00  0.00    +0.000 OA
ATOM     21  N   UNL     1       2.917   4.602  18.989  0.00  0.00    +0.000 N 
ATOM     22  C   UNL     1       3.736   3.421  18.737  0.00  0.00    +0.000 C 
ATOM     23  C   UNL     1       2.901   2.277  18.175  0.00  0.00    +0.000 C 
ATOM     24  C   UNL     1       1.704   1.983  19.076  0.00  0.00    +0.000 C 
ATOM     25  C   UNL     1       0.878   3.245  19.298  0.00  0.00    +0.000 C 
ATOM     26  C   UNL     1       1.735   4.389  19.830  0.00  0.00    +0.000 C 
ENDBRANCH   4  19
BRANCH   6  27
ATOM     27  O   UNL     1       1.923  10.364  17.458  0.00  0.00    +0.000 OA
ATOM     28  C   UNL     1       2.511  11.605  17.834  0.00  0.00    +0.000 C 
ENDBRANCH   6  27
TORSDOF 4
ENDMDL
MODEL 3
REMARK VINA RESULT:      -7.1      2.824      3.229
REMARK  Name = 
REMARK  6 active torsions:
REMARK  status: ('A' for Active; 'I' for Inactive)
REMARK    1  A    between atoms: C_1  and  N_2
REMARK    2  A    between atoms: N_2  and  C_3
REMARK    3  A    between atoms: N_6  and  C_7
REMARK    4  A    between atoms: C_10  and  C_11
REMARK    5  A    between atoms: C_20  and  O_21
REMARK    6  A    between atoms: O_21  and  C_22
REMARK                            x       y       z     vdW  Elec       q    Type
REMARK                         _______ _______ _______ _____ _____    ______ ____
ROOT
ATOM      1  C   UNL     1       0.769   9.561  19.299  0.00  0.00    +0.000 A 
ATOM      2  C   UNL     1       1.276   9.510  17.983  0.00  0.00    +0.000 A 
ATOM      3  C   UNL     1       2.191   8.541  17.581  0.00  0.00    +0.000 A 
ATOM      4  C   UNL     1       2.601   7.569  18.485  0.00  0.00    +0.000 A 
ATOM      5  C   UNL     1       2.066   7.564  19.781  0.00  0.00    +0.000 A 
ATOM      6  C   UNL     1       1.121   8.523  20.180  0.00  0.00    +0.000 A 
ENDROOT
BRANCH   1  10
ATOM      7  C   UNL     1      -2.977  12.575  19.539  0.00  0.00    +0.000 A 
ATOM      8  N   UNL     1      -1.730  12.185  19.883  0.00  0.00    +0.000 NA
ATOM      9  C   UNL     1      -1.261  11.037  19.372  0.00  0.00    +0.000 A 
ATOM     10  N   UNL     1       0.056  10.702  19.703  0.00  0.00    +0.000 N 
ATOM     11  N   UNL     1      -1.968  10.262  18.534  0.00  0.00    +0.000 NA
ATOM     12  C   UNL     1      -3.196  10.678  18.185  0.00  0.00    +0.000 A 
ATOM     13  C   UNL     1      -3.753  11.841  18.651  0.00  0.00    +0.000 A 
ATOM     14 CL   UNL     1      -5.321  12.318  18.132  0.00  0.00    +0.000 Cl
ATOM     15  H   UNL     1       0.566  11.549  19.879  0.00  0.00    +0.000 HD
BRANCH   7  17
ATOM     16  C   UNL     1      -4.025  13.571  21.481  0.00  0.00    +0.000 C 
ATOM     17  N   UNL     1      -3.511  13.734  20.138  0.00  0.00    +0.000 N 
ATOM     18  H   UNL     1      -2.858  14.507  20.034  0.00  0.00    +0.000 HD
ENDBRANCH   7  17
ENDBRANCH   1  10
BRANCH   4  19
ATOM     19  C   UNL     1       3.703   6.665  18.072  0.00  0.00    +0.000 C 
ATOM     20  O   UNL     1       4.679   7.181  17.527  0.00  0.00    +0.000 OA
ATOM     21  N   UNL     1       3.622   5.297  18.325  0.00  0.00    +0.000 N 
ATOM     22  C   UNL     1       4.830   4.491  18.176  0.00  0.00    +0.000 C 
ATOM     23  C   UNL     1       4.617   3.349  17.189  0.00  0.00    +0.000 C 
ATOM     24  C   UNL     1       3.397   2.517  17.577  0.00  0.00    +0.000 C 
ATOM     25  C   UNL     1       2.163   3.404  17.708  0.00  0.00    +0.000 C 
ATOM     26  C   UNL     1       2.405   4.560  18.674  0.00  0.00    +0.000 C 
ENDBRANCH   4  19
BRANCH   6  27
ATOM     27  O   UNL     1       0.745   8.410  21.494  0.00  0.00    +0.000 OA
ATOM     28  C   UNL     1       1.457   9.200  22.440  0.00  0.00    +0.000 C 
ENDBRANCH   6  27
TORSDOF 4
ENDMDL
MODEL 4
REMARK VINA RESULT:      -7.1      3.197      4.166
REMARK  Name = 
REMARK  6 active torsions:
REMARK  status: ('A' for Active; 'I' for Inactive)
REMARK    1  A    between atoms: C_1  and  N_2
REMARK    2  A    between atoms: N_2  and  C_3
REMARK    3  A    between atoms: N_6  and  C_7
REMARK    4  A    between atoms: C_10  and  C_11
REMARK    5  A    between atoms: C_20  and  O_21
REMARK    6  A    between atoms: O_21  and  C_22
REMARK                            x       y       z     vdW  Elec       q    Type
REMARK                         _______ _______ _______ _____ _____    ______ ____
ROOT
ATOM      1  C   UNL     1       1.190   9.463  19.573  0.00  0.00    +0.000 A 
ATOM      2  C   UNL     1       1.282   8.302  20.369  0.00  0.00    +0.000 A 
ATOM      3  C   UNL     1       1.962   7.165  19.941  0.00  0.00    +0.000 A 
ATOM      4  C   UNL     1       2.600   7.172  18.707  0.00  0.00    +0.000 A 
ATOM      5  C   UNL     1       2.571   8.334  17.924  0.00  0.00    +0.000 A 
ATOM      6  C   UNL     1       1.911   9.492  18.366  0.00  0.00    +0.000 A 
ENDROOT
BRANCH   1  10
ATOM      7  C   UNL     1      -2.835  12.095  19.348  0.00  0.00    +0.000 A 
ATOM      8  N   UNL     1      -1.654  11.758  19.912  0.00  0.00    +0.000 NA
ATOM      9  C   UNL     1      -0.961  10.743  19.376  0.00  0.00    +0.000 A 
ATOM     10  N   UNL     1       0.284  10.469  19.950  0.00  0.00    +0.000 N 
ATOM     11  N   UNL     1      -1.382  10.050  18.305  0.00  0.00    +0.000 NA
ATOM     12  C   UNL     1      -2.546  10.415  17.744  0.00  0.00    +0.000 A 
ATOM     13  C   UNL     1      -3.316  11.445  18.219  0.00  0.00    +0.000 A 
ATOM     14 CL   UNL     1      -4.780  11.868  17.424  0.00  0.00    +0.000 Cl
ATOM     15  H   UNL     1       0.647  11.316  20.347  0.00  0.00    +0.000 HD
BRANCH   7  17
ATOM     16  C   UNL     1      -4.533  12.658  20.980  0.00  0.00    +0.000 C 
ATOM     17  N   UNL     1      -3.610  13.102  19.956  0.00  0.00    +0.000 N 
ATOM     18  H   UNL     1      -3.010  13.872  20.244  0.00  0.00    +0.000 HD
ENDBRANCH   7  17
ENDBRANCH   1  10
BRANCH   4  19
ATOM     19  C   UNL     1       3.161   5.889  18.215  0.00  0.00    +0.000 C 
ATOM     20  O   UNL     1       2.586   4.856  18.557  0.00  0.00    +0.000 OA
ATOM     21  N   UNL     1       4.278   5.884  17.381  0.00  0.00    +0.000 N 
ATOM     22  C   UNL     1       4.620   4.647  16.687  0.00  0.00    +0.000 C 
ATOM     23  C   UNL     1       6.045   4.210  17.003  0.00  0.00    +0.000 C 
ATOM     24  C   UNL     1       7.035   5.338  16.721  0.00  0.00    +0.000 C 
ATOM     25  C   UNL     1       6.638   6.601  17.477  0.00  0.00    +0.000 C 
ATOM     26  C   UNL     1       5.199   7.006  17.175  0.00  0.00    +0.000 C 
ENDBRANCH   4  19
BRANCH   6  27
ATOM     27  O   UNL     1       1.930  10.517  17.455  0.00  0.00    +0.000 OA
ATOM     28  C   UNL     1       2.484  11.754  17.887  0.00  0.00    +0.000 C 
ENDBRANCH   6  27
TORSDOF 4
ENDMDL
MODEL 5
REMARK VINA RESULT:      -7.0      2.232      2.667
REMARK  Name = 
REMARK  6 active torsions:
REMARK  status: ('A' for Active; 'I' for Inactive)
REMARK    1  A    between atoms: C_1  and  N_2
REMARK    2  A    between atoms: N_2  and  C_3
REMARK    3  A    between atoms: N_6  and  C_7
REMARK    4  A    between atoms: C_10  and  C_11
REMARK    5  A    between atoms: C_20  and  O_21
REMARK    6  A    between atoms: O_21  and  C_22
REMARK                            x       y       z     vdW  Elec       q    Type
REMARK                         _______ _______ _______ _____ _____    ______ ____
ROOT
ATOM      1  C   UNL     1       1.292   9.575  19.225  0.00  0.00    +0.000 A 
ATOM      2  C   UNL     1       1.765   9.305  17.923  0.00  0.00    +0.000 A 
ATOM      3  C   UNL     1       2.467   8.142  17.619  0.00  0.00    +0.000 A 
ATOM      4  C   UNL     1       2.688   7.195  18.612  0.00  0.00    +0.000 A 
ATOM      5  C   UNL     1       2.177   7.415  19.899  0.00  0.00    +0.000 A 
ATOM      6  C   UNL     1       1.443   8.574  20.201  0.00  0.00    +0.000 A 
ENDROOT
BRANCH   1  10
ATOM      7  C   UNL     1      -1.972  13.072  19.762  0.00  0.00    +0.000 A 
ATOM      8  N   UNL     1      -0.711  12.592  19.822  0.00  0.00    +0.000 NA
ATOM      9  C   UNL     1      -0.505  11.306  19.502  0.00  0.00    +0.000 A 
ATOM     10  N   UNL     1       0.823  10.866  19.516  0.00  0.00    +0.000 N 
ATOM     11  N   UNL     1      -1.490  10.477  19.122  0.00  0.00    +0.000 NA
ATOM     12  C   UNL     1      -2.733  10.977  19.045  0.00  0.00    +0.000 A 
ATOM     13  C   UNL     1      -3.035  12.281  19.345  0.00  0.00    +0.000 A 
ATOM     14 CL   UNL     1      -4.649  12.853  19.191  0.00  0.00    +0.000 Cl
ATOM     15  H   UNL     1       1.420  11.649  19.323  0.00  0.00    +0.000 HD
BRANCH   7  17
ATOM     16  C   UNL     1      -1.063  15.279  20.168  0.00  0.00    +0.000 C 
ATOM     17  N   UNL     1      -2.210  14.397  20.179  0.00  0.00    +0.000 N 
ATOM     18  H   UNL     1      -3.025  14.769  19.695  0.00  0.00    +0.000 HD
ENDBRANCH   7  17
ENDBRANCH   1  10
BRANCH   4  19
ATOM     19  C   UNL     1       3.586   6.058  18.292  0.00  0.00    +0.000 C 
ATOM     20  O   UNL     1       4.637   6.319  17.705  0.00  0.00    +0.000 OA
ATOM     21  N   UNL     1       3.243   4.762  18.672  0.00  0.00    +0.000 N 
ATOM     22  C   UNL     1       4.268   3.725  18.607  0.00  0.00    +0.000 C 
ATOM     23  C   UNL     1       3.822   2.560  17.732  0.00  0.00    +0.000 C 
ATOM     24  C   UNL     1       2.468   2.023  18.191  0.00  0.00    +0.000 C 
ATOM     25  C   UNL     1       1.434   3.143  18.231  0.00  0.00    +0.000 C 
ATOM     26  C   UNL     1       1.910   4.314  19.084  0.00  0.00    +0.000 C 
ENDBRANCH   4  19
BRANCH   6  27
ATOM     27  O   UNL     1       1.067   8.658  21.516  0.00  0.00    +0.000 OA
ATOM     28  C   UNL     1      -0.303   8.412  21.814  0.00  0.00    +0.000 C 
ENDBRANCH   6  27
TORSDOF 4
ENDMDL
MODEL 6
REMARK VINA RESULT:      -6.9      3.012      8.639
REMARK  Name = 
REMARK  6 active torsions:
REMARK  status: ('A' for Active; 'I' for Inactive)
REMARK    1  A    between atoms: C_1  and  N_2
REMARK    2  A    between atoms: N_2  and  C_3
REMARK    3  A    between atoms: N_6  and  C_7
REMARK    4  A    between atoms: C_10  and  C_11
REMARK    5  A    between atoms: C_20  and  O_21
REMARK    6  A    between atoms: O_21  and  C_22
REMARK                            x       y       z     vdW  Elec       q    Type
REMARK                         _______ _______ _______ _____ _____    ______ ____
ROOT
ATOM      1  C   UNL     1       1.840   8.125  19.433  0.00  0.00    +0.000 A 
ATOM      2  C   UNL     1       1.833   8.773  18.180  0.00  0.00    +0.000 A 
ATOM      3  C   UNL     1       1.250  10.024  17.999  0.00  0.00    +0.000 A 
ATOM      4  C   UNL     1       0.683  10.680  19.084  0.00  0.00    +0.000 A 
ATOM      5  C   UNL     1       0.729  10.081  20.351  0.00  0.00    +0.000 A 
ATOM      6  C   UNL     1       1.342   8.832  20.542  0.00  0.00    +0.000 A 
ENDROOT
BRANCH   1  10
ATOM      7  C   UNL     1       4.229   4.142  18.167  0.00  0.00    +0.000 A 
ATOM      8  N   UNL     1       3.355   4.818  18.944  0.00  0.00    +0.000 NA
ATOM      9  C   UNL     1       3.170   6.125  18.704  0.00  0.00    +0.000 A 
ATOM     10  N   UNL     1       2.211   6.771  19.490  0.00  0.00    +0.000 N 
ATOM     11  N   UNL     1       3.807   6.789  17.727  0.00  0.00    +0.000 NA
ATOM     12  C   UNL     1       4.653   6.096  16.949  0.00  0.00    +0.000 A 
ATOM     13  C   UNL     1       4.897   4.757  17.116  0.00  0.00    +0.000 A 
ATOM     14 CL   UNL     1       5.974   3.936  16.057  0.00  0.00    +0.000 Cl
ATOM     15  H   UNL     1       1.524   6.097  19.775  0.00  0.00    +0.000 HD
BRANCH   7  17
ATOM     16  C   UNL     1       3.478   1.843  18.062  0.00  0.00    +0.000 C 
ATOM     17  N   UNL     1       4.494   2.791  18.466  0.00  0.00    +0.000 N 
ATOM     18  H   UNL     1       5.434   2.549  18.160  0.00  0.00    +0.000 HD
ENDBRANCH   7  17
ENDBRANCH   1  10
BRANCH   4  19
ATOM     19  C   UNL     1      -0.078  11.925  18.816  0.00  0.00    +0.000 C 
ATOM     20  O   UNL     1      -1.112  11.821  18.155  0.00  0.00    +0.000 OA
ATOM     21  N   UNL     1       0.367  13.144  19.324  0.00  0.00    +0.000 N 
ATOM     22  C   UNL     1      -0.545  14.283  19.293  0.00  0.00    +0.000 C 
ATOM     23  C   UNL     1       0.066  15.463  18.546  0.00  0.00    +0.000 C 
ATOM     24  C   UNL     1       1.435  15.819  19.120  0.00  0.00    +0.000 C 
ATOM     25  C   UNL     1       2.350  14.599  19.118  0.00  0.00    +0.000 C 
ATOM     26  C   UNL     1       1.710  13.418  19.841  0.00  0.00    +0.000 C 
ENDBRANCH   4  19
BRANCH   6  27
ATOM     27  O   UNL     1       1.250   8.366  21.829  0.00  0.00    +0.000 OA
ATOM     28  C   UNL     1       0.593   9.204  22.774  0.00  0.00    +0.000 C 
ENDBRANCH   6  27
TORSDOF 4
ENDMDL
MODEL 7
REMARK VINA RESULT:      -6.8      3.889      9.171
REMARK  Name = 
REMARK  6 active torsions:
REMARK  status: ('A' for Active; 'I' for Inactive)
REMARK    1  A    between atoms: C_1  and  N_2
REMARK    2  A    between atoms: N_2  and  C_3
REMARK    3  A    between atoms: N_6  and  C_7
REMARK    4  A    between atoms: C_10  and  C_11
REMARK    5  A    between atoms: C_20  and  O_21
REMARK    6  A    between atoms: O_21  and  C_22
REMARK                            x       y       z     vdW  Elec       q    Type
REMARK                         _______ _______ _______ _____ _____    ______ ____
ROOT
ATOM      1  C   UNL     1       1.139   8.755  20.820  0.00  0.00    +0.000 A 
ATOM      2  C   UNL     1       1.037   8.842  22.224  0.00  0.00    +0.000 A 
ATOM      3  C   UNL     1       0.220   9.780  22.849  0.00  0.00    +0.000 A 
ATOM      4  C   UNL     1      -0.548  10.642  22.076  0.00  0.00    +0.000 A 
ATOM      5  C   UNL     1      -0.508  10.536  20.679  0.00  0.00    +0.000 A 
ATOM      6  C   UNL     1       0.293   9.570  20.047  0.00  0.00    +0.000 A 
ENDROOT
BRANCH   1  10
ATOM      7  C   UNL     1       3.347   4.701  19.453  0.00  0.00    +0.000 A 
ATOM      8  N   UNL     1       3.269   6.046  19.556  0.00  0.00    +0.000 NA
ATOM      9  C   UNL     1       2.175   6.577  20.122  0.00  0.00    +0.000 A 
ATOM     10  N   UNL     1       2.163   7.968  20.266  0.00  0.00    +0.000 N 
ATOM     11  N   UNL     1       1.158   5.837  20.592  0.00  0.00    +0.000 NA
ATOM     12  C   UNL     1       1.264   4.502  20.503  0.00  0.00    +0.000 A 
ATOM     13  C   UNL     1       2.349   3.872  19.948  0.00  0.00    +0.000 A 
ATOM     14 CL   UNL     1       2.421   2.155  19.899  0.00  0.00    +0.000 Cl
ATOM     15  H   UNL     1       3.110   8.289  20.344  0.00  0.00    +0.000 HD
BRANCH   7  17
ATOM     16  C   UNL     1       4.348   4.069  17.341  0.00  0.00    +0.000 C 
ATOM     17  N   UNL     1       4.452   4.139  18.783  0.00  0.00    +0.000 N 
ATOM     18  H   UNL     1       5.312   4.567  19.118  0.00  0.00    +0.000 HD
ENDBRANCH   7  17
ENDBRANCH   1  10
BRANCH   4  19
ATOM     19  C   UNL     1      -1.267  11.737  22.774  0.00  0.00    +0.000 C 
ATOM     20  O   UNL     1      -2.280  11.432  23.404  0.00  0.00    +0.000 OA
ATOM     21  N   UNL     1      -0.783  13.042  22.723  0.00  0.00    +0.000 N 
ATOM     22  C   UNL     1      -1.337  14.026  23.647  0.00  0.00    +0.000 C 
ATOM     23  C   UNL     1      -1.907  15.227  22.902  0.00  0.00    +0.000 C 
ATOM     24  C   UNL     1      -0.865  15.825  21.960  0.00  0.00    +0.000 C 
ATOM     25  C   UNL     1      -0.328  14.760  21.010  0.00  0.00    +0.000 C 
ATOM     26  C   UNL     1       0.209  13.552  21.771  0.00  0.00    +0.000 C 
ENDBRANCH   4  19
BRANCH   6  27
ATOM     27  O   UNL     1       0.260   9.640  18.678  0.00  0.00    +0.000 OA
ATOM     28  C   UNL     1      -0.876  10.264  18.090  0.00  0.00    +0.000 C 
ENDBRANCH   6  27
TORSDOF 4
ENDMDL
MODEL 8
REMARK VINA RESULT:      -6.8      1.272      1.289
REMARK  Name = 
REMARK  6 active torsions:
REMARK  status: ('A' for Active; 'I' for Inactive)
REMARK    1  A    between atoms: C_1  and  N_2
REMARK    2  A    between atoms: N_2  and  C_3
REMARK    3  A    between atoms: N_6  and  C_7
REMARK    4  A    between atoms: C_10  and  C_11
REMARK    5  A    between atoms: C_20  and  O_21
REMARK    6  A    between atoms: O_21  and  C_22
REMARK                            x       y       z     vdW  Elec       q    Type
REMARK                         _______ _______ _______ _____ _____    ______ ____
ROOT
ATOM      1  C   UNL     1       0.601   9.897  19.549  0.00  0.00    +0.000 A 
ATOM      2  C   UNL     1       0.886   9.716  18.179  0.00  0.00    +0.000 A 
ATOM      3  C   UNL     1       1.720   8.697  17.727  0.00  0.00    +0.000 A 
ATOM      4  C   UNL     1       2.270   7.806  18.640  0.00  0.00    +0.000 A 
ATOM      5  C   UNL     1       1.954   7.931  20.000  0.00  0.00    +0.000 A 
ATOM      6  C   UNL     1       1.090   8.940  20.455  0.00  0.00    +0.000 A 
ENDROOT
BRANCH   1  10
ATOM      7  C   UNL     1       0.290  14.541  20.780  0.00  0.00    +0.000 A 
ATOM      8  N   UNL     1      -0.254  13.330  20.530  0.00  0.00    +0.000 NA
ATOM      9  C   UNL     1       0.560  12.337  20.141  0.00  0.00    +0.000 A 
ATOM     10  N   UNL     1      -0.033  11.085  19.954  0.00  0.00    +0.000 N 
ATOM     11  N   UNL     1       1.886  12.489  19.993  0.00  0.00    +0.000 NA
ATOM     12  C   UNL     1       2.411  13.693  20.270  0.00  0.00    +0.000 A 
ATOM     13  C   UNL     1       1.657  14.762  20.681  0.00  0.00    +0.000 A 
ATOM     14 CL   UNL     1       2.411  16.264  21.044  0.00  0.00    +0.000 Cl
ATOM     15  H   UNL     1      -0.837  11.019  20.551  0.00  0.00    +0.000 HD
BRANCH   7  17
ATOM     16  C   UNL     1      -1.950  15.458  20.703  0.00  0.00    +0.000 C 
ATOM     17  N   UNL     1      -0.568  15.611  21.105  0.00  0.00    +0.000 N 
ATOM     18  H   UNL     1      -0.445  15.866  22.083  0.00  0.00    +0.000 HD
ENDBRANCH   7  17
ENDBRANCH   1  10
BRANCH   4  19
ATOM     19  C   UNL     1       3.287   6.848  18.141  0.00  0.00    +0.000 C 
ATOM     20  O   UNL     1       4.250   7.316  17.532  0.00  0.00    +0.000 OA
ATOM     21  N   UNL     1       3.148   5.483  18.385  0.00  0.00    +0.000 N 
ATOM     22  C   UNL     1       4.294   4.614  18.142  0.00  0.00    +0.000 C 
ATOM     23  C   UNL     1       3.947   3.499  17.162  0.00  0.00    +0.000 C 
ATOM     24  C   UNL     1       2.713   2.731  17.628  0.00  0.00    +0.000 C 
ATOM     25  C   UNL     1       1.544   3.683  17.856  0.00  0.00    +0.000 C 
ATOM     26  C   UNL     1       1.918   4.810  18.813  0.00  0.00    +0.000 C 
ENDBRANCH   4  19
BRANCH   6  27
ATOM     27  O   UNL     1       0.934   8.956  21.818  0.00  0.00    +0.000 OA
ATOM     28  C   UNL     1      -0.383   8.752  22.319  0.00  0.00    +0.000 C 
ENDBRANCH   6  27
TORSDOF 4
ENDMDL
MODEL 9
REMARK VINA RESULT:      -6.7      3.755      8.787
REMARK  Name = 
REMARK  6 active torsions:
REMARK  status: ('A' for Active; 'I' for Inactive)
REMARK    1  A    between atoms: C_1  and  N_2
REMARK    2  A    between atoms: N_2  and  C_3
REMARK    3  A    between atoms: N_6  and  C_7
REMARK    4  A    between atoms: C_10  and  C_11
REMARK    5  A    between atoms: C_20  and  O_21
REMARK    6  A    between atoms: O_21  and  C_22
REMARK                            x       y       z     vdW  Elec       q    Type
REMARK                         _______ _______ _______ _____ _____    ______ ____
ROOT
ATOM      1  C   UNL     1       1.972   8.095  19.361  0.00  0.00    +0.000 A 
ATOM      2  C   UNL     1       1.598   7.600  20.628  0.00  0.00    +0.000 A 
ATOM      3  C   UNL     1       0.866   8.364  21.533  0.00  0.00    +0.000 A 
ATOM      4  C   UNL     1       0.458   9.644  21.176  0.00  0.00    +0.000 A 
ATOM      5  C   UNL     1       0.768  10.135  19.901  0.00  0.00    +0.000 A 
ATOM      6  C   UNL     1       1.481   9.355  18.976  0.00  0.00    +0.000 A 
ENDROOT
BRANCH   1  10
ATOM      7  C   UNL     1       4.111   4.195  17.519  0.00  0.00    +0.000 A 
ATOM      8  N   UNL     1       3.978   5.532  17.664  0.00  0.00    +0.000 NA
ATOM      9  C   UNL     1       2.980   5.991  18.435  0.00  0.00    +0.000 A 
ATOM     10  N   UNL     1       2.917   7.376  18.609  0.00  0.00    +0.000 N 
ATOM     11  N   UNL     1       2.113   5.186  19.070  0.00  0.00    +0.000 NA
ATOM     12  C   UNL     1       2.276   3.861  18.933  0.00  0.00    +0.000 A 
ATOM     13  C   UNL     1       3.272   3.303  18.173  0.00  0.00    +0.000 A 
ATOM     14 CL   UNL     1       3.430   1.594  18.075  0.00  0.00    +0.000 Cl
ATOM     15  H   UNL     1       3.842   7.753  18.516  0.00  0.00    +0.000 HD
BRANCH   7  17
ATOM     16  C   UNL     1       6.378   4.386  16.692  0.00  0.00    +0.000 C 
ATOM     17  N   UNL     1       5.101   3.707  16.643  0.00  0.00    +0.000 N 
ATOM     18  H   UNL     1       5.166   2.695  16.727  0.00  0.00    +0.000 HD
ENDBRANCH   7  17
ENDBRANCH   1  10
BRANCH   4  19
ATOM     19  C   UNL     1      -0.165  10.485  22.227  0.00  0.00    +0.000 C 
ATOM     20  O   UNL     1      -0.039  10.113  23.394  0.00  0.00    +0.000 OA
ATOM     21  N   UNL     1      -0.838  11.656  21.884  0.00  0.00    +0.000 N 
ATOM     22  C   UNL     1      -1.178  12.598  22.945  0.00  0.00    +0.000 C 
ATOM     23  C   UNL     1      -2.675  12.883  22.976  0.00  0.00    +0.000 C 
ATOM     24  C   UNL     1      -3.170  13.336  21.604  0.00  0.00    +0.000 C 
ATOM     25  C   UNL     1      -2.799  12.312  20.537  0.00  0.00    +0.000 C 
ATOM     26  C   UNL     1      -1.303  12.015  20.541  0.00  0.00    +0.000 C 
ENDBRANCH   4  19
BRANCH   6  27
ATOM     27  O   UNL     1       1.749  10.006  17.799  0.00  0.00    +0.000 OA
ATOM     28  C   UNL     1       2.276  11.325  17.896  0.00  0.00    +0.000 C 
ENDBRANCH   6  27
TORSDOF 4
ENDMDL
