MODEL 1
REMARK VINA RESULT:      -7.8      0.000      0.000
REMARK  Name = 
REMARK  8 active torsions:
REMARK  status: ('A' for Active; 'I' for Inactive)
REMARK    1  A    between atoms: C_1  and  C_2
REMARK    2  A    between atoms: C_2  and  O_3
REMARK    3  A    between atoms: O_3  and  C_4
REMARK    4  A    between atoms: N_11  and  C_12
REMARK    5  A    between atoms: C_22  and  N_23
REMARK    6  A    between atoms: C_24  and  C_26
REMARK    7  A    between atoms: C_26  and  C_27
REMARK    8  A    between atoms: C_27  and  N_28
REMARK                            x       y       z     vdW  Elec       q    Type
REMARK                         _______ _______ _______ _____ _____    ______ ____
ROOT
ATOM      1  C   UNL     1       2.008   6.009  20.497  0.00  0.00    +0.000 A 
ATOM      2  C   UNL     1       1.103   6.788  21.232  0.00  0.00    +0.000 A 
ATOM      3  C   UNL     1       0.783   8.098  20.977  0.00  0.00    +0.000 A 
ATOM      4  N   UNL     1      -0.090   8.719  21.738  0.00  0.00    +0.000 NA
ATOM      5  C   UNL     1      -0.352   9.999  21.452  0.00  0.00    +0.000 A 
ATOM      6  N   UNL     1       0.166  10.691  20.434  0.00  0.00    +0.000 NA
ATOM      7  C   UNL     1       1.024  10.049  19.640  0.00  0.00    +0.000 A 
ATOM      8  N   UNL     1       1.530  10.750  18.507  0.00  0.00    +0.000 N 
ATOM      9  C   UNL     1       1.441   8.722  19.892  0.00  0.00    +0.000 A 
ATOM     10  C   UNL     1       2.393   7.972  19.206  0.00  0.00    +0.000 A 
ATOM     11  C   UNL     1       2.643   6.612  19.386  0.00  0.00    +0.000 A 
ATOM     12  H   UNL     1       1.566  10.194  17.672  0.00  0.00    +0.000 HD
ENDROOT
BRANCH   8  13
ATOM     13  C   UNL     1       1.570  12.157  18.350  0.00  0.00    +0.000 A 
ATOM     14  C   UNL     1       2.787  12.794  18.068  0.00  0.00    +0.000 A 
ATOM     15  C   UNL     1       2.929  14.175  18.218  0.00  0.00    +0.000 A 
ATOM     16  C   UNL     1       1.835  14.924  18.635  0.00  0.00    +0.000 A 
ATOM     17  F   UNL     1       2.022  16.218  18.931  0.00  0.00    +0.000 F 
ATOM     18  C   UNL     1       0.589  14.325  18.817  0.00  0.00    +0.000 A 
ATOM     19 CL   UNL     1      -0.747  15.249  19.393  0.00  0.00    +0.000 Cl
ATOM     20  C   UNL     1       0.449  12.937  18.655  0.00  0.00    +0.000 A 
ENDBRANCH   8  13
BRANCH  11  21
ATOM     21  N   UNL     1       3.496   5.964  18.453  0.00  0.00    +0.000 N 
ATOM     22  C   UNL     1       3.103   4.937  17.583  0.00  0.00    +0.000 C 
ATOM     23  O   UNL     1       1.971   4.470  17.459  0.00  0.00    +0.000 OA
ATOM     24  H   UNL     1       4.414   6.382  18.285  0.00  0.00    +0.000 HD
BRANCH  22  25
ATOM     25  C   UNL     1       4.223   4.369  16.751  0.00  0.00    +0.000 C 
BRANCH  25  26
ATOM     26  C   UNL     1       5.460   4.233  17.652  0.00  0.00    +0.000 C 
BRANCH  26  27
ATOM     27  N   UNL     1       6.742   4.554  16.998  0.00  0.00    +0.000 NA
ATOM     28  C   UNL     1       7.833   4.593  18.011  0.00  0.00    +0.000 C 
ATOM     29  C   UNL     1       7.761   5.808  18.955  0.00  0.00    +0.000 C 
ATOM     30  O   UNL     1       7.785   7.036  18.217  0.00  0.00    +0.000 OA
ATOM     31  C   UNL     1       6.710   7.085  17.271  0.00  0.00    +0.000 C 
ATOM     32  C   UNL     1       6.733   5.873  16.320  0.00  0.00    +0.000 C 
ENDBRANCH  26  27
ENDBRANCH  25  26
ENDBRANCH  22  25
ENDBRANCH  11  21
BRANCH   1  33
ATOM     33  O   UNL     1       2.267   4.719  20.895  0.00  0.00    +0.000 OA
BRANCH  33  35
ATOM     34  C   UNL     1       1.625   2.498  20.259  0.00  0.00    +0.000 C 
ATOM     35  C   UNL     1       1.124   3.833  20.752  0.00  0.00    +0.000 C 
ENDBRANCH  33  35
ENDBRANCH   1  33
TORSDOF 7
ENDMDL
MODEL 2
REMARK VINA RESULT:      -7.2      4.666      8.885
REMARK  Name = 
REMARK  8 active torsions:
REMARK  status: ('A' for Active; 'I' for Inactive)
REMARK    1  A    between atoms: C_1  and  C_2
REMARK    2  A    between atoms: C_2  and  O_3
REMARK    3  A    between atoms: O_3  and  C_4
REMARK    4  A    between atoms: N_11  and  C_12
REMARK    5  A    between atoms: C_22  and  N_23
REMARK    6  A    between atoms: C_24  and  C_26
REMARK    7  A    between atoms: C_26  and  C_27
REMARK    8  A    between atoms: C_27  and  N_28
REMARK                            x       y       z     vdW  Elec       q    Type
REMARK                         _______ _______ _______ _____ _____    ______ ____
ROOT
ATOM      1  C   UNL     1       1.732   6.850  20.043  0.00  0.00    +0.000 A 
ATOM      2  C   UNL     1       1.988   5.472  20.084  0.00  0.00    +0.000 A 
ATOM      3  C   UNL     1       2.821   4.786  19.236  0.00  0.00    +0.000 A 
ATOM      4  N   UNL     1       2.983   3.491  19.383  0.00  0.00    +0.000 NA
ATOM      5  C   UNL     1       3.795   2.872  18.519  0.00  0.00    +0.000 A 
ATOM      6  N   UNL     1       4.489   3.463  17.543  0.00  0.00    +0.000 NA
ATOM      7  C   UNL     1       4.352   4.784  17.417  0.00  0.00    +0.000 A 
ATOM      8  N   UNL     1       5.141   5.440  16.428  0.00  0.00    +0.000 N 
ATOM      9  C   UNL     1       3.459   5.532  18.218  0.00  0.00    +0.000 A 
ATOM     10  C   UNL     1       3.150   6.888  18.131  0.00  0.00    +0.000 A 
ATOM     11  C   UNL     1       2.396   7.612  19.053  0.00  0.00    +0.000 A 
ATOM     12  H   UNL     1       5.540   6.308  16.740  0.00  0.00    +0.000 HD
ENDROOT
BRANCH   8  13
ATOM     13  C   UNL     1       5.727   4.831  15.293  0.00  0.00    +0.000 A 
ATOM     14  C   UNL     1       7.090   5.016  15.026  0.00  0.00    +0.000 A 
ATOM     15  C   UNL     1       7.628   4.706  13.775  0.00  0.00    +0.000 A 
ATOM     16  C   UNL     1       6.795   4.187  12.792  0.00  0.00    +0.000 A 
ATOM     17  F   UNL     1       7.282   4.045  11.551  0.00  0.00    +0.000 F 
ATOM     18  C   UNL     1       5.460   3.896  13.071  0.00  0.00    +0.000 A 
ATOM     19 CL   UNL     1       4.417   3.310  11.830  0.00  0.00    +0.000 Cl
ATOM     20  C   UNL     1       4.926   4.200  14.334  0.00  0.00    +0.000 A 
ENDBRANCH   8  13
BRANCH  11  21
ATOM     21  N   UNL     1       2.362   9.025  18.919  0.00  0.00    +0.000 N 
ATOM     22  C   UNL     1       1.364   9.746  18.245  0.00  0.00    +0.000 C 
ATOM     23  O   UNL     1       0.357   9.284  17.709  0.00  0.00    +0.000 OA
ATOM     24  H   UNL     1       3.014   9.568  19.489  0.00  0.00    +0.000 HD
BRANCH  22  25
ATOM     25  C   UNL     1       1.608  11.230  18.183  0.00  0.00    +0.000 C 
BRANCH  25  26
ATOM     26  C   UNL     1       1.073  11.853  19.482  0.00  0.00    +0.000 C 
BRANCH  26  27
ATOM     27  N   UNL     1      -0.366  12.173  19.470  0.00  0.00    +0.000 NA
ATOM     28  C   UNL     1      -0.645  13.216  18.445  0.00  0.00    +0.000 C 
ATOM     29  C   UNL     1      -0.116  14.613  18.820  0.00  0.00    +0.000 C 
ATOM     30  O   UNL     1      -0.660  15.051  20.072  0.00  0.00    +0.000 OA
ATOM     31  C   UNL     1      -0.360  14.115  21.115  0.00  0.00    +0.000 C 
ATOM     32  C   UNL     1      -0.854  12.699  20.768  0.00  0.00    +0.000 C 
ENDBRANCH  26  27
ENDBRANCH  25  26
ENDBRANCH  22  25
ENDBRANCH  11  21
BRANCH   1  33
ATOM     33  O   UNL     1       0.837   7.398  20.930  0.00  0.00    +0.000 OA
BRANCH  33  35
ATOM     34  C   UNL     1       0.279   9.349  22.206  0.00  0.00    +0.000 C 
ATOM     35  C   UNL     1       1.406   8.462  21.739  0.00  0.00    +0.000 C 
ENDBRANCH  33  35
ENDBRANCH   1  33
TORSDOF 7
ENDMDL
MODEL 3
REMARK VINA RESULT:      -7.2      4.588      8.823
REMARK  Name = 
REMARK  8 active torsions:
REMARK  status: ('A' for Active; 'I' for Inactive)
REMARK    1  A    between atoms: C_1  and  C_2
REMARK    2  A    between atoms: C_2  and  O_3
REMARK    3  A    between atoms: O_3  and  C_4
REMARK    4  A    between atoms: N_11  and  C_12
REMARK    5  A    between atoms: C_22  and  N_23
REMARK    6  A    between atoms: C_24  and  C_26
REMARK    7  A    between atoms: C_26  and  C_27
REMARK    8  A    between atoms: C_27  and  N_28
REMARK                            x       y       z     vdW  Elec       q    Type
REMARK                         _______ _______ _______ _____ _____    ______ ____
ROOT
ATOM      1  C   UNL     1       1.770   6.896  20.075  0.00  0.00    +0.000 A 
ATOM      2  C   UNL     1       2.061   5.526  20.136  0.00  0.00    +0.000 A 
ATOM      3  C   UNL     1       2.899   4.846  19.288  0.00  0.00    +0.000 A 
ATOM      4  N   UNL     1       3.096   3.558  19.456  0.00  0.00    +0.000 NA
ATOM      5  C   UNL     1       3.911   2.945  18.590  0.00  0.00    +0.000 A 
ATOM      6  N   UNL     1       4.574   3.535  17.593  0.00  0.00    +0.000 NA
ATOM      7  C   UNL     1       4.402   4.850  17.446  0.00  0.00    +0.000 A 
ATOM      8  N   UNL     1       5.159   5.508  16.434  0.00  0.00    +0.000 N 
ATOM      9  C   UNL     1       3.503   5.589  18.247  0.00  0.00    +0.000 A 
ATOM     10  C   UNL     1       3.158   6.935  18.141  0.00  0.00    +0.000 A 
ATOM     11  C   UNL     1       2.399   7.656  19.061  0.00  0.00    +0.000 A 
ATOM     12  H   UNL     1       5.540   6.390  16.725  0.00  0.00    +0.000 HD
ENDROOT
BRANCH   8  13
ATOM     13  C   UNL     1       5.744   4.893  15.301  0.00  0.00    +0.000 A 
ATOM     14  C   UNL     1       7.105   5.084  15.026  0.00  0.00    +0.000 A 
ATOM     15  C   UNL     1       7.639   4.767  13.775  0.00  0.00    +0.000 A 
ATOM     16  C   UNL     1       6.804   4.235  12.800  0.00  0.00    +0.000 A 
ATOM     17  F   UNL     1       7.286   4.087  11.558  0.00  0.00    +0.000 F 
ATOM     18  C   UNL     1       5.472   3.938  13.088  0.00  0.00    +0.000 A 
ATOM     19 CL   UNL     1       4.427   3.336  11.857  0.00  0.00    +0.000 Cl
ATOM     20  C   UNL     1       4.942   4.249  14.351  0.00  0.00    +0.000 A 
ENDBRANCH   8  13
BRANCH  11  21
ATOM     21  N   UNL     1       2.327   9.066  18.903  0.00  0.00    +0.000 N 
ATOM     22  C   UNL     1       1.276   9.753  18.276  0.00  0.00    +0.000 C 
ATOM     23  O   UNL     1       0.249   9.259  17.810  0.00  0.00    +0.000 OA
ATOM     24  H   UNL     1       2.999   9.633  19.423  0.00  0.00    +0.000 HD
BRANCH  22  25
ATOM     25  C   UNL     1       1.484  11.240  18.172  0.00  0.00    +0.000 C 
BRANCH  25  26
ATOM     26  C   UNL     1       1.271  11.847  19.567  0.00  0.00    +0.000 C 
BRANCH  26  27
ATOM     27  N   UNL     1       0.628  13.173  19.576  0.00  0.00    +0.000 NA
ATOM     28  C   UNL     1       0.352  13.595  20.977  0.00  0.00    +0.000 C 
ATOM     29  C   UNL     1      -0.782  12.802  21.652  0.00  0.00    +0.000 C 
ATOM     30  O   UNL     1      -1.998  12.901  20.901  0.00  0.00    +0.000 OA
ATOM     31  C   UNL     1      -1.809  12.441  19.558  0.00  0.00    +0.000 C 
ATOM     32  C   UNL     1      -0.667  13.195  18.853  0.00  0.00    +0.000 C 
ENDBRANCH  26  27
ENDBRANCH  25  26
ENDBRANCH  22  25
ENDBRANCH  11  21
BRANCH   1  33
ATOM     33  O   UNL     1       0.874   7.437  20.966  0.00  0.00    +0.000 OA
BRANCH  33  35
ATOM     34  C   UNL     1       0.332   9.314  22.355  0.00  0.00    +0.000 C 
ATOM     35  C   UNL     1       1.454   8.463  21.814  0.00  0.00    +0.000 C 
ENDBRANCH  33  35
ENDBRANCH   1  33
TORSDOF 7
ENDMDL
MODEL 4
REMARK VINA RESULT:      -7.1      3.332      5.574
REMARK  Name = 
REMARK  8 active torsions:
REMARK  status: ('A' for Active; 'I' for Inactive)
REMARK    1  A    between atoms: C_1  and  C_2
REMARK    2  A    between atoms: C_2  and  O_3
REMARK    3  A    between atoms: O_3  and  C_4
REMARK    4  A    between atoms: N_11  and  C_12
REMARK    5  A    between atoms: C_22  and  N_23
REMARK    6  A    between atoms: C_24  and  C_26
REMARK    7  A    between atoms: C_26  and  C_27
REMARK    8  A    between atoms: C_27  and  N_28
REMARK                            x       y       z     vdW  Elec       q    Type
REMARK                         _______ _______ _______ _____ _____    ______ ____
ROOT
ATOM      1  C   UNL     1      -0.092  10.966  18.598  0.00  0.00    +0.000 A 
ATOM      2  C   UNL     1      -0.401  12.324  18.753  0.00  0.00    +0.000 A 
ATOM      3  C   UNL     1       0.492  13.363  18.667  0.00  0.00    +0.000 A 
ATOM      4  N   UNL     1       0.075  14.599  18.825  0.00  0.00    +0.000 NA
ATOM      5  C   UNL     1       0.991  15.570  18.746  0.00  0.00    +0.000 A 
ATOM      6  N   UNL     1       2.288  15.397  18.481  0.00  0.00    +0.000 NA
ATOM      7  C   UNL     1       2.704  14.145  18.285  0.00  0.00    +0.000 A 
ATOM      8  N   UNL     1       4.070  13.949  17.929  0.00  0.00    +0.000 N 
ATOM      9  C   UNL     1       1.845  13.032  18.425  0.00  0.00    +0.000 A 
ATOM     10  C   UNL     1       2.165  11.678  18.344  0.00  0.00    +0.000 A 
ATOM     11  C   UNL     1       1.253  10.625  18.317  0.00  0.00    +0.000 A 
ATOM     12  H   UNL     1       4.204  13.267  17.204  0.00  0.00    +0.000 HD
ENDROOT
BRANCH   8  13
ATOM     13  C   UNL     1       5.130  14.857  18.166  0.00  0.00    +0.000 A 
ATOM     14  C   UNL     1       6.380  14.644  17.569  0.00  0.00    +0.000 A 
ATOM     15  C   UNL     1       7.517  15.319  18.017  0.00  0.00    +0.000 A 
ATOM     16  C   UNL     1       7.395  16.229  19.060  0.00  0.00    +0.000 A 
ATOM     17  F   UNL     1       8.511  16.748  19.590  0.00  0.00    +0.000 F 
ATOM     18  C   UNL     1       6.144  16.533  19.596  0.00  0.00    +0.000 A 
ATOM     19 CL   UNL     1       6.006  17.616  20.930  0.00  0.00    +0.000 Cl
ATOM     20  C   UNL     1       5.001  15.860  19.134  0.00  0.00    +0.000 A 
ENDBRANCH   8  13
BRANCH  11  21
ATOM     21  N   UNL     1       1.744   9.327  18.014  0.00  0.00    +0.000 N 
ATOM     22  C   UNL     1       1.936   8.301  18.951  0.00  0.00    +0.000 C 
ATOM     23  O   UNL     1       1.676   8.344  20.153  0.00  0.00    +0.000 OA
ATOM     24  H   UNL     1       1.806   9.065  17.028  0.00  0.00    +0.000 HD
BRANCH  22  25
ATOM     25  C   UNL     1       2.542   7.047  18.379  0.00  0.00    +0.000 C 
BRANCH  25  26
ATOM     26  C   UNL     1       2.345   5.917  19.401  0.00  0.00    +0.000 C 
BRANCH  26  27
ATOM     27  N   UNL     1       2.004   4.606  18.819  0.00  0.00    +0.000 NA
ATOM     28  C   UNL     1       1.493   3.697  19.882  0.00  0.00    +0.000 C 
ATOM     29  C   UNL     1       2.577   3.220  20.866  0.00  0.00    +0.000 C 
ATOM     30  O   UNL     1       3.644   2.557  20.176  0.00  0.00    +0.000 OA
ATOM     31  C   UNL     1       4.223   3.414  19.184  0.00  0.00    +0.000 C 
ATOM     32  C   UNL     1       3.165   3.931  18.191  0.00  0.00    +0.000 C 
ENDBRANCH  26  27
ENDBRANCH  25  26
ENDBRANCH  22  25
ENDBRANCH  11  21
BRANCH   1  33
ATOM     33  O   UNL     1      -1.082  10.025  18.755  0.00  0.00    +0.000 OA
BRANCH  33  35
ATOM     34  C   UNL     1      -2.256   9.862  16.671  0.00  0.00    +0.000 C 
ATOM     35  C   UNL     1      -2.323  10.379  18.086  0.00  0.00    +0.000 C 
ENDBRANCH  33  35
ENDBRANCH   1  33
TORSDOF 7
ENDMDL
MODEL 5
REMARK VINA RESULT:      -7.0      1.215      1.574
REMARK  Name = 
REMARK  8 active torsions:
REMARK  status: ('A' for Active; 'I' for Inactive)
REMARK    1  A    between atoms: C_1  and  C_2
REMARK    2  A    between atoms: C_2  and  O_3
REMARK    3  A    between atoms: O_3  and  C_4
REMARK    4  A    between atoms: N_11  and  C_12
REMARK    5  A    between atoms: C_22  and  N_23
REMARK    6  A    between atoms: C_24  and  C_26
REMARK    7  A    between atoms: C_26  and  C_27
REMARK    8  A    between atoms: C_27  and  N_28
REMARK                            x       y       z     vdW  Elec       q    Type
REMARK                         _______ _______ _______ _____ _____    ______ ____
ROOT
ATOM      1  C   UNL     1       2.029   6.153  20.399  0.00  0.00    +0.000 A 
ATOM      2  C   UNL     1       1.064   6.725  21.239  0.00  0.00    +0.000 A 
ATOM      3  C   UNL     1       0.632   8.027  21.194  0.00  0.00    +0.000 A 
ATOM      4  N   UNL     1      -0.289   8.441  22.034  0.00  0.00    +0.000 NA
ATOM      5  C   UNL     1      -0.660   9.723  21.954  0.00  0.00    +0.000 A 
ATOM      6  N   UNL     1      -0.206  10.612  21.066  0.00  0.00    +0.000 NA
ATOM      7  C   UNL     1       0.702  10.181  20.189  0.00  0.00    +0.000 A 
ATOM      8  N   UNL     1       1.143  11.095  19.189  0.00  0.00    +0.000 N 
ATOM      9  C   UNL     1       1.231   8.871  20.230  0.00  0.00    +0.000 A 
ATOM     10  C   UNL     1       2.243   8.323  19.444  0.00  0.00    +0.000 A 
ATOM     11  C   UNL     1       2.608   6.979  19.406  0.00  0.00    +0.000 A 
ATOM     12  H   UNL     1       1.225  10.685  18.276  0.00  0.00    +0.000 HD
ENDROOT
BRANCH   8  13
ATOM     13  C   UNL     1       1.064  12.506  19.260  0.00  0.00    +0.000 A 
ATOM     14  C   UNL     1      -0.077  13.167  18.784  0.00  0.00    +0.000 A 
ATOM     15  C   UNL     1      -0.067  14.543  18.545  0.00  0.00    +0.000 A 
ATOM     16  C   UNL     1       1.092  15.264  18.805  0.00  0.00    +0.000 A 
ATOM     17  F   UNL     1       1.146  16.548  18.422  0.00  0.00    +0.000 F 
ATOM     18  C   UNL     1       2.202  14.644  19.378  0.00  0.00    +0.000 A 
ATOM     19 CL   UNL     1       3.657  15.531  19.641  0.00  0.00    +0.000 Cl
ATOM     20  C   UNL     1       2.183  13.263  19.627  0.00  0.00    +0.000 A 
ENDBRANCH   8  13
BRANCH  11  21
ATOM     21  N   UNL     1       3.511   6.564  18.392  0.00  0.00    +0.000 N 
ATOM     22  C   UNL     1       3.321   5.460  17.547  0.00  0.00    +0.000 C 
ATOM     23  O   UNL     1       2.341   4.715  17.520  0.00  0.00    +0.000 OA
ATOM     24  H   UNL     1       4.271   7.203  18.147  0.00  0.00    +0.000 HD
BRANCH  22  25
ATOM     25  C   UNL     1       4.468   5.192  16.610  0.00  0.00    +0.000 C 
BRANCH  25  26
ATOM     26  C   UNL     1       5.291   6.484  16.488  0.00  0.00    +0.000 C 
BRANCH  26  27
ATOM     27  N   UNL     1       6.730   6.282  16.237  0.00  0.00    +0.000 NA
ATOM     28  C   UNL     1       7.069   4.838  16.363  0.00  0.00    +0.000 C 
ATOM     29  C   UNL     1       7.027   4.314  17.810  0.00  0.00    +0.000 C 
ATOM     30  O   UNL     1       7.910   5.061  18.655  0.00  0.00    +0.000 OA
ATOM     31  C   UNL     1       7.584   6.456  18.629  0.00  0.00    +0.000 C 
ATOM     32  C   UNL     1       7.594   7.015  17.194  0.00  0.00    +0.000 C 
ENDBRANCH  26  27
ENDBRANCH  25  26
ENDBRANCH  22  25
ENDBRANCH  11  21
BRANCH   1  33
ATOM     33  O   UNL     1       2.399   4.843  20.588  0.00  0.00    +0.000 OA
BRANCH  33  35
ATOM     34  C   UNL     1       1.705   2.794  21.621  0.00  0.00    +0.000 C 
ATOM     35  C   UNL     1       1.269   3.944  20.748  0.00  0.00    +0.000 C 
ENDBRANCH  33  35
ENDBRANCH   1  33
TORSDOF 7
ENDMDL
MODEL 6
REMARK VINA RESULT:      -7.0      0.949      1.145
REMARK  Name = 
REMARK  8 active torsions:
REMARK  status: ('A' for Active; 'I' for Inactive)
REMARK    1  A    between atoms: C_1  and  C_2
REMARK    2  A    between atoms: C_2  and  O_3
REMARK    3  A    between atoms: O_3  and  C_4
REMARK    4  A    between atoms: N_11  and  C_12
REMARK    5  A    between atoms: C_22  and  N_23
REMARK    6  A    between atoms: C_24  and  C_26
REMARK    7  A    between atoms: C_26  and  C_27
REMARK    8  A    between atoms: C_27  and  N_28
REMARK                            x       y       z     vdW  Elec       q    Type
REMARK                         _______ _______ _______ _____ _____    ______ ____
ROOT
ATOM      1  C   UNL     1       2.034   5.751  20.547  0.00  0.00    +0.000 A 
ATOM      2  C   UNL     1       1.381   6.608  21.444  0.00  0.00    +0.000 A 
ATOM      3  C   UNL     1       1.095   7.932  21.223  0.00  0.00    +0.000 A 
ATOM      4  N   UNL     1       0.468   8.629  22.144  0.00  0.00    +0.000 NA
ATOM      5  C   UNL     1       0.230   9.919  21.881  0.00  0.00    +0.000 A 
ATOM      6  N   UNL     1       0.538  10.552  20.746  0.00  0.00    +0.000 NA
ATOM      7  C   UNL     1       1.142   9.834  19.798  0.00  0.00    +0.000 A 
ATOM      8  N   UNL     1       1.412  10.475  18.554  0.00  0.00    +0.000 N 
ATOM      9  C   UNL     1       1.519   8.486  19.993  0.00  0.00    +0.000 A 
ATOM     10  C   UNL     1       2.233   7.656  19.132  0.00  0.00    +0.000 A 
ATOM     11  C   UNL     1       2.429   6.286  19.297  0.00  0.00    +0.000 A 
ATOM     12  H   UNL     1       1.215   9.901  17.753  0.00  0.00    +0.000 HD
ENDROOT
BRANCH   8  13
ATOM     13  C   UNL     1       1.507  11.871  18.341  0.00  0.00    +0.000 A 
ATOM     14  C   UNL     1       2.746  12.450  18.034  0.00  0.00    +0.000 A 
ATOM     15  C   UNL     1       2.941  13.829  18.129  0.00  0.00    +0.000 A 
ATOM     16  C   UNL     1       1.877  14.636  18.515  0.00  0.00    +0.000 A 
ATOM     17  F   UNL     1       2.114  15.933  18.760  0.00  0.00    +0.000 F 
ATOM     18  C   UNL     1       0.610  14.092  18.721  0.00  0.00    +0.000 A 
ATOM     19 CL   UNL     1      -0.690  15.089  19.260  0.00  0.00    +0.000 Cl
ATOM     20  C   UNL     1       0.416  12.706  18.614  0.00  0.00    +0.000 A 
ENDBRANCH   8  13
BRANCH  11  21
ATOM     21  N   UNL     1       2.995   5.560  18.216  0.00  0.00    +0.000 N 
ATOM     22  C   UNL     1       2.356   4.521  17.522  0.00  0.00    +0.000 C 
ATOM     23  O   UNL     1       1.211   4.109  17.706  0.00  0.00    +0.000 OA
ATOM     24  H   UNL     1       3.857   5.923  17.804  0.00  0.00    +0.000 HD
BRANCH  22  25
ATOM     25  C   UNL     1       3.208   3.866  16.468  0.00  0.00    +0.000 C 
BRANCH  25  26
ATOM     26  C   UNL     1       4.645   4.384  16.631  0.00  0.00    +0.000 C 
BRANCH  26  27
ATOM     27  N   UNL     1       5.052   5.406  15.649  0.00  0.00    +0.000 NA
ATOM     28  C   UNL     1       6.342   5.017  15.016  0.00  0.00    +0.000 C 
ATOM     29  C   UNL     1       7.554   5.129  15.959  0.00  0.00    +0.000 C 
ATOM     30  O   UNL     1       7.685   6.460  16.475  0.00  0.00    +0.000 OA
ATOM     31  C   UNL     1       6.493   6.863  17.158  0.00  0.00    +0.000 C 
ATOM     32  C   UNL     1       5.251   6.744  16.254  0.00  0.00    +0.000 C 
ENDBRANCH  26  27
ENDBRANCH  25  26
ENDBRANCH  22  25
ENDBRANCH  11  21
BRANCH   1  33
ATOM     33  O   UNL     1       2.295   4.454  20.919  0.00  0.00    +0.000 OA
BRANCH  33  35
ATOM     34  C   UNL     1       1.405   2.407  21.792  0.00  0.00    +0.000 C 
ATOM     35  C   UNL     1       1.112   3.611  20.933  0.00  0.00    +0.000 C 
ENDBRANCH  33  35
ENDBRANCH   1  33
TORSDOF 7
ENDMDL
MODEL 7
REMARK VINA RESULT:      -7.0      4.582      8.656
REMARK  Name = 
REMARK  8 active torsions:
REMARK  status: ('A' for Active; 'I' for Inactive)
REMARK    1  A    between atoms: C_1  and  C_2
REMARK    2  A    between atoms: C_2  and  O_3
REMARK    3  A    between atoms: O_3  and  C_4
REMARK    4  A    between atoms: N_11  and  C_12
REMARK    5  A    between atoms: C_22  and  N_23
REMARK    6  A    between atoms: C_24  and  C_26
REMARK    7  A    between atoms: C_26  and  C_27
REMARK    8  A    between atoms: C_27  and  N_28
REMARK                            x       y       z     vdW  Elec       q    Type
REMARK                         _______ _______ _______ _____ _____    ______ ____
ROOT
ATOM      1  C   UNL     1       1.680   7.065  20.238  0.00  0.00    +0.000 A 
ATOM      2  C   UNL     1       1.987   5.701  20.335  0.00  0.00    +0.000 A 
ATOM      3  C   UNL     1       2.834   5.009  19.507  0.00  0.00    +0.000 A 
ATOM      4  N   UNL     1       3.045   3.728  19.708  0.00  0.00    +0.000 NA
ATOM      5  C   UNL     1       3.869   3.101  18.861  0.00  0.00    +0.000 A 
ATOM      6  N   UNL     1       4.528   3.673  17.850  0.00  0.00    +0.000 NA
ATOM      7  C   UNL     1       4.341   4.981  17.668  0.00  0.00    +0.000 A 
ATOM      8  N   UNL     1       5.092   5.621  16.640  0.00  0.00    +0.000 N 
ATOM      9  C   UNL     1       3.431   5.731  18.448  0.00  0.00    +0.000 A 
ATOM     10  C   UNL     1       3.071   7.069  18.306  0.00  0.00    +0.000 A 
ATOM     11  C   UNL     1       2.302   7.806  19.205  0.00  0.00    +0.000 A 
ATOM     12  H   UNL     1       5.462   6.515  16.908  0.00  0.00    +0.000 HD
ENDROOT
BRANCH   8  13
ATOM     13  C   UNL     1       5.686   4.984  15.525  0.00  0.00    +0.000 A 
ATOM     14  C   UNL     1       7.053   5.154  15.268  0.00  0.00    +0.000 A 
ATOM     15  C   UNL     1       7.602   4.813  14.030  0.00  0.00    +0.000 A 
ATOM     16  C   UNL     1       6.776   4.279  13.049  0.00  0.00    +0.000 A 
ATOM     17  F   UNL     1       7.275   4.107  11.817  0.00  0.00    +0.000 F 
ATOM     18  C   UNL     1       5.436   4.003  13.321  0.00  0.00    +0.000 A 
ATOM     19 CL   UNL     1       4.402   3.397  12.082  0.00  0.00    +0.000 Cl
ATOM     20  C   UNL     1       4.891   4.337  14.571  0.00  0.00    +0.000 A 
ENDBRANCH   8  13
BRANCH  11  21
ATOM     21  N   UNL     1       2.214   9.210  19.010  0.00  0.00    +0.000 N 
ATOM     22  C   UNL     1       1.196   9.861  18.297  0.00  0.00    +0.000 C 
ATOM     23  O   UNL     1       0.213   9.337  17.774  0.00  0.00    +0.000 OA
ATOM     24  H   UNL     1       2.839   9.802  19.561  0.00  0.00    +0.000 HD
BRANCH  22  25
ATOM     25  C   UNL     1       1.382  11.350  18.173  0.00  0.00    +0.000 C 
BRANCH  25  26
ATOM     26  C   UNL     1       0.622  12.020  19.328  0.00  0.00    +0.000 C 
BRANCH  26  27
ATOM     27  N   UNL     1       0.429  13.474  19.183  0.00  0.00    +0.000 NA
ATOM     28  C   UNL     1       1.732  14.133  18.893  0.00  0.00    +0.000 C 
ATOM     29  C   UNL     1       2.694  14.162  20.096  0.00  0.00    +0.000 C 
ATOM     30  O   UNL     1       2.094  14.819  21.220  0.00  0.00    +0.000 OA
ATOM     31  C   UNL     1       0.865  14.181  21.589  0.00  0.00    +0.000 C 
ATOM     32  C   UNL     1      -0.118  14.112  20.405  0.00  0.00    +0.000 C 
ENDBRANCH  26  27
ENDBRANCH  25  26
ENDBRANCH  22  25
ENDBRANCH  11  21
BRANCH   1  33
ATOM     33  O   UNL     1       0.776   7.619  21.113  0.00  0.00    +0.000 OA
BRANCH  33  35
ATOM     34  C   UNL     1       0.190   9.524  22.444  0.00  0.00    +0.000 C 
ATOM     35  C   UNL     1       1.333   8.699  21.909  0.00  0.00    +0.000 C 
ENDBRANCH  33  35
ENDBRANCH   1  33
TORSDOF 7
ENDMDL
MODEL 8
REMARK VINA RESULT:      -7.0      3.835      6.127
REMARK  Name = 
REMARK  8 active torsions:
REMARK  status: ('A' for Active; 'I' for Inactive)
REMARK    1  A    between atoms: C_1  and  C_2
REMARK    2  A    between atoms: C_2  and  O_3
REMARK    3  A    between atoms: O_3  and  C_4
REMARK    4  A    between atoms: N_11  and  C_12
REMARK    5  A    between atoms: C_22  and  N_23
REMARK    6  A    between atoms: C_24  and  C_26
REMARK    7  A    between atoms: C_26  and  C_27
REMARK    8  A    between atoms: C_27  and  N_28
REMARK                            x       y       z     vdW  Elec       q    Type
REMARK                         _______ _______ _______ _____ _____    ______ ____
ROOT
ATOM      1  C   UNL     1       6.176   5.495  16.829  0.00  0.00    +0.000 A 
ATOM      2  C   UNL     1       5.023   4.713  16.985  0.00  0.00    +0.000 A 
ATOM      3  C   UNL     1       3.812   5.156  17.455  0.00  0.00    +0.000 A 
ATOM      4  N   UNL     1       2.801   4.323  17.548  0.00  0.00    +0.000 NA
ATOM      5  C   UNL     1       1.649   4.807  18.026  0.00  0.00    +0.000 A 
ATOM      6  N   UNL     1       1.425   6.074  18.382  0.00  0.00    +0.000 NA
ATOM      7  C   UNL     1       2.442   6.928  18.253  0.00  0.00    +0.000 A 
ATOM      8  N   UNL     1       2.199   8.298  18.558  0.00  0.00    +0.000 N 
ATOM      9  C   UNL     1       3.728   6.515  17.837  0.00  0.00    +0.000 A 
ATOM     10  C   UNL     1       4.893   7.275  17.752  0.00  0.00    +0.000 A 
ATOM     11  C   UNL     1       6.092   6.865  17.173  0.00  0.00    +0.000 A 
ATOM     12  H   UNL     1       2.614   8.937  17.904  0.00  0.00    +0.000 HD
ENDROOT
BRANCH   8  13
ATOM     13  C   UNL     1       1.153   8.796  19.373  0.00  0.00    +0.000 A 
ATOM     14  C   UNL     1       0.170   9.626  18.819  0.00  0.00    +0.000 A 
ATOM     15  C   UNL     1      -0.678  10.381  19.632  0.00  0.00    +0.000 A 
ATOM     16  C   UNL     1      -0.550  10.286  21.013  0.00  0.00    +0.000 A 
ATOM     17  F   UNL     1      -1.254  11.131  21.780  0.00  0.00    +0.000 F 
ATOM     18  C   UNL     1       0.349   9.386  21.584  0.00  0.00    +0.000 A 
ATOM     19 CL   UNL     1       0.546   9.318  23.295  0.00  0.00    +0.000 Cl
ATOM     20  C   UNL     1       1.192   8.622  20.762  0.00  0.00    +0.000 A 
ENDBRANCH   8  13
BRANCH  11  21
ATOM     21  N   UNL     1       7.105   7.842  16.980  0.00  0.00    +0.000 N 
ATOM     22  C   UNL     1       8.126   8.135  17.898  0.00  0.00    +0.000 C 
ATOM     23  O   UNL     1       8.328   7.575  18.976  0.00  0.00    +0.000 OA
ATOM     24  H   UNL     1       7.201   8.244  16.046  0.00  0.00    +0.000 HD
BRANCH  22  25
ATOM     25  C   UNL     1       9.024   9.268  17.483  0.00  0.00    +0.000 C 
BRANCH  25  26
ATOM     26  C   UNL     1       9.197  10.203  18.691  0.00  0.00    +0.000 C 
BRANCH  26  27
ATOM     27  N   UNL     1       9.473  11.610  18.352  0.00  0.00    +0.000 NA
ATOM     28  C   UNL     1      10.883  11.756  17.895  0.00  0.00    +0.000 C 
ATOM     29  C   UNL     1      11.920  11.598  19.021  0.00  0.00    +0.000 C 
ATOM     30  O   UNL     1      11.686  12.542  20.074  0.00  0.00    +0.000 OA
ATOM     31  C   UNL     1      10.362  12.399  20.603  0.00  0.00    +0.000 C 
ATOM     32  C   UNL     1       9.293  12.529  19.502  0.00  0.00    +0.000 C 
ENDBRANCH  26  27
ENDBRANCH  25  26
ENDBRANCH  22  25
ENDBRANCH  11  21
BRANCH   1  33
ATOM     33  O   UNL     1       7.337   4.906  16.388  0.00  0.00    +0.000 OA
BRANCH  33  35
ATOM     34  C   UNL     1       6.362   4.134  14.339  0.00  0.00    +0.000 C 
ATOM     35  C   UNL     1       7.485   4.939  14.943  0.00  0.00    +0.000 C 
ENDBRANCH  33  35
ENDBRANCH   1  33
TORSDOF 7
ENDMDL
MODEL 9
REMARK VINA RESULT:      -7.0      3.431      5.476
REMARK  Name = 
REMARK  8 active torsions:
REMARK  status: ('A' for Active; 'I' for Inactive)
REMARK    1  A    between atoms: C_1  and  C_2
REMARK    2  A    between atoms: C_2  and  O_3
REMARK    3  A    between atoms: O_3  and  C_4
REMARK    4  A    between atoms: N_11  and  C_12
REMARK    5  A    between atoms: C_22  and  N_23
REMARK    6  A    between atoms: C_24  and  C_26
REMARK    7  A    between atoms: C_26  and  C_27
REMARK    8  A    between atoms: C_27  and  N_28
REMARK                            x       y       z     vdW  Elec       q    Type
REMARK                         _______ _______ _______ _____ _____    ______ ____
ROOT
ATOM      1  C   UNL     1      -0.337  10.950  18.523  0.00  0.00    +0.000 A 
ATOM      2  C   UNL     1      -0.782  12.247  18.814  0.00  0.00    +0.000 A 
ATOM      3  C   UNL     1       0.017  13.347  18.998  0.00  0.00    +0.000 A 
ATOM      4  N   UNL     1      -0.525  14.515  19.260  0.00  0.00    +0.000 NA
ATOM      5  C   UNL     1       0.304  15.548  19.444  0.00  0.00    +0.000 A 
ATOM      6  N   UNL     1       1.635  15.507  19.346  0.00  0.00    +0.000 NA
ATOM      7  C   UNL     1       2.183  14.328  19.044  0.00  0.00    +0.000 A 
ATOM      8  N   UNL     1       3.595  14.281  18.864  0.00  0.00    +0.000 N 
ATOM      9  C   UNL     1       1.415  13.149  18.909  0.00  0.00    +0.000 A 
ATOM     10  C   UNL     1       1.862  11.848  18.692  0.00  0.00    +0.000 A 
ATOM     11  C   UNL     1       1.058  10.749  18.394  0.00  0.00    +0.000 A 
ATOM     12  H   UNL     1       3.884  13.723  18.080  0.00  0.00    +0.000 HD
ENDROOT
BRANCH   8  13
ATOM     13  C   UNL     1       4.530  15.216  19.370  0.00  0.00    +0.000 A 
ATOM     14  C   UNL     1       5.051  16.209  18.529  0.00  0.00    +0.000 A 
ATOM     15  C   UNL     1       6.187  16.936  18.890  0.00  0.00    +0.000 A 
ATOM     16  C   UNL     1       6.793  16.678  20.114  0.00  0.00    +0.000 A 
ATOM     17  F   UNL     1       7.970  17.261  20.380  0.00  0.00    +0.000 F 
ATOM     18  C   UNL     1       6.229  15.770  21.009  0.00  0.00    +0.000 A 
ATOM     19 CL   UNL     1       7.018  15.410  22.499  0.00  0.00    +0.000 Cl
ATOM     20  C   UNL     1       5.080  15.050  20.646  0.00  0.00    +0.000 A 
ENDBRANCH   8  13
BRANCH  11  21
ATOM     21  N   UNL     1       1.698   9.547  17.992  0.00  0.00    +0.000 N 
ATOM     22  C   UNL     1       1.948   8.449  18.830  0.00  0.00    +0.000 C 
ATOM     23  O   UNL     1       1.621   8.336  20.011  0.00  0.00    +0.000 OA
ATOM     24  H   UNL     1       1.840   9.400  16.991  0.00  0.00    +0.000 HD
BRANCH  22  25
ATOM     25  C   UNL     1       2.712   7.330  18.173  0.00  0.00    +0.000 C 
BRANCH  25  26
ATOM     26  C   UNL     1       3.033   6.281  19.248  0.00  0.00    +0.000 C 
BRANCH  26  27
ATOM     27  N   UNL     1       2.203   5.064  19.196  0.00  0.00    +0.000 NA
ATOM     28  C   UNL     1       2.802   4.004  20.053  0.00  0.00    +0.000 C 
ATOM     29  C   UNL     1       4.101   3.404  19.484  0.00  0.00    +0.000 C 
ATOM     30  O   UNL     1       3.887   2.861  18.175  0.00  0.00    +0.000 OA
ATOM     31  C   UNL     1       3.375   3.859  17.284  0.00  0.00    +0.000 C 
ATOM     32  C   UNL     1       2.086   4.501  17.829  0.00  0.00    +0.000 C 
ENDBRANCH  26  27
ENDBRANCH  25  26
ENDBRANCH  22  25
ENDBRANCH  11  21
BRANCH   1  33
ATOM     33  O   UNL     1      -1.251   9.931  18.409  0.00  0.00    +0.000 OA
BRANCH  33  35
ATOM     34  C   UNL     1      -3.437   9.879  17.427  0.00  0.00    +0.000 C 
ATOM     35  C   UNL     1      -1.957   9.931  17.140  0.00  0.00    +0.000 C 
ENDBRANCH  33  35
ENDBRANCH   1  33
TORSDOF 7
ENDMDL
