MODEL 1
REMARK VINA RESULT:      -8.8      0.000      0.000
REMARK  Name = 
REMARK  3 active torsions:
REMARK  status: ('A' for Active; 'I' for Inactive)
REMARK    1  A    between atoms: C_1  and  C_17
REMARK    2  A    between atoms: C_2  and  C_3
REMARK    3  A    between atoms: C_5  and  C_6
REMARK                            x       y       z     vdW  Elec       q    Type
REMARK                         _______ _______ _______ _____ _____    ______ ____
ROOT
ATOM      1  C   UNL     1       7.855   8.223  17.822  0.00  0.00    +0.000 A 
ATOM      2  N   UNL     1       6.915   7.541  17.178  0.00  0.00    +0.000 NA
ATOM      3  C   UNL     1       6.887   6.304  17.773  0.00  0.00    +0.000 A 
ATOM      4  C   UNL     1       7.811   6.265  18.783  0.00  0.00    +0.000 A 
ATOM      5  O   UNL     1       8.432   7.471  18.832  0.00  0.00    +0.000 OA
ENDROOT
BRANCH   3   6
ATOM      6  C   UNL     1       5.994   5.236  17.330  0.00  0.00    +0.000 A 
ATOM      7  C   UNL     1       6.339   4.165  16.530  0.00  0.00    +0.000 A 
ATOM      8  N   UNL     1       5.217   3.405  16.336  0.00  0.00    +0.000 N 
ATOM      9  C   UNL     1       4.143   3.964  16.990  0.00  0.00    +0.000 A 
ATOM     10  C   UNL     1       2.811   3.534  17.054  0.00  0.00    +0.000 A 
ATOM     11  C   UNL     1       1.915   4.306  17.797  0.00  0.00    +0.000 A 
ATOM     12  C   UNL     1       2.337   5.458  18.454  0.00  0.00    +0.000 A 
ATOM     13  C   UNL     1       3.671   5.872  18.380  0.00  0.00    +0.000 A 
ATOM     14  C   UNL     1       4.602   5.118  17.632  0.00  0.00    +0.000 A 
ATOM     15  H   UNL     1       5.173   2.558  15.787  0.00  0.00    +0.000 HD
ENDBRANCH   3   6
BRANCH   1  17
ATOM     16  C   UNL     1       9.260  10.137  18.292  0.00  0.00    +0.000 C 
ATOM     17  C   UNL     1       8.299   9.549  17.561  0.00  0.00    +0.000 C 
BRANCH  16  18
ATOM     18  C   UNL     1       9.697  11.529  18.099  0.00  0.00    +0.000 A 
ATOM     19  C   UNL     1       8.747  12.555  18.203  0.00  0.00    +0.000 A 
ATOM     20  C   UNL     1       9.111  13.890  18.003  0.00  0.00    +0.000 A 
ATOM     21  C   UNL     1      10.432  14.217  17.709  0.00  0.00    +0.000 A 
ATOM     22  C   UNL     1      11.393  13.212  17.631  0.00  0.00    +0.000 A 
ATOM     23  C   UNL     1      11.029  11.877  17.834  0.00  0.00    +0.000 A 
ENDBRANCH  16  18
ENDBRANCH   1  17
TORSDOF 3
ENDMDL
MODEL 2
REMARK VINA RESULT:      -8.6      1.652      2.171
REMARK  Name = 
REMARK  3 active torsions:
REMARK  status: ('A' for Active; 'I' for Inactive)
REMARK    1  A    between atoms: C_1  and  C_17
REMARK    2  A    between atoms: C_2  and  C_3
REMARK    3  A    between atoms: C_5  and  C_6
REMARK                            x       y       z     vdW  Elec       q    Type
REMARK                         _______ _______ _______ _____ _____    ______ ____
ROOT
ATOM      1  C   UNL     1       7.215   7.190  17.812  0.00  0.00    +0.000 A 
ATOM      2  N   UNL     1       6.639   6.167  18.432  0.00  0.00    +0.000 NA
ATOM      3  C   UNL     1       5.697   5.689  17.555  0.00  0.00    +0.000 A 
ATOM      4  C   UNL     1       5.731   6.430  16.405  0.00  0.00    +0.000 A 
ATOM      5  O   UNL     1       6.687   7.383  16.546  0.00  0.00    +0.000 OA
ENDROOT
BRANCH   3   6
ATOM      6  C   UNL     1       4.818   4.568  17.876  0.00  0.00    +0.000 A 
ATOM      7  C   UNL     1       4.870   3.306  17.318  0.00  0.00    +0.000 A 
ATOM      8  N   UNL     1       3.868   2.557  17.876  0.00  0.00    +0.000 N 
ATOM      9  C   UNL     1       3.159   3.309  18.785  0.00  0.00    +0.000 A 
ATOM     10  C   UNL     1       2.056   2.955  19.572  0.00  0.00    +0.000 A 
ATOM     11  C   UNL     1       1.523   3.931  20.418  0.00  0.00    +0.000 A 
ATOM     12  C   UNL     1       2.075   5.207  20.476  0.00  0.00    +0.000 A 
ATOM     13  C   UNL     1       3.177   5.542  19.682  0.00  0.00    +0.000 A 
ATOM     14  C   UNL     1       3.738   4.582  18.812  0.00  0.00    +0.000 A 
ATOM     15  H   UNL     1       3.668   1.592  17.654  0.00  0.00    +0.000 HD
ENDBRANCH   3   6
BRANCH   1  17
ATOM     16  C   UNL     1       8.176   9.383  18.164  0.00  0.00    +0.000 C 
ATOM     17  C   UNL     1       8.232   8.049  18.313  0.00  0.00    +0.000 C 
BRANCH  16  18
ATOM     18  C   UNL     1       9.240  10.299  18.606  0.00  0.00    +0.000 A 
ATOM     19  C   UNL     1       9.377  10.563  19.976  0.00  0.00    +0.000 A 
ATOM     20  C   UNL     1      10.357  11.445  20.440  0.00  0.00    +0.000 A 
ATOM     21  C   UNL     1      11.222  12.064  19.541  0.00  0.00    +0.000 A 
ATOM     22  C   UNL     1      11.117  11.789  18.180  0.00  0.00    +0.000 A 
ATOM     23  C   UNL     1      10.139  10.905  17.716  0.00  0.00    +0.000 A 
ENDBRANCH  16  18
ENDBRANCH   1  17
TORSDOF 3
ENDMDL
MODEL 3
REMARK VINA RESULT:      -8.6      1.652      2.237
REMARK  Name = 
REMARK  3 active torsions:
REMARK  status: ('A' for Active; 'I' for Inactive)
REMARK    1  A    between atoms: C_1  and  C_17
REMARK    2  A    between atoms: C_2  and  C_3
REMARK    3  A    between atoms: C_5  and  C_6
REMARK                            x       y       z     vdW  Elec       q    Type
REMARK                         _______ _______ _______ _____ _____    ______ ____
ROOT
ATOM      1  C   UNL     1       7.262   7.233  17.850  0.00  0.00    +0.000 A 
ATOM      2  N   UNL     1       6.705   6.179  18.434  0.00  0.00    +0.000 NA
ATOM      3  C   UNL     1       5.762   5.724  17.546  0.00  0.00    +0.000 A 
ATOM      4  C   UNL     1       5.776   6.511  16.426  0.00  0.00    +0.000 A 
ATOM      5  O   UNL     1       6.721   7.470  16.597  0.00  0.00    +0.000 OA
ENDROOT
BRANCH   3   6
ATOM      6  C   UNL     1       4.899   4.580  17.830  0.00  0.00    +0.000 A 
ATOM      7  C   UNL     1       4.940   3.353  17.198  0.00  0.00    +0.000 A 
ATOM      8  N   UNL     1       3.961   2.565  17.743  0.00  0.00    +0.000 N 
ATOM      9  C   UNL     1       3.278   3.258  18.717  0.00  0.00    +0.000 A 
ATOM     10  C   UNL     1       2.204   2.851  19.518  0.00  0.00    +0.000 A 
ATOM     11  C   UNL     1       1.693   3.772  20.436  0.00  0.00    +0.000 A 
ATOM     12  C   UNL     1       2.240   5.046  20.550  0.00  0.00    +0.000 A 
ATOM     13  C   UNL     1       3.314   5.436  19.742  0.00  0.00    +0.000 A 
ATOM     14  C   UNL     1       3.850   4.531  18.800  0.00  0.00    +0.000 A 
ATOM     15  H   UNL     1       3.759   1.613  17.472  0.00  0.00    +0.000 HD
ENDBRANCH   3   6
BRANCH   1  17
ATOM     16  C   UNL     1       8.230   9.419  18.226  0.00  0.00    +0.000 C 
ATOM     17  C   UNL     1       8.272   8.085  18.377  0.00  0.00    +0.000 C 
BRANCH  16  18
ATOM     18  C   UNL     1       9.290  10.327  18.695  0.00  0.00    +0.000 A 
ATOM     19  C   UNL     1      10.144  10.912  17.749  0.00  0.00    +0.000 A 
ATOM     20  C   UNL     1      11.179  11.762  18.149  0.00  0.00    +0.000 A 
ATOM     21  C   UNL     1      11.366  12.048  19.499  0.00  0.00    +0.000 A 
ATOM     22  C   UNL     1      10.508  11.498  20.448  0.00  0.00    +0.000 A 
ATOM     23  C   UNL     1       9.470  10.650  20.047  0.00  0.00    +0.000 A 
ENDBRANCH  16  18
ENDBRANCH   1  17
TORSDOF 3
ENDMDL
MODEL 4
REMARK VINA RESULT:      -8.5      2.139      3.326
REMARK  Name = 
REMARK  3 active torsions:
REMARK  status: ('A' for Active; 'I' for Inactive)
REMARK    1  A    between atoms: C_1  and  C_17
REMARK    2  A    between atoms: C_2  and  C_3
REMARK    3  A    between atoms: C_5  and  C_6
REMARK                            x       y       z     vdW  Elec       q    Type
REMARK                         _______ _______ _______ _____ _____    ______ ____
ROOT
ATOM      1  C   UNL     1       7.879   7.945  17.835  0.00  0.00    +0.000 A 
ATOM      2  N   UNL     1       7.207   7.453  16.801  0.00  0.00    +0.000 NA
ATOM      3  C   UNL     1       7.063   6.113  17.063  0.00  0.00    +0.000 A 
ATOM      4  C   UNL     1       7.645   5.820  18.267  0.00  0.00    +0.000 A 
ATOM      5  O   UNL     1       8.165   6.967  18.773  0.00  0.00    +0.000 OA
ENDROOT
BRANCH   3   6
ATOM      6  C   UNL     1       6.393   5.198  16.142  0.00  0.00    +0.000 A 
ATOM      7  C   UNL     1       5.323   4.379  16.441  0.00  0.00    +0.000 A 
ATOM      8  N   UNL     1       5.005   3.671  15.313  0.00  0.00    +0.000 N 
ATOM      9  C   UNL     1       5.853   4.008  14.283  0.00  0.00    +0.000 A 
ATOM     10  C   UNL     1       5.899   3.528  12.968  0.00  0.00    +0.000 A 
ATOM     11  C   UNL     1       6.880   4.049  12.121  0.00  0.00    +0.000 A 
ATOM     12  C   UNL     1       7.775   5.015  12.572  0.00  0.00    +0.000 A 
ATOM     13  C   UNL     1       7.713   5.484  13.889  0.00  0.00    +0.000 A 
ATOM     14  C   UNL     1       6.738   4.974  14.773  0.00  0.00    +0.000 A 
ATOM     15  H   UNL     1       4.260   2.992  15.240  0.00  0.00    +0.000 HD
ENDBRANCH   3   6
BRANCH   1  17
ATOM     16  C   UNL     1       9.166   9.624  19.012  0.00  0.00    +0.000 C 
ATOM     17  C   UNL     1       8.317   9.285  18.028  0.00  0.00    +0.000 C 
BRANCH  16  18
ATOM     18  C   UNL     1       9.588  11.007  19.287  0.00  0.00    +0.000 A 
ATOM     19  C   UNL     1       9.713  11.900  18.213  0.00  0.00    +0.000 A 
ATOM     20  C   UNL     1      10.133  13.217  18.424  0.00  0.00    +0.000 A 
ATOM     21  C   UNL     1      10.421  13.661  19.712  0.00  0.00    +0.000 A 
ATOM     22  C   UNL     1      10.273  12.794  20.792  0.00  0.00    +0.000 A 
ATOM     23  C   UNL     1       9.850  11.478  20.581  0.00  0.00    +0.000 A 
ENDBRANCH  16  18
ENDBRANCH   1  17
TORSDOF 3
ENDMDL
MODEL 5
REMARK VINA RESULT:      -8.5      0.822      1.103
REMARK  Name = 
REMARK  3 active torsions:
REMARK  status: ('A' for Active; 'I' for Inactive)
REMARK    1  A    between atoms: C_1  and  C_17
REMARK    2  A    between atoms: C_2  and  C_3
REMARK    3  A    between atoms: C_5  and  C_6
REMARK                            x       y       z     vdW  Elec       q    Type
REMARK                         _______ _______ _______ _____ _____    ______ ____
ROOT
ATOM      1  C   UNL     1       7.926   8.174  18.029  0.00  0.00    +0.000 A 
ATOM      2  N   UNL     1       6.944   7.632  17.317  0.00  0.00    +0.000 NA
ATOM      3  C   UNL     1       6.849   6.334  17.753  0.00  0.00    +0.000 A 
ATOM      4  C   UNL     1       7.774   6.117  18.738  0.00  0.00    +0.000 A 
ATOM      5  O   UNL     1       8.464   7.269  18.930  0.00  0.00    +0.000 OA
ENDROOT
BRANCH   3   6
ATOM      6  C   UNL     1       5.893   5.383  17.192  0.00  0.00    +0.000 A 
ATOM      7  C   UNL     1       6.063   4.639  16.041  0.00  0.00    +0.000 A 
ATOM      8  N   UNL     1       4.936   3.885  15.855  0.00  0.00    +0.000 N 
ATOM      9  C   UNL     1       4.028   4.127  16.861  0.00  0.00    +0.000 A 
ATOM     10  C   UNL     1       2.750   3.590  17.062  0.00  0.00    +0.000 A 
ATOM     11  C   UNL     1       2.033   4.022  18.181  0.00  0.00    +0.000 A 
ATOM     12  C   UNL     1       2.577   4.949  19.064  0.00  0.00    +0.000 A 
ATOM     13  C   UNL     1       3.856   5.474  18.848  0.00  0.00    +0.000 A 
ATOM     14  C   UNL     1       4.605   5.064  17.724  0.00  0.00    +0.000 A 
ATOM     15  H   UNL     1       4.781   3.245  15.088  0.00  0.00    +0.000 HD
ENDBRANCH   3   6
BRANCH   1  17
ATOM     16  C   UNL     1       9.176  10.049  18.910  0.00  0.00    +0.000 C 
ATOM     17  C   UNL     1       8.444   9.495  17.930  0.00  0.00    +0.000 C 
BRANCH  16  18
ATOM     18  C   UNL     1       9.670  11.436  18.875  0.00  0.00    +0.000 A 
ATOM     19  C   UNL     1      10.647  11.826  19.802  0.00  0.00    +0.000 A 
ATOM     20  C   UNL     1      11.129  13.139  19.822  0.00  0.00    +0.000 A 
ATOM     21  C   UNL     1      10.649  14.073  18.909  0.00  0.00    +0.000 A 
ATOM     22  C   UNL     1       9.700  13.693  17.964  0.00  0.00    +0.000 A 
ATOM     23  C   UNL     1       9.220  12.379  17.941  0.00  0.00    +0.000 A 
ENDBRANCH  16  18
ENDBRANCH   1  17
TORSDOF 3
ENDMDL
MODEL 6
REMARK VINA RESULT:      -8.5      2.142      3.379
REMARK  Name = 
REMARK  3 active torsions:
REMARK  status: ('A' for Active; 'I' for Inactive)
REMARK    1  A    between atoms: C_1  and  C_17
REMARK    2  A    between atoms: C_2  and  C_3
REMARK    3  A    between atoms: C_5  and  C_6
REMARK                            x       y       z     vdW  Elec       q    Type
REMARK                         _______ _______ _______ _____ _____    ______ ____
ROOT
ATOM      1  C   UNL     1       7.879   7.896  17.820  0.00  0.00    +0.000 A 
ATOM      2  N   UNL     1       7.252   7.365  16.778  0.00  0.00    +0.000 NA
ATOM      3  C   UNL     1       7.131   6.028  17.065  0.00  0.00    +0.000 A 
ATOM      4  C   UNL     1       7.682   5.776  18.293  0.00  0.00    +0.000 A 
ATOM      5  O   UNL     1       8.158   6.946  18.789  0.00  0.00    +0.000 OA
ENDROOT
BRANCH   3   6
ATOM      6  C   UNL     1       6.513   5.076  16.145  0.00  0.00    +0.000 A 
ATOM      7  C   UNL     1       5.531   4.159  16.459  0.00  0.00    +0.000 A 
ATOM      8  N   UNL     1       5.236   3.450  15.326  0.00  0.00    +0.000 N 
ATOM      9  C   UNL     1       6.014   3.883  14.276  0.00  0.00    +0.000 A 
ATOM     10  C   UNL     1       6.056   3.437  12.949  0.00  0.00    +0.000 A 
ATOM     11  C   UNL     1       6.957   4.062  12.083  0.00  0.00    +0.000 A 
ATOM     12  C   UNL     1       7.778   5.094  12.526  0.00  0.00    +0.000 A 
ATOM     13  C   UNL     1       7.722   5.527  13.856  0.00  0.00    +0.000 A 
ATOM     14  C   UNL     1       6.827   4.914  14.760  0.00  0.00    +0.000 A 
ATOM     15  H   UNL     1       4.553   2.709  15.261  0.00  0.00    +0.000 HD
ENDBRANCH   3   6
BRANCH   1  17
ATOM     16  C   UNL     1       9.081   9.632  19.002  0.00  0.00    +0.000 C 
ATOM     17  C   UNL     1       8.279   9.250  17.996  0.00  0.00    +0.000 C 
BRANCH  16  18
ATOM     18  C   UNL     1       9.460  11.031  19.259  0.00  0.00    +0.000 A 
ATOM     19  C   UNL     1      10.050  11.355  20.489  0.00  0.00    +0.000 A 
ATOM     20  C   UNL     1      10.404  12.675  20.786  0.00  0.00    +0.000 A 
ATOM     21  C   UNL     1      10.184  13.684  19.853  0.00  0.00    +0.000 A 
ATOM     22  C   UNL     1       9.626  13.373  18.616  0.00  0.00    +0.000 A 
ATOM     23  C   UNL     1       9.274  12.053  18.317  0.00  0.00    +0.000 A 
ENDBRANCH  16  18
ENDBRANCH   1  17
TORSDOF 3
ENDMDL
MODEL 7
REMARK VINA RESULT:      -8.4      1.449      2.017
REMARK  Name = 
REMARK  3 active torsions:
REMARK  status: ('A' for Active; 'I' for Inactive)
REMARK    1  A    between atoms: C_1  and  C_17
REMARK    2  A    between atoms: C_2  and  C_3
REMARK    3  A    between atoms: C_5  and  C_6
REMARK                            x       y       z     vdW  Elec       q    Type
REMARK                         _______ _______ _______ _____ _____    ______ ____
ROOT
ATOM      1  C   UNL     1       7.142   7.187  17.562  0.00  0.00    +0.000 A 
ATOM      2  N   UNL     1       5.869   6.854  17.734  0.00  0.00    +0.000 NA
ATOM      3  C   UNL     1       5.801   5.510  17.461  0.00  0.00    +0.000 A 
ATOM      4  C   UNL     1       7.050   5.049  17.139  0.00  0.00    +0.000 A 
ATOM      5  O   UNL     1       7.913   6.094  17.200  0.00  0.00    +0.000 OA
ENDROOT
BRANCH   3   6
ATOM      6  C   UNL     1       4.550   4.757  17.511  0.00  0.00    +0.000 A 
ATOM      7  C   UNL     1       4.089   3.880  16.551  0.00  0.00    +0.000 A 
ATOM      8  N   UNL     1       2.877   3.397  16.967  0.00  0.00    +0.000 N 
ATOM      9  C   UNL     1       2.536   3.948  18.181  0.00  0.00    +0.000 A 
ATOM     10  C   UNL     1       1.391   3.750  18.963  0.00  0.00    +0.000 A 
ATOM     11  C   UNL     1       1.299   4.451  20.168  0.00  0.00    +0.000 A 
ATOM     12  C   UNL     1       2.315   5.311  20.575  0.00  0.00    +0.000 A 
ATOM     13  C   UNL     1       3.452   5.495  19.781  0.00  0.00    +0.000 A 
ATOM     14  C   UNL     1       3.574   4.807  18.554  0.00  0.00    +0.000 A 
ATOM     15  H   UNL     1       2.306   2.735  16.459  0.00  0.00    +0.000 HD
ENDBRANCH   3   6
BRANCH   1  17
ATOM     16  C   UNL     1       8.587   8.781  18.670  0.00  0.00    +0.000 C 
ATOM     17  C   UNL     1       7.727   8.478  17.684  0.00  0.00    +0.000 C 
BRANCH  16  18
ATOM     18  C   UNL     1       9.158  10.123  18.871  0.00  0.00    +0.000 A 
ATOM     19  C   UNL     1       9.364  10.578  20.181  0.00  0.00    +0.000 A 
ATOM     20  C   UNL     1       9.882  11.855  20.421  0.00  0.00    +0.000 A 
ATOM     21  C   UNL     1      10.211  12.687  19.355  0.00  0.00    +0.000 A 
ATOM     22  C   UNL     1      10.039  12.238  18.048  0.00  0.00    +0.000 A 
ATOM     23  C   UNL     1       9.524  10.960  17.808  0.00  0.00    +0.000 A 
ENDBRANCH  16  18
ENDBRANCH   1  17
TORSDOF 3
ENDMDL
MODEL 8
REMARK VINA RESULT:      -8.4      1.738      2.528
REMARK  Name = 
REMARK  3 active torsions:
REMARK  status: ('A' for Active; 'I' for Inactive)
REMARK    1  A    between atoms: C_1  and  C_17
REMARK    2  A    between atoms: C_2  and  C_3
REMARK    3  A    between atoms: C_5  and  C_6
REMARK                            x       y       z     vdW  Elec       q    Type
REMARK                         _______ _______ _______ _____ _____    ______ ____
ROOT
ATOM      1  C   UNL     1       7.404   7.372  17.616  0.00  0.00    +0.000 A 
ATOM      2  N   UNL     1       6.206   7.206  18.163  0.00  0.00    +0.000 NA
ATOM      3  C   UNL     1       5.545   6.330  17.338  0.00  0.00    +0.000 A 
ATOM      4  C   UNL     1       6.368   5.971  16.305  0.00  0.00    +0.000 A 
ATOM      5  O   UNL     1       7.551   6.617  16.464  0.00  0.00    +0.000 OA
ENDROOT
BRANCH   3   6
ATOM      6  C   UNL     1       4.168   5.906  17.579  0.00  0.00    +0.000 A 
ATOM      7  C   UNL     1       3.080   6.736  17.761  0.00  0.00    +0.000 A 
ATOM      8  N   UNL     1       1.980   5.949  17.973  0.00  0.00    +0.000 N 
ATOM      9  C   UNL     1       2.331   4.618  17.939  0.00  0.00    +0.000 A 
ATOM     10  C   UNL     1       1.536   3.478  18.115  0.00  0.00    +0.000 A 
ATOM     11  C   UNL     1       2.163   2.232  18.032  0.00  0.00    +0.000 A 
ATOM     12  C   UNL     1       3.527   2.132  17.777  0.00  0.00    +0.000 A 
ATOM     13  C   UNL     1       4.305   3.282  17.603  0.00  0.00    +0.000 A 
ATOM     14  C   UNL     1       3.705   4.558  17.686  0.00  0.00    +0.000 A 
ATOM     15  H   UNL     1       1.042   6.287  18.138  0.00  0.00    +0.000 HD
ENDBRANCH   3   6
BRANCH   1  17
ATOM     16  C   UNL     1       8.273   9.529  18.288  0.00  0.00    +0.000 C 
ATOM     17  C   UNL     1       8.456   8.217  18.069  0.00  0.00    +0.000 C 
BRANCH  16  18
ATOM     18  C   UNL     1       9.351  10.448  18.687  0.00  0.00    +0.000 A 
ATOM     19  C   UNL     1      10.189  10.977  17.695  0.00  0.00    +0.000 A 
ATOM     20  C   UNL     1      11.241  11.835  18.030  0.00  0.00    +0.000 A 
ATOM     21  C   UNL     1      11.461  12.184  19.360  0.00  0.00    +0.000 A 
ATOM     22  C   UNL     1      10.620  11.690  20.354  0.00  0.00    +0.000 A 
ATOM     23  C   UNL     1       9.565  10.834  20.018  0.00  0.00    +0.000 A 
ENDBRANCH  16  18
ENDBRANCH   1  17
TORSDOF 3
ENDMDL
MODEL 9
REMARK VINA RESULT:      -8.4      1.735      2.431
REMARK  Name = 
REMARK  3 active torsions:
REMARK  status: ('A' for Active; 'I' for Inactive)
REMARK    1  A    between atoms: C_1  and  C_17
REMARK    2  A    between atoms: C_2  and  C_3
REMARK    3  A    between atoms: C_5  and  C_6
REMARK                            x       y       z     vdW  Elec       q    Type
REMARK                         _______ _______ _______ _____ _____    ______ ____
ROOT
ATOM      1  C   UNL     1       7.448   7.468  17.472  0.00  0.00    +0.000 A 
ATOM      2  N   UNL     1       6.253   7.354  18.039  0.00  0.00    +0.000 NA
ATOM      3  C   UNL     1       5.581   6.418  17.294  0.00  0.00    +0.000 A 
ATOM      4  C   UNL     1       6.394   5.969  16.288  0.00  0.00    +0.000 A 
ATOM      5  O   UNL     1       7.582   6.620  16.385  0.00  0.00    +0.000 OA
ENDROOT
BRANCH   3   6
ATOM      6  C   UNL     1       4.204   6.023  17.580  0.00  0.00    +0.000 A 
ATOM      7  C   UNL     1       3.145   6.876  17.816  0.00  0.00    +0.000 A 
ATOM      8  N   UNL     1       2.034   6.112  18.056  0.00  0.00    +0.000 N 
ATOM      9  C   UNL     1       2.350   4.775  17.987  0.00  0.00    +0.000 A 
ATOM     10  C   UNL     1       1.534   3.651  18.174  0.00  0.00    +0.000 A 
ATOM     11  C   UNL     1       2.126   2.391  18.046  0.00  0.00    +0.000 A 
ATOM     12  C   UNL     1       3.477   2.263  17.739  0.00  0.00    +0.000 A 
ATOM     13  C   UNL     1       4.276   3.397  17.554  0.00  0.00    +0.000 A 
ATOM     14  C   UNL     1       3.712   4.685  17.682  0.00  0.00    +0.000 A 
ATOM     15  H   UNL     1       1.112   6.471  18.262  0.00  0.00    +0.000 HD
ENDBRANCH   3   6
BRANCH   1  17
ATOM     16  C   UNL     1       8.282   9.533  18.419  0.00  0.00    +0.000 C 
ATOM     17  C   UNL     1       8.508   8.341  17.845  0.00  0.00    +0.000 C 
BRANCH  16  18
ATOM     18  C   UNL     1       9.346  10.493  18.755  0.00  0.00    +0.000 A 
ATOM     19  C   UNL     1       9.549  10.832  20.100  0.00  0.00    +0.000 A 
ATOM     20  C   UNL     1      10.532  11.757  20.465  0.00  0.00    +0.000 A 
ATOM     21  C   UNL     1      11.332  12.346  19.490  0.00  0.00    +0.000 A 
ATOM     22  C   UNL     1      11.162  11.998  18.152  0.00  0.00    +0.000 A 
ATOM     23  C   UNL     1      10.181  11.070  17.788  0.00  0.00    +0.000 A 
ENDBRANCH  16  18
ENDBRANCH   1  17
TORSDOF 3
ENDMDL
